MODEL 1
REMARK VINA RESULT:      -6.8      0.000      0.000
REMARK  0 active torsions:
REMARK  status: ('A' for Active; 'I' for Inactive)
REMARK       I    between atoms: C2_1  and  N_18 
REMARK       I    between atoms: O4_5  and  C1_17 
REMARK       I    between atoms: O4_5  and  C4_30 
REMARK       I    between atoms: O6_6  and  C6_7 
REMARK       I    between atoms: O6_6  and  S2_22 
REMARK       I    between atoms: C6_7  and  C5_28 
REMARK       I    between atoms: C3_8  and  O3_10 
REMARK       I    between atoms: C1_9  and  O1_16 
REMARK       I    between atoms: S1_12  and  N_18 
REMARK       I    between atoms: S1_12  and  O1S_13 
REMARK       I    between atoms: S1_12  and  O2S_15 
REMARK       I    between atoms: S1_12  and  O3S_26 
REMARK       I    between atoms: O2_24  and  C2_31 
REMARK       I    between atoms: O2_24  and  S_34 
REMARK       I    between atoms: C6_25  and  C5_27 
REMARK       I    between atoms: C3_32  and  O3_33 
ROOT
ATOM      1  C2  SGN d1219      21.777 -12.779  -4.752  0.00  0.00     0.081 C 
ATOM      2  O4  SGN d1219      19.479 -10.733  -2.581  0.00  0.00    -0.348 OA
ATOM      3  O6  SGN d1219      21.766  -8.129  -4.916  0.00  0.00    -0.254 OA
ATOM      4  C6  SGN d1219      20.565  -8.667  -4.402  0.00  0.00     0.067 C 
ATOM      5  C3  SGN d1219      20.834 -12.448  -3.587  0.00  0.00     0.083 C 
ATOM      6  C1  SGN d1219      21.535 -11.892  -5.981  0.00  0.00     0.147 C 
ATOM      7  O3  SGN d1219      21.325 -13.034  -2.399  0.00  0.00    -0.391 OA
ATOM      8  O4S SGN d1219      22.783  -7.098  -2.941  0.00  0.00    -0.572 OA
ATOM      9  S1  SGN d1219      22.956 -15.107  -5.283  0.00  0.00     0.156 S 
ATOM     10  O1S SGN d1219      22.512 -16.331  -5.946  0.00  0.00    -0.296 OA
ATOM     11  O5  SGN d1219      21.520 -10.526  -5.600  0.00  0.00    -0.350 OA
ATOM     12  O2S SGN d1219      23.469 -15.367  -3.937  0.00  0.00    -0.296 OA
ATOM     13  O1  SGN d1219      20.327 -12.232  -6.632  0.00  0.00    -0.369 OA
ATOM     14  N   SGN d1219      21.658 -14.183  -5.112  0.00  0.00    -0.210 NA
ATOM     15  O5S SGN d1219      21.288  -5.829  -4.328  0.00  0.00    -0.572 OA
ATOM     16  S2  SGN d1219      22.359  -6.819  -4.310  0.00  0.00     0.251 S 
ATOM     17  O3S SGN d1219      23.923 -14.371  -6.100  0.00  0.00    -0.296 OA
ATOM     18  C5  SGN d1219      20.501 -10.164  -4.679  0.00  0.00     0.091 C 
ATOM     19  O6S SGN d1219      23.486  -6.446  -5.157  0.00  0.00    -0.572 OA
ATOM     20  C4  SGN d1219      20.637 -10.942  -3.367  0.00  0.00     0.095 C 
ATOM     21  H   SGN d1219      22.773 -12.579  -4.414  0.00  0.00     0.076 H 
ATOM     22  H   SGN d1219      19.732  -8.184  -4.868  0.00  0.00     0.080 H 
ATOM     23  H   SGN d1219      20.534  -8.505  -3.344  0.00  0.00     0.080 H 
ATOM     24  H   SGN d1219      19.877 -12.850  -3.847  0.00  0.00     0.089 H 
ATOM     25  H   SGN d1219      22.337 -12.056  -6.670  0.00  0.00     0.131 H 
ATOM     26  H   SGN d1219      22.191 -12.654  -2.185  0.00  0.00     0.210 HD
ATOM     27  H   SGN d1219      21.874 -16.792  -5.380  0.00  0.00     0.231 HD
ATOM     28  H   SGN d1219      22.803 -15.855  -3.427  0.00  0.00     0.231 HD
ATOM     29  H   SGN d1219      19.582 -12.091  -6.027  0.00  0.00     0.212 HD
ATOM     30  H   SGN d1219      21.162 -14.212  -6.003  0.00  0.00     0.140 HD
ATOM     31  H   SGN d1219      23.550 -14.218  -6.982  0.00  0.00     0.231 HD
ATOM     32  H   SGN d1219      19.554 -10.410  -5.114  0.00  0.00     0.090 H 
ATOM     33  H   SGN d1219      21.510 -10.578  -2.868  0.00  0.00     0.091 H 
ATOM     34  C4  IDU d1218      17.964 -11.284   0.880  0.00  0.00    -0.005 C 
ATOM     35  O61 IDU d1218      18.028 -14.537   0.404  0.00  0.00    -0.646 OA
ATOM     36  O5  IDU d1218      19.916 -11.786  -0.448  0.00  0.00    -0.343 OA
ATOM     37  C1  IDU d1218      19.877 -10.565  -1.205  0.00  0.00     0.161 C 
ATOM     38  O62 IDU d1218      19.779 -13.707   1.493  0.00  0.00    -0.646 OA
ATOM     39  O1S IDU d1218      21.696  -6.905   0.509  0.00  0.00    -0.572 OA
ATOM     40  O3S IDU d1218      20.333  -6.963  -1.475  0.00  0.00    -0.572 OA
ATOM     41  O2  IDU d1218      19.912  -8.718   0.333  0.00  0.00    -0.244 OA
ATOM     42  C6  IDU d1218      18.829 -13.599   0.665  0.00  0.00     0.203 C 
ATOM     43  C5  IDU d1218      18.640 -12.292  -0.049  0.00  0.00     0.127 C 
ATOM     44  C2  IDU d1218      19.058  -9.445  -0.548  0.00  0.00     0.132 C 
ATOM     45  C3  IDU d1218      17.811  -9.912   0.219  0.00  0.00     0.069 C 
ATOM     46  O3  IDU d1218      16.681  -9.928  -0.662  0.00  0.00    -0.393 OA
ATOM     47  S   IDU d1218      20.336  -7.177  -0.012  0.00  0.00     0.252 S 
ATOM     48  O2S IDU d1218      19.360  -6.264   0.622  0.00  0.00    -0.572 OA
ATOM     49  H   IDU d1218      16.994 -11.652   1.142  0.00  0.00     0.041 H 
ATOM     50  H   IDU d1218      18.579 -11.168   1.748  0.00  0.00     0.041 H 
ATOM     51  H   IDU d1218      20.902 -10.256  -1.206  0.00  0.00     0.133 H 
ATOM     52  H   IDU d1218      18.024 -12.445  -0.910  0.00  0.00     0.100 H 
ATOM     53  H   IDU d1218      18.685  -8.838  -1.347  0.00  0.00     0.097 H 
ATOM     54  H   IDU d1218      17.669  -9.209   1.012  0.00  0.00     0.087 H 
ATOM     55  H   IDU d1218      16.833 -10.571  -1.372  0.00  0.00     0.210 HD
ENDROOT
TORSDOF 16
ENDMDL
MODEL 2
REMARK VINA RESULT:      -6.7      2.387      4.528
REMARK  0 active torsions:
REMARK  status: ('A' for Active; 'I' for Inactive)
REMARK       I    between atoms: C2_1  and  N_18 
REMARK       I    between atoms: O4_5  and  C1_17 
REMARK       I    between atoms: O4_5  and  C4_30 
REMARK       I    between atoms: O6_6  and  C6_7 
REMARK       I    between atoms: O6_6  and  S2_22 
REMARK       I    between atoms: C6_7  and  C5_28 
REMARK       I    between atoms: C3_8  and  O3_10 
REMARK       I    between atoms: C1_9  and  O1_16 
REMARK       I    between atoms: S1_12  and  N_18 
REMARK       I    between atoms: S1_12  and  O1S_13 
REMARK       I    between atoms: S1_12  and  O2S_15 
REMARK       I    between atoms: S1_12  and  O3S_26 
REMARK       I    between atoms: O2_24  and  C2_31 
REMARK       I    between atoms: O2_24  and  S_34 
REMARK       I    between atoms: C6_25  and  C5_27 
REMARK       I    between atoms: C3_32  and  O3_33 
ROOT
ATOM      1  C2  SGN d1219      20.012 -14.638  -3.180  0.00  0.00     0.081 C 
ATOM      2  O4  SGN d1219      19.927 -10.927  -3.817  0.00  0.00    -0.348 OA
ATOM      3  O6  SGN d1219      22.364 -12.712  -6.705  0.00  0.00    -0.254 OA
ATOM      4  C6  SGN d1219      21.292 -11.912  -6.253  0.00  0.00     0.067 C 
ATOM      5  C3  SGN d1219      19.799 -13.145  -2.893  0.00  0.00     0.083 C 
ATOM      6  C1  SGN d1219      19.895 -14.976  -4.673  0.00  0.00     0.147 C 
ATOM      7  O3  SGN d1219      20.258 -12.844  -1.592  0.00  0.00    -0.391 OA
ATOM      8  O4S SGN d1219      24.328 -11.447  -5.968  0.00  0.00    -0.572 OA
ATOM      9  S1  SGN d1219      19.576 -16.692  -1.543  0.00  0.00     0.156 S 
ATOM     10  O1S SGN d1219      18.380 -17.443  -1.169  0.00  0.00    -0.296 OA
ATOM     11  O5  SGN d1219      20.711 -14.103  -5.437  0.00  0.00    -0.350 OA
ATOM     12  O2S SGN d1219      20.270 -16.149  -0.375  0.00  0.00    -0.296 OA
ATOM     13  O1  SGN d1219      18.553 -14.903  -5.115  0.00  0.00    -0.369 OA
ATOM     14  N   SGN d1219      19.076 -15.437  -2.407  0.00  0.00    -0.210 NA
ATOM     15  O5S SGN d1219      23.362 -11.025  -8.126  0.00  0.00    -0.572 OA
ATOM     16  S2  SGN d1219      23.705 -12.047  -7.145  0.00  0.00     0.251 S 
ATOM     17  O3S SGN d1219      20.470 -17.486  -2.386  0.00  0.00    -0.296 OA
ATOM     18  C5  SGN d1219      20.376 -12.725  -5.345  0.00  0.00     0.091 C 
ATOM     19  O6S SGN d1219      24.530 -13.112  -7.704  0.00  0.00    -0.572 OA
ATOM     20  C4  SGN d1219      20.493 -12.221  -3.903  0.00  0.00     0.095 C 
ATOM     21  H   SGN d1219      21.014 -14.873  -2.885  0.00  0.00     0.076 H 
ATOM     22  H   SGN d1219      20.733 -11.560  -7.095  0.00  0.00     0.080 H 
ATOM     23  H   SGN d1219      21.682 -11.081  -5.702  0.00  0.00     0.080 H 
ATOM     24  H   SGN d1219      18.748 -12.965  -2.981  0.00  0.00     0.089 H 
ATOM     25  H   SGN d1219      20.231 -15.982  -4.811  0.00  0.00     0.131 H 
ATOM     26  H   SGN d1219      21.211 -13.014  -1.537  0.00  0.00     0.210 HD
ATOM     27  H   SGN d1219      17.811 -16.888  -0.613  0.00  0.00     0.231 HD
ATOM     28  H   SGN d1219      19.648 -15.630   0.158  0.00  0.00     0.231 HD
ATOM     29  H   SGN d1219      18.224 -13.998  -4.999  0.00  0.00     0.212 HD
ATOM     30  H   SGN d1219      18.387 -15.797  -3.068  0.00  0.00     0.140 HD
ATOM     31  H   SGN d1219      19.976 -17.829  -3.148  0.00  0.00     0.231 HD
ATOM     32  H   SGN d1219      19.360 -12.606  -5.657  0.00  0.00     0.090 H 
ATOM     33  H   SGN d1219      21.532 -12.202  -3.653  0.00  0.00     0.091 H 
ATOM     34  C4  IDU d1218      19.522  -7.887  -1.542  0.00  0.00    -0.005 C 
ATOM     35  O61 IDU d1218      17.736  -9.680   0.557  0.00  0.00    -0.646 OA
ATOM     36  O5  IDU d1218      20.397 -10.136  -1.580  0.00  0.00    -0.343 OA
ATOM     37  C1  IDU d1218      20.762 -10.112  -2.970  0.00  0.00     0.161 C 
ATOM     38  O62 IDU d1218      19.901  -9.537   1.041  0.00  0.00    -0.646 OA
ATOM     39  O1S IDU d1218      24.645  -8.330  -4.150  0.00  0.00    -0.572 OA
ATOM     40  O3S IDU d1218      22.909  -8.981  -5.685  0.00  0.00    -0.572 OA
ATOM     41  O2  IDU d1218      22.230  -8.244  -3.335  0.00  0.00    -0.244 OA
ATOM     42  C6  IDU d1218      18.941  -9.537   0.217  0.00  0.00     0.203 C 
ATOM     43  C5  IDU d1218      19.245  -9.360  -1.242  0.00  0.00     0.127 C 
ATOM     44  C2  IDU d1218      20.898  -8.700  -3.558  0.00  0.00     0.132 C 
ATOM     45  C3  IDU d1218      19.904  -7.665  -3.008  0.00  0.00     0.069 C 
ATOM     46  O3  IDU d1218      18.721  -7.655  -3.816  0.00  0.00    -0.393 OA
ATOM     47  S   IDU d1218      23.259  -8.050  -4.591  0.00  0.00     0.252 S 
ATOM     48  O2S IDU d1218      23.155  -6.657  -5.078  0.00  0.00    -0.572 OA
ATOM     49  H   IDU d1218      18.642  -7.319  -1.325  0.00  0.00     0.041 H 
ATOM     50  H   IDU d1218      20.344  -7.573  -0.933  0.00  0.00     0.041 H 
ATOM     51  H   IDU d1218      21.737 -10.553  -2.965  0.00  0.00     0.133 H 
ATOM     52  H   IDU d1218      18.406  -9.685  -1.821  0.00  0.00     0.100 H 
ATOM     53  H   IDU d1218      20.666  -8.785  -4.600  0.00  0.00     0.097 H 
ATOM     54  H   IDU d1218      20.405  -6.721  -3.049  0.00  0.00     0.087 H 
ATOM     55  H   IDU d1218      18.286  -8.520  -3.763  0.00  0.00     0.210 HD
ENDROOT
TORSDOF 16
ENDMDL
MODEL 3
REMARK VINA RESULT:      -6.5      3.057      6.730
REMARK  0 active torsions:
REMARK  status: ('A' for Active; 'I' for Inactive)
REMARK       I    between atoms: C2_1  and  N_18 
REMARK       I    between atoms: O4_5  and  C1_17 
REMARK       I    between atoms: O4_5  and  C4_30 
REMARK       I    between atoms: O6_6  and  C6_7 
REMARK       I    between atoms: O6_6  and  S2_22 
REMARK       I    between atoms: C6_7  and  C5_28 
REMARK       I    between atoms: C3_8  and  O3_10 
REMARK       I    between atoms: C1_9  and  O1_16 
REMARK       I    between atoms: S1_12  and  N_18 
REMARK       I    between atoms: S1_12  and  O1S_13 
REMARK       I    between atoms: S1_12  and  O2S_15 
REMARK       I    between atoms: S1_12  and  O3S_26 
REMARK       I    between atoms: O2_24  and  C2_31 
REMARK       I    between atoms: O2_24  and  S_34 
REMARK       I    between atoms: C6_25  and  C5_27 
REMARK       I    between atoms: C3_32  and  O3_33 
ROOT
ATOM      1  C2  SGN d1219      21.901 -13.409  -4.969  0.00  0.00     0.081 C 
ATOM      2  O4  SGN d1219      24.048 -10.328  -4.686  0.00  0.00    -0.348 OA
ATOM      3  O6  SGN d1219      20.296  -9.485  -3.050  0.00  0.00    -0.254 OA
ATOM      4  C6  SGN d1219      21.707  -9.568  -3.042  0.00  0.00     0.067 C 
ATOM      5  C3  SGN d1219      23.060 -12.447  -5.259  0.00  0.00     0.083 C 
ATOM      6  C1  SGN d1219      21.323 -13.232  -3.558  0.00  0.00     0.147 C 
ATOM      7  O3  SGN d1219      23.310 -12.410  -6.649  0.00  0.00    -0.391 OA
ATOM      8  O4S SGN d1219      19.870  -7.720  -4.693  0.00  0.00    -0.572 OA
ATOM      9  S1  SGN d1219      21.457 -15.800  -6.054  0.00  0.00     0.156 S 
ATOM     10  O1S SGN d1219      21.980 -17.138  -5.787  0.00  0.00    -0.296 OA
ATOM     11  O5  SGN d1219      21.033 -11.864  -3.319  0.00  0.00    -0.350 OA
ATOM     12  O2S SGN d1219      21.642 -15.407  -7.451  0.00  0.00    -0.296 OA
ATOM     13  O1  SGN d1219      22.210 -13.723  -2.572  0.00  0.00    -0.369 OA
ATOM     14  N   SGN d1219      22.327 -14.784  -5.170  0.00  0.00    -0.210 NA
ATOM     15  O5S SGN d1219      20.173  -7.163  -2.376  0.00  0.00    -0.572 OA
ATOM     16  S2  SGN d1219      19.595  -8.117  -3.315  0.00  0.00     0.251 S 
ATOM     17  O3S SGN d1219      20.061 -15.673  -5.634  0.00  0.00    -0.296 OA
ATOM     18  C5  SGN d1219      22.150 -10.989  -3.371  0.00  0.00     0.091 C 
ATOM     19  O6S SGN d1219      18.170  -8.334  -3.093  0.00  0.00    -0.572 OA
ATOM     20  C4  SGN d1219      22.815 -11.020  -4.750  0.00  0.00     0.095 C 
ATOM     21  H   SGN d1219      21.118 -13.172  -5.659  0.00  0.00     0.076 H 
ATOM     22  H   SGN d1219      22.072  -9.298  -2.073  0.00  0.00     0.080 H 
ATOM     23  H   SGN d1219      22.101  -8.899  -3.779  0.00  0.00     0.080 H 
ATOM     24  H   SGN d1219      23.909 -12.823  -4.727  0.00  0.00     0.089 H 
ATOM     25  H   SGN d1219      20.418 -13.800  -3.498  0.00  0.00     0.131 H 
ATOM     26  H   SGN d1219      22.528 -12.067  -7.109  0.00  0.00     0.210 HD
ATOM     27  H   SGN d1219      22.905 -17.187  -6.076  0.00  0.00     0.231 HD
ATOM     28  H   SGN d1219      22.577 -15.504  -7.693  0.00  0.00     0.231 HD
ATOM     29  H   SGN d1219      23.040 -13.224  -2.606  0.00  0.00     0.212 HD
ATOM     30  H   SGN d1219      22.406 -15.202  -4.243  0.00  0.00     0.140 HD
ATOM     31  H   SGN d1219      19.978 -15.942  -4.705  0.00  0.00     0.231 HD
ATOM     32  H   SGN d1219      22.867 -11.319  -2.649  0.00  0.00     0.090 H 
ATOM     33  H   SGN d1219      22.147 -10.548  -5.439  0.00  0.00     0.091 H 
ATOM     34  C4  IDU d1218      26.905  -8.923  -6.794  0.00  0.00    -0.005 C 
ATOM     35  O61 IDU d1218      27.744 -11.967  -7.709  0.00  0.00    -0.646 OA
ATOM     36  O5  IDU d1218      24.876 -10.219  -6.956  0.00  0.00    -0.343 OA
ATOM     37  C1  IDU d1218      24.200  -9.540  -5.884  0.00  0.00     0.161 C 
ATOM     38  O62 IDU d1218      26.405 -10.892  -9.120  0.00  0.00    -0.646 OA
ATOM     39  O1S IDU d1218      22.109  -5.723  -6.724  0.00  0.00    -0.572 OA
ATOM     40  O3S IDU d1218      22.503  -6.620  -4.524  0.00  0.00    -0.572 OA
ATOM     41  O2  IDU d1218      24.168  -7.188  -6.377  0.00  0.00    -0.244 OA
ATOM     42  C6  IDU d1218      26.852 -11.113  -7.958  0.00  0.00     0.203 C 
ATOM     43  C5  IDU d1218      26.293 -10.323  -6.810  0.00  0.00     0.127 C 
ATOM     44  C2  IDU d1218      24.789  -8.164  -5.543  0.00  0.00     0.132 C 
ATOM     45  C3  IDU d1218      26.315  -8.055  -5.679  0.00  0.00     0.069 C 
ATOM     46  O3  IDU d1218      26.936  -8.390  -4.432  0.00  0.00    -0.393 OA
ATOM     47  S   IDU d1218      23.154  -6.076  -5.735  0.00  0.00     0.252 S 
ATOM     48  O2S IDU d1218      23.937  -4.873  -5.376  0.00  0.00    -0.572 OA
ATOM     49  H   IDU d1218      27.961  -9.009  -6.643  0.00  0.00     0.041 H 
ATOM     50  H   IDU d1218      26.686  -8.454  -7.731  0.00  0.00     0.041 H 
ATOM     51  H   IDU d1218      23.221  -9.381  -6.286  0.00  0.00     0.133 H 
ATOM     52  H   IDU d1218      26.527 -10.820  -5.891  0.00  0.00     0.100 H 
ATOM     53  H   IDU d1218      24.587  -8.000  -4.505  0.00  0.00     0.097 H 
ATOM     54  H   IDU d1218      26.519  -7.040  -5.948  0.00  0.00     0.087 H 
ATOM     55  H   IDU d1218      26.737  -9.313  -4.210  0.00  0.00     0.210 HD
ENDROOT
TORSDOF 16
ENDMDL
MODEL 4
REMARK VINA RESULT:      -6.5      2.741      6.156
REMARK  0 active torsions:
REMARK  status: ('A' for Active; 'I' for Inactive)
REMARK       I    between atoms: C2_1  and  N_18 
REMARK       I    between atoms: O4_5  and  C1_17 
REMARK       I    between atoms: O4_5  and  C4_30 
REMARK       I    between atoms: O6_6  and  C6_7 
REMARK       I    between atoms: O6_6  and  S2_22 
REMARK       I    between atoms: C6_7  and  C5_28 
REMARK       I    between atoms: C3_8  and  O3_10 
REMARK       I    between atoms: C1_9  and  O1_16 
REMARK       I    between atoms: S1_12  and  N_18 
REMARK       I    between atoms: S1_12  and  O1S_13 
REMARK       I    between atoms: S1_12  and  O2S_15 
REMARK       I    between atoms: S1_12  and  O3S_26 
REMARK       I    between atoms: O2_24  and  C2_31 
REMARK       I    between atoms: O2_24  and  S_34 
REMARK       I    between atoms: C6_25  and  C5_27 
REMARK       I    between atoms: C3_32  and  O3_33 
ROOT
ATOM      1  C2  SGN d1219      23.371  -7.444  -5.055  0.00  0.00     0.081 C 
ATOM      2  O4  SGN d1219      21.122 -10.398  -4.424  0.00  0.00    -0.348 OA
ATOM      3  O6  SGN d1219      20.045  -7.327  -1.802  0.00  0.00    -0.254 OA
ATOM      4  C6  SGN d1219      19.810  -8.300  -2.799  0.00  0.00     0.067 C 
ATOM      5  C3  SGN d1219      22.889  -8.900  -5.077  0.00  0.00     0.083 C 
ATOM      6  C1  SGN d1219      22.215  -6.439  -4.940  0.00  0.00     0.147 C 
ATOM      7  O3  SGN d1219      23.980  -9.764  -4.830  0.00  0.00    -0.391 OA
ATOM      8  O4S SGN d1219      20.579  -8.688   0.163  0.00  0.00    -0.572 OA
ATOM      9  S1  SGN d1219      25.601  -6.447  -6.116  0.00  0.00     0.156 S 
ATOM     10  O1S SGN d1219      25.972  -6.029  -7.465  0.00  0.00    -0.296 OA
ATOM     11  O5  SGN d1219      21.362  -6.799  -3.866  0.00  0.00    -0.350 OA
ATOM     12  O2S SGN d1219      26.525  -7.446  -5.577  0.00  0.00    -0.296 OA
ATOM     13  O1  SGN d1219      21.478  -6.362  -6.145  0.00  0.00    -0.369 OA
ATOM     14  N   SGN d1219      24.170  -7.160  -6.235  0.00  0.00    -0.210 NA
ATOM     15  O5S SGN d1219      18.302  -8.076  -0.297  0.00  0.00    -0.572 OA
ATOM     16  S2  SGN d1219      19.691  -7.631  -0.313  0.00  0.00     0.251 S 
ATOM     17  O3S SGN d1219      25.454  -5.302  -5.217  0.00  0.00    -0.296 OA
ATOM     18  C5  SGN d1219      20.736  -8.068  -3.987  0.00  0.00     0.091 C 
ATOM     19  O6S SGN d1219      19.893  -6.388   0.421  0.00  0.00    -0.572 OA
ATOM     20  C4  SGN d1219      21.772  -9.193  -4.066  0.00  0.00     0.095 C 
ATOM     21  H   SGN d1219      23.973  -7.327  -4.177  0.00  0.00     0.076 H 
ATOM     22  H   SGN d1219      18.793  -8.235  -3.124  0.00  0.00     0.080 H 
ATOM     23  H   SGN d1219      20.000  -9.272  -2.392  0.00  0.00     0.080 H 
ATOM     24  H   SGN d1219      22.477  -9.070  -6.050  0.00  0.00     0.089 H 
ATOM     25  H   SGN d1219      22.634  -5.474  -4.749  0.00  0.00     0.131 H 
ATOM     26  H   SGN d1219      24.335  -9.591  -3.944  0.00  0.00     0.210 HD
ATOM     27  H   SGN d1219      26.061  -6.810  -8.033  0.00  0.00     0.231 HD
ATOM     28  H   SGN d1219      26.596  -8.188  -6.198  0.00  0.00     0.231 HD
ATOM     29  H   SGN d1219      21.087  -7.227  -6.341  0.00  0.00     0.212 HD
ATOM     30  H   SGN d1219      23.599  -6.565  -6.835  0.00  0.00     0.140 HD
ATOM     31  H   SGN d1219      24.836  -4.663  -5.606  0.00  0.00     0.231 HD
ATOM     32  H   SGN d1219      20.168  -8.075  -4.894  0.00  0.00     0.090 H 
ATOM     33  H   SGN d1219      22.230  -9.275  -3.103  0.00  0.00     0.091 H 
ATOM     34  C4  IDU d1218      21.597 -14.171  -4.761  0.00  0.00    -0.005 C 
ATOM     35  O61 IDU d1218      23.778 -13.694  -7.175  0.00  0.00    -0.646 OA
ATOM     36  O5  IDU d1218      22.796 -12.136  -4.266  0.00  0.00    -0.343 OA
ATOM     37  C1  IDU d1218      21.682 -11.475  -3.645  0.00  0.00     0.161 C 
ATOM     38  O62 IDU d1218      24.653 -13.940  -5.146  0.00  0.00    -0.646 OA
ATOM     39  O1S IDU d1218      20.802 -12.274   0.625  0.00  0.00    -0.572 OA
ATOM     40  O3S IDU d1218      19.360 -11.058  -0.871  0.00  0.00    -0.572 OA
ATOM     41  O2  IDU d1218      20.877 -12.863  -1.855  0.00  0.00    -0.244 OA
ATOM     42  C6  IDU d1218      23.714 -13.595  -5.920  0.00  0.00     0.203 C 
ATOM     43  C5  IDU d1218      22.455 -13.037  -5.321  0.00  0.00     0.127 C 
ATOM     44  C2  IDU d1218      20.570 -12.424  -3.176  0.00  0.00     0.132 C 
ATOM     45  C3  IDU d1218      20.332 -13.646  -4.078  0.00  0.00     0.069 C 
ATOM     46  O3  IDU d1218      19.348 -13.329  -5.070  0.00  0.00    -0.393 OA
ATOM     47  S   IDU d1218      19.961 -12.380  -0.589  0.00  0.00     0.252 S 
ATOM     48  O2S IDU d1218      18.886 -13.374  -0.375  0.00  0.00    -0.572 OA
ATOM     49  H   IDU d1218      21.313 -14.818  -5.564  0.00  0.00     0.041 H 
ATOM     50  H   IDU d1218      22.176 -14.696  -4.030  0.00  0.00     0.041 H 
ATOM     51  H   IDU d1218      22.122 -11.039  -2.772  0.00  0.00     0.133 H 
ATOM     52  H   IDU d1218      21.903 -12.519  -6.077  0.00  0.00     0.100 H 
ATOM     53  H   IDU d1218      19.659 -11.864  -3.218  0.00  0.00     0.097 H 
ATOM     54  H   IDU d1218      19.990 -14.429  -3.434  0.00  0.00     0.087 H 
ATOM     55  H   IDU d1218      19.680 -12.618  -5.639  0.00  0.00     0.210 HD
ENDROOT
TORSDOF 16
ENDMDL
MODEL 5
REMARK VINA RESULT:      -6.5      2.746      7.479
REMARK  0 active torsions:
REMARK  status: ('A' for Active; 'I' for Inactive)
REMARK       I    between atoms: C2_1  and  N_18 
REMARK       I    between atoms: O4_5  and  C1_17 
REMARK       I    between atoms: O4_5  and  C4_30 
REMARK       I    between atoms: O6_6  and  C6_7 
REMARK       I    between atoms: O6_6  and  S2_22 
REMARK       I    between atoms: C6_7  and  C5_28 
REMARK       I    between atoms: C3_8  and  O3_10 
REMARK       I    between atoms: C1_9  and  O1_16 
REMARK       I    between atoms: S1_12  and  N_18 
REMARK       I    between atoms: S1_12  and  O1S_13 
REMARK       I    between atoms: S1_12  and  O2S_15 
REMARK       I    between atoms: S1_12  and  O3S_26 
REMARK       I    between atoms: O2_24  and  C2_31 
REMARK       I    between atoms: O2_24  and  S_34 
REMARK       I    between atoms: C6_25  and  C5_27 
REMARK       I    between atoms: C3_32  and  O3_33 
ROOT
ATOM      1  C2  SGN d1219      21.724  -7.889  -4.758  0.00  0.00     0.081 C 
ATOM      2  O4  SGN d1219      21.421 -11.634  -5.010  0.00  0.00    -0.348 OA
ATOM      3  O6  SGN d1219      19.461 -10.375  -1.541  0.00  0.00    -0.254 OA
ATOM      4  C6  SGN d1219      19.564 -11.041  -2.782  0.00  0.00     0.067 C 
ATOM      5  C3  SGN d1219      22.042  -9.318  -5.216  0.00  0.00     0.083 C 
ATOM      6  C1  SGN d1219      20.265  -7.722  -4.308  0.00  0.00     0.147 C 
ATOM      7  O3  SGN d1219      23.443  -9.495  -5.278  0.00  0.00    -0.391 OA
ATOM      8  O4S SGN d1219      20.961 -11.677  -0.107  0.00  0.00    -0.572 OA
ATOM      9  S1  SGN d1219      22.911  -5.630  -5.519  0.00  0.00     0.156 S 
ATOM     10  O1S SGN d1219      22.764  -4.759  -6.683  0.00  0.00    -0.296 OA
ATOM     11  O5  SGN d1219      19.925  -8.734  -3.375  0.00  0.00    -0.350 OA
ATOM     12  O2S SGN d1219      24.293  -6.077  -5.340  0.00  0.00    -0.296 OA
ATOM     13  O1  SGN d1219      19.379  -7.755  -5.410  0.00  0.00    -0.369 OA
ATOM     14  N   SGN d1219      22.037  -6.941  -5.815  0.00  0.00    -0.210 NA
ATOM     15  O5S SGN d1219      18.645 -12.284  -0.294  0.00  0.00    -0.572 OA
ATOM     16  S2  SGN d1219      19.592 -11.179  -0.209  0.00  0.00     0.251 S 
ATOM     17  O3S SGN d1219      22.381  -5.004  -4.307  0.00  0.00    -0.296 OA
ATOM     18  C5  SGN d1219      20.009 -10.065  -3.865  0.00  0.00     0.091 C 
ATOM     19  O6S SGN d1219      19.277 -10.248   0.867  0.00  0.00    -0.572 OA
ATOM     20  C4  SGN d1219      21.433 -10.401  -4.316  0.00  0.00     0.095 C 
ATOM     21  H   SGN d1219      22.338  -7.690  -3.904  0.00  0.00     0.076 H 
ATOM     22  H   SGN d1219      18.611 -11.451  -3.044  0.00  0.00     0.080 H 
ATOM     23  H   SGN d1219      20.288 -11.826  -2.700  0.00  0.00     0.080 H 
ATOM     24  H   SGN d1219      21.598  -9.435  -6.183  0.00  0.00     0.089 H 
ATOM     25  H   SGN d1219      20.171  -6.765  -3.840  0.00  0.00     0.131 H 
ATOM     26  H   SGN d1219      23.821  -9.385  -4.392  0.00  0.00     0.210 HD
ATOM     27  H   SGN d1219      23.124  -5.203  -7.467  0.00  0.00     0.231 HD
ATOM     28  H   SGN d1219      24.609  -6.485  -6.161  0.00  0.00     0.231 HD
ATOM     29  H   SGN d1219      19.445  -8.615  -5.854  0.00  0.00     0.212 HD
ATOM     30  H   SGN d1219      21.144  -6.615  -6.186  0.00  0.00     0.140 HD
ATOM     31  H   SGN d1219      21.466  -4.721  -4.463  0.00  0.00     0.231 HD
ATOM     32  H   SGN d1219      19.363 -10.150  -4.714  0.00  0.00     0.090 H 
ATOM     33  H   SGN d1219      22.041 -10.462  -3.438  0.00  0.00     0.091 H 
ATOM     34  C4  IDU d1218      23.650 -14.347  -6.509  0.00  0.00    -0.005 C 
ATOM     35  O61 IDU d1218      24.804 -12.199  -8.715  0.00  0.00    -0.646 OA
ATOM     36  O5  IDU d1218      23.737 -12.185  -5.442  0.00  0.00    -0.343 OA
ATOM     37  C1  IDU d1218      22.579 -12.399  -4.617  0.00  0.00     0.161 C 
ATOM     38  O62 IDU d1218      26.045 -12.434  -6.885  0.00  0.00    -0.646 OA
ATOM     39  O1S IDU d1218      23.033 -14.571  -0.781  0.00  0.00    -0.572 OA
ATOM     40  O3S IDU d1218      20.925 -13.988  -1.789  0.00  0.00    -0.572 OA
ATOM     41  O2  IDU d1218      22.928 -14.394  -3.323  0.00  0.00    -0.244 OA
ATOM     42  C6  IDU d1218      24.934 -12.465  -7.490  0.00  0.00     0.203 C 
ATOM     43  C5  IDU d1218      23.703 -12.834  -6.714  0.00  0.00     0.127 C 
ATOM     44  C2  IDU d1218      22.202 -13.876  -4.435  0.00  0.00     0.132 C 
ATOM     45  C3  IDU d1218      22.445 -14.767  -5.663  0.00  0.00     0.069 C 
ATOM     46  O3  IDU d1218      21.270 -14.792  -6.482  0.00  0.00    -0.393 OA
ATOM     47  S   IDU d1218      22.148 -14.805  -1.946  0.00  0.00     0.252 S 
ATOM     48  O2S IDU d1218      21.778 -16.236  -2.020  0.00  0.00    -0.572 OA
ATOM     49  H   IDU d1218      23.585 -14.824  -7.465  0.00  0.00     0.041 H 
ATOM     50  H   IDU d1218      24.539 -14.643  -5.991  0.00  0.00     0.041 H 
ATOM     51  H   IDU d1218      22.896 -12.028  -3.665  0.00  0.00     0.133 H 
ATOM     52  H   IDU d1218      22.836 -12.522  -7.258  0.00  0.00     0.100 H 
ATOM     53  H   IDU d1218      21.144 -13.899  -4.277  0.00  0.00     0.097 H 
ATOM     54  H   IDU d1218      22.668 -15.742  -5.284  0.00  0.00     0.087 H 
ATOM     55  H   IDU d1218      21.088 -13.898  -6.813  0.00  0.00     0.210 HD
ENDROOT
TORSDOF 16
ENDMDL
MODEL 6
REMARK VINA RESULT:      -6.4      2.868      6.526
REMARK  0 active torsions:
REMARK  status: ('A' for Active; 'I' for Inactive)
REMARK       I    between atoms: C2_1  and  N_18 
REMARK       I    between atoms: O4_5  and  C1_17 
REMARK       I    between atoms: O4_5  and  C4_30 
REMARK       I    between atoms: O6_6  and  C6_7 
REMARK       I    between atoms: O6_6  and  S2_22 
REMARK       I    between atoms: C6_7  and  C5_28 
REMARK       I    between atoms: C3_8  and  O3_10 
REMARK       I    between atoms: C1_9  and  O1_16 
REMARK       I    between atoms: S1_12  and  N_18 
REMARK       I    between atoms: S1_12  and  O1S_13 
REMARK       I    between atoms: S1_12  and  O2S_15 
REMARK       I    between atoms: S1_12  and  O3S_26 
REMARK       I    between atoms: O2_24  and  C2_31 
REMARK       I    between atoms: O2_24  and  S_34 
REMARK       I    between atoms: C6_25  and  C5_27 
REMARK       I    between atoms: C3_32  and  O3_33 
ROOT
ATOM      1  C2  SGN d1219      23.662  -7.661  -4.907  0.00  0.00     0.081 C 
ATOM      2  O4  SGN d1219      22.894  -9.793  -1.900  0.00  0.00    -0.348 OA
ATOM      3  O6  SGN d1219      23.543 -12.305  -5.176  0.00  0.00    -0.254 OA
ATOM      4  C6  SGN d1219      23.761 -11.833  -3.863  0.00  0.00     0.067 C 
ATOM      5  C3  SGN d1219      23.144  -8.021  -3.509  0.00  0.00     0.083 C 
ATOM      6  C1  SGN d1219      24.785  -8.595  -5.381  0.00  0.00     0.147 C 
ATOM      7  O3  SGN d1219      21.909  -7.372  -3.280  0.00  0.00    -0.391 OA
ATOM      8  O4S SGN d1219      21.272 -13.213  -5.051  0.00  0.00    -0.572 OA
ATOM      9  S1  SGN d1219      23.633  -5.276  -6.092  0.00  0.00     0.156 S 
ATOM     10  O1S SGN d1219      24.500  -4.102  -6.011  0.00  0.00    -0.296 OA
ATOM     11  O5  SGN d1219      24.390  -9.948  -5.226  0.00  0.00    -0.350 OA
ATOM     12  O2S SGN d1219      22.236  -4.947  -5.813  0.00  0.00    -0.296 OA
ATOM     13  O1  SGN d1219      25.989  -8.352  -4.680  0.00  0.00    -0.369 OA
ATOM     14  N   SGN d1219      24.111  -6.278  -4.935  0.00  0.00    -0.210 NA
ATOM     15  O5S SGN d1219      23.159 -14.614  -4.557  0.00  0.00    -0.572 OA
ATOM     16  S2  SGN d1219      22.643 -13.556  -5.418  0.00  0.00     0.251 S 
ATOM     17  O3S SGN d1219      23.783  -5.969  -7.373  0.00  0.00    -0.296 OA
ATOM     18  C5  SGN d1219      24.117 -10.350  -3.891  0.00  0.00     0.091 C 
ATOM     19  O6S SGN d1219      22.755 -13.878  -6.835  0.00  0.00    -0.572 OA
ATOM     20  C4  SGN d1219      22.972  -9.530  -3.288  0.00  0.00     0.095 C 
ATOM     21  H   SGN d1219      22.844  -7.786  -5.586  0.00  0.00     0.076 H 
ATOM     22  H   SGN d1219      24.565 -12.381  -3.418  0.00  0.00     0.080 H 
ATOM     23  H   SGN d1219      22.868 -11.967  -3.289  0.00  0.00     0.080 H 
ATOM     24  H   SGN d1219      23.886  -7.689  -2.813  0.00  0.00     0.089 H 
ATOM     25  H   SGN d1219      24.963  -8.397  -6.418  0.00  0.00     0.131 H 
ATOM     26  H   SGN d1219      21.254  -7.689  -3.921  0.00  0.00     0.210 HD
ATOM     27  H   SGN d1219      24.376  -3.668  -5.152  0.00  0.00     0.231 HD
ATOM     28  H   SGN d1219      22.176  -4.490  -4.959  0.00  0.00     0.231 HD
ATOM     29  H   SGN d1219      25.853  -8.524  -3.735  0.00  0.00     0.212 HD
ATOM     30  H   SGN d1219      25.130  -6.305  -4.979  0.00  0.00     0.140 HD
ATOM     31  H   SGN d1219      24.721  -6.170  -7.523  0.00  0.00     0.231 HD
ATOM     32  H   SGN d1219      24.994 -10.179  -3.303  0.00  0.00     0.090 H 
ATOM     33  H   SGN d1219      22.072  -9.823  -3.785  0.00  0.00     0.091 H 
ATOM     34  C4  IDU d1218      20.768  -9.248   1.224  0.00  0.00    -0.005 C 
ATOM     35  O61 IDU d1218      21.326  -6.013   1.055  0.00  0.00    -0.646 OA
ATOM     36  O5  IDU d1218      20.911  -8.656  -1.111  0.00  0.00    -0.343 OA
ATOM     37  C1  IDU d1218      21.506  -9.897  -1.525  0.00  0.00     0.161 C 
ATOM     38  O62 IDU d1218      19.438  -6.697   0.101  0.00  0.00    -0.646 OA
ATOM     39  O1S IDU d1218      18.889 -13.384  -2.327  0.00  0.00    -0.572 OA
ATOM     40  O3S IDU d1218      21.293 -13.468  -2.203  0.00  0.00    -0.572 OA
ATOM     41  O2  IDU d1218      20.073 -11.696  -0.826  0.00  0.00    -0.244 OA
ATOM     42  C6  IDU d1218      20.633  -6.888   0.472  0.00  0.00     0.203 C 
ATOM     43  C5  IDU d1218      21.264  -8.224   0.204  0.00  0.00     0.127 C 
ATOM     44  C2  IDU d1218      21.309 -11.050  -0.530  0.00  0.00     0.132 C 
ATOM     45  C3  IDU d1218      21.333 -10.645   0.951  0.00  0.00     0.069 C 
ATOM     46  O3  IDU d1218      22.673 -10.727   1.453  0.00  0.00    -0.393 OA
ATOM     47  S   IDU d1218      20.057 -13.215  -1.431  0.00  0.00     0.252 S 
ATOM     48  O2S IDU d1218      19.974 -14.173  -0.307  0.00  0.00    -0.572 OA
ATOM     49  H   IDU d1218      21.072  -8.938   2.202  0.00  0.00     0.041 H 
ATOM     50  H   IDU d1218      19.702  -9.301   1.150  0.00  0.00     0.041 H 
ATOM     51  H   IDU d1218      20.955 -10.139  -2.411  0.00  0.00     0.133 H 
ATOM     52  H   IDU d1218      22.327  -8.135   0.284  0.00  0.00     0.100 H 
ATOM     53  H   IDU d1218      22.149 -11.702  -0.657  0.00  0.00     0.097 H 
ATOM     54  H   IDU d1218      20.691 -11.334   1.459  0.00  0.00     0.087 H 
ATOM     55  H   IDU d1218      23.234 -10.095   0.978  0.00  0.00     0.210 HD
ENDROOT
TORSDOF 16
ENDMDL
MODEL 7
REMARK VINA RESULT:      -6.4      3.298      5.586
REMARK  0 active torsions:
REMARK  status: ('A' for Active; 'I' for Inactive)
REMARK       I    between atoms: C2_1  and  N_18 
REMARK       I    between atoms: O4_5  and  C1_17 
REMARK       I    between atoms: O4_5  and  C4_30 
REMARK       I    between atoms: O6_6  and  C6_7 
REMARK       I    between atoms: O6_6  and  S2_22 
REMARK       I    between atoms: C6_7  and  C5_28 
REMARK       I    between atoms: C3_8  and  O3_10 
REMARK       I    between atoms: C1_9  and  O1_16 
REMARK       I    between atoms: S1_12  and  N_18 
REMARK       I    between atoms: S1_12  and  O1S_13 
REMARK       I    between atoms: S1_12  and  O2S_15 
REMARK       I    between atoms: S1_12  and  O3S_26 
REMARK       I    between atoms: O2_24  and  C2_31 
REMARK       I    between atoms: O2_24  and  S_34 
REMARK       I    between atoms: C6_25  and  C5_27 
REMARK       I    between atoms: C3_32  and  O3_33 
ROOT
ATOM      1  C2  SGN d1219      17.086 -15.417  -3.153  0.00  0.00     0.081 C 
ATOM      2  O4  SGN d1219      18.551 -11.949  -3.250  0.00  0.00    -0.348 OA
ATOM      3  O6  SGN d1219      21.126 -14.535  -5.287  0.00  0.00    -0.254 OA
ATOM      4  C6  SGN d1219      20.314 -13.387  -5.144  0.00  0.00     0.067 C 
ATOM      5  C3  SGN d1219      17.313 -13.953  -2.756  0.00  0.00     0.083 C 
ATOM      6  C1  SGN d1219      17.444 -15.695  -4.620  0.00  0.00     0.147 C 
ATOM      7  O3  SGN d1219      17.307 -13.838  -1.348  0.00  0.00    -0.391 OA
ATOM      8  O4S SGN d1219      22.959 -14.096  -3.723  0.00  0.00    -0.572 OA
ATOM      9  S1  SGN d1219      15.365 -17.148  -2.089  0.00  0.00     0.156 S 
ATOM     10  O1S SGN d1219      13.938 -17.393  -2.280  0.00  0.00    -0.296 OA
ATOM     11  O5  SGN d1219      18.740 -15.196  -4.908  0.00  0.00    -0.350 OA
ATOM     12  O2S SGN d1219      15.696 -16.899  -0.686  0.00  0.00    -0.296 OA
ATOM     13  O1  SGN d1219      16.494 -15.125  -5.500  0.00  0.00    -0.369 OA
ATOM     14  N   SGN d1219      15.709 -15.802  -2.889  0.00  0.00    -0.210 NA
ATOM     15  O5S SGN d1219      23.115 -13.353  -6.002  0.00  0.00    -0.572 OA
ATOM     16  S2  SGN d1219      22.673 -14.424  -5.117  0.00  0.00     0.251 S 
ATOM     17  O3S SGN d1219      16.178 -18.225  -2.657  0.00  0.00    -0.296 OA
ATOM     18  C5  SGN d1219      18.898 -13.793  -4.750  0.00  0.00     0.091 C 
ATOM     19  O6S SGN d1219      23.223 -15.723  -5.486  0.00  0.00    -0.572 OA
ATOM     20  C4  SGN d1219      18.617 -13.362  -3.307  0.00  0.00     0.095 C 
ATOM     21  H   SGN d1219      17.745 -16.010  -2.554  0.00  0.00     0.076 H 
ATOM     22  H   SGN d1219      20.285 -12.856  -6.072  0.00  0.00     0.080 H 
ATOM     23  H   SGN d1219      20.725 -12.761  -4.379  0.00  0.00     0.080 H 
ATOM     24  H   SGN d1219      16.511 -13.391  -3.190  0.00  0.00     0.089 H 
ATOM     25  H   SGN d1219      17.434 -16.754  -4.768  0.00  0.00     0.131 H 
ATOM     26  H   SGN d1219      18.040 -14.354  -0.978  0.00  0.00     0.210 HD
ATOM     27  H   SGN d1219      13.429 -16.663  -1.894  0.00  0.00     0.231 HD
ATOM     28  H   SGN d1219      15.139 -16.182  -0.344  0.00  0.00     0.231 HD
ATOM     29  H   SGN d1219      16.483 -14.162  -5.385  0.00  0.00     0.212 HD
ATOM     30  H   SGN d1219      15.251 -15.880  -3.797  0.00  0.00     0.140 HD
ATOM     31  H   SGN d1219      15.930 -18.361  -3.585  0.00  0.00     0.231 HD
ATOM     32  H   SGN d1219      18.193 -13.302  -5.387  0.00  0.00     0.090 H 
ATOM     33  H   SGN d1219      19.415 -13.733  -2.700  0.00  0.00     0.091 H 
ATOM     34  C4  IDU d1218      18.385  -8.968  -0.871  0.00  0.00    -0.005 C 
ATOM     35  O61 IDU d1218      15.424  -9.948   0.171  0.00  0.00    -0.646 OA
ATOM     36  O5  IDU d1218      18.364 -11.380  -0.907  0.00  0.00    -0.343 OA
ATOM     37  C1  IDU d1218      19.221 -11.503  -2.054  0.00  0.00     0.161 C 
ATOM     38  O62 IDU d1218      17.136 -10.625   1.417  0.00  0.00    -0.646 OA
ATOM     39  O1S IDU d1218      23.614 -11.316  -1.494  0.00  0.00    -0.572 OA
ATOM     40  O3S IDU d1218      22.497 -11.276  -3.627  0.00  0.00    -0.572 OA
ATOM     41  O2  IDU d1218      21.266 -10.325  -1.600  0.00  0.00    -0.244 OA
ATOM     42  C6  IDU d1218      16.635 -10.269   0.311  0.00  0.00     0.203 C 
ATOM     43  C5  IDU d1218      17.520 -10.227  -0.901  0.00  0.00     0.127 C 
ATOM     44  C2  IDU d1218      20.056 -10.248  -2.349  0.00  0.00     0.132 C 
ATOM     45  C3  IDU d1218      19.355  -8.914  -2.054  0.00  0.00     0.069 C 
ATOM     46  O3  IDU d1218      18.660  -8.464  -3.223  0.00  0.00    -0.393 OA
ATOM     47  S   IDU d1218      22.698 -10.538  -2.361  0.00  0.00     0.252 S 
ATOM     48  O2S IDU d1218      23.283  -9.211  -2.652  0.00  0.00    -0.572 OA
ATOM     49  H   IDU d1218      17.747  -8.109  -0.907  0.00  0.00     0.041 H 
ATOM     50  H   IDU d1218      18.961  -8.982   0.031  0.00  0.00     0.041 H 
ATOM     51  H   IDU d1218      19.898 -12.278  -1.761  0.00  0.00     0.133 H 
ATOM     52  H   IDU d1218      16.913 -10.217  -1.782  0.00  0.00     0.100 H 
ATOM     53  H   IDU d1218      20.230 -10.246  -3.405  0.00  0.00     0.097 H 
ATOM     54  H   IDU d1218      20.127  -8.226  -1.779  0.00  0.00     0.087 H 
ATOM     55  H   IDU d1218      17.967  -9.102  -3.453  0.00  0.00     0.210 HD
ENDROOT
TORSDOF 16
ENDMDL
MODEL 8
REMARK VINA RESULT:      -6.3      3.964      5.764
REMARK  0 active torsions:
REMARK  status: ('A' for Active; 'I' for Inactive)
REMARK       I    between atoms: C2_1  and  N_18 
REMARK       I    between atoms: O4_5  and  C1_17 
REMARK       I    between atoms: O4_5  and  C4_30 
REMARK       I    between atoms: O6_6  and  C6_7 
REMARK       I    between atoms: O6_6  and  S2_22 
REMARK       I    between atoms: C6_7  and  C5_28 
REMARK       I    between atoms: C3_8  and  O3_10 
REMARK       I    between atoms: C1_9  and  O1_16 
REMARK       I    between atoms: S1_12  and  N_18 
REMARK       I    between atoms: S1_12  and  O1S_13 
REMARK       I    between atoms: S1_12  and  O2S_15 
REMARK       I    between atoms: S1_12  and  O3S_26 
REMARK       I    between atoms: O2_24  and  C2_31 
REMARK       I    between atoms: O2_24  and  S_34 
REMARK       I    between atoms: C6_25  and  C5_27 
REMARK       I    between atoms: C3_32  and  O3_33 
ROOT
ATOM      1  C2  SGN d1219      21.561 -10.333  -4.511  0.00  0.00     0.081 C 
ATOM      2  O4  SGN d1219      23.731  -7.965  -2.544  0.00  0.00    -0.348 OA
ATOM      3  O6  SGN d1219      23.665  -6.705  -6.528  0.00  0.00    -0.254 OA
ATOM      4  C6  SGN d1219      23.507  -6.547  -5.133  0.00  0.00     0.067 C 
ATOM      5  C3  SGN d1219      22.434  -9.822  -3.356  0.00  0.00     0.083 C 
ATOM      6  C1  SGN d1219      20.900  -9.195  -5.302  0.00  0.00     0.147 C 
ATOM      7  O3  SGN d1219      23.274 -10.863  -2.901  0.00  0.00    -0.391 OA
ATOM      8  O4S SGN d1219      26.084  -7.011  -6.765  0.00  0.00    -0.572 OA
ATOM      9  S1  SGN d1219      20.316 -12.680  -4.698  0.00  0.00     0.156 S 
ATOM     10  O1S SGN d1219      19.053 -13.192  -4.174  0.00  0.00    -0.296 OA
ATOM     11  O5  SGN d1219      21.872  -8.232  -5.674  0.00  0.00    -0.350 OA
ATOM     12  O2S SGN d1219      21.450 -13.522  -4.319  0.00  0.00    -0.296 OA
ATOM     13  O1  SGN d1219      19.865  -8.583  -4.557  0.00  0.00    -0.369 OA
ATOM     14  N   SGN d1219      20.552 -11.251  -4.009  0.00  0.00    -0.210 NA
ATOM     15  O5S SGN d1219      25.135  -4.806  -6.836  0.00  0.00    -0.572 OA
ATOM     16  S2  SGN d1219      24.963  -6.199  -7.231  0.00  0.00     0.251 S 
ATOM     17  O3S SGN d1219      20.254 -12.471  -6.146  0.00  0.00    -0.296 OA
ATOM     18  C5  SGN d1219      22.536  -7.591  -4.594  0.00  0.00     0.091 C 
ATOM     19  O6S SGN d1219      24.745  -6.356  -8.663  0.00  0.00    -0.572 OA
ATOM     20  C4  SGN d1219      23.290  -8.604  -3.727  0.00  0.00     0.095 C 
ATOM     21  H   SGN d1219      22.210 -10.848  -5.188  0.00  0.00     0.076 H 
ATOM     22  H   SGN d1219      23.125  -5.569  -4.929  0.00  0.00     0.080 H 
ATOM     23  H   SGN d1219      24.457  -6.674  -4.656  0.00  0.00     0.080 H 
ATOM     24  H   SGN d1219      21.763  -9.505  -2.585  0.00  0.00     0.089 H 
ATOM     25  H   SGN d1219      20.465  -9.616  -6.184  0.00  0.00     0.131 H 
ATOM     26  H   SGN d1219      23.871 -11.132  -3.616  0.00  0.00     0.210 HD
ATOM     27  H   SGN d1219      19.128 -13.318  -3.215  0.00  0.00     0.231 HD
ATOM     28  H   SGN d1219      21.459 -13.638  -3.355  0.00  0.00     0.231 HD
ATOM     29  H   SGN d1219      20.234  -8.193  -3.749  0.00  0.00     0.212 HD
ATOM     30  H   SGN d1219      19.661 -10.757  -4.057  0.00  0.00     0.140 HD
ATOM     31  H   SGN d1219      19.492 -11.910  -6.359  0.00  0.00     0.231 HD
ATOM     32  H   SGN d1219      21.798  -7.116  -3.982  0.00  0.00     0.090 H 
ATOM     33  H   SGN d1219      24.119  -8.962  -4.300  0.00  0.00     0.091 H 
ATOM     34  C4  IDU d1218      25.934  -8.384   0.546  0.00  0.00    -0.005 C 
ATOM     35  O61 IDU d1218      23.986 -10.803   1.623  0.00  0.00    -0.646 OA
ATOM     36  O5  IDU d1218      25.117  -9.575  -1.387  0.00  0.00    -0.343 OA
ATOM     37  C1  IDU d1218      25.065  -8.420  -2.241  0.00  0.00     0.161 C 
ATOM     38  O62 IDU d1218      25.770 -11.467   0.475  0.00  0.00    -0.646 OA
ATOM     39  O1S IDU d1218      28.754  -7.104  -4.318  0.00  0.00    -0.572 OA
ATOM     40  O3S IDU d1218      26.703  -5.845  -4.229  0.00  0.00    -0.572 OA
ATOM     41  O2  IDU d1218      27.246  -7.410  -2.283  0.00  0.00    -0.244 OA
ATOM     42  C6  IDU d1218      24.873 -10.617   0.749  0.00  0.00     0.203 C 
ATOM     43  C5  IDU d1218      24.859  -9.319  -0.006  0.00  0.00     0.127 C 
ATOM     44  C2  IDU d1218      25.930  -7.245  -1.761  0.00  0.00     0.132 C 
ATOM     45  C3  IDU d1218      26.004  -7.070  -0.236  0.00  0.00     0.069 C 
ATOM     46  O3  IDU d1218      24.956  -6.196   0.200  0.00  0.00    -0.393 OA
ATOM     47  S   IDU d1218      27.819  -6.385  -3.422  0.00  0.00     0.252 S 
ATOM     48  O2S IDU d1218      28.522  -5.272  -2.746  0.00  0.00    -0.572 OA
ATOM     49  H   IDU d1218      25.711  -8.165   1.569  0.00  0.00     0.041 H 
ATOM     50  H   IDU d1218      26.880  -8.875   0.454  0.00  0.00     0.041 H 
ATOM     51  H   IDU d1218      25.492  -8.782  -3.153  0.00  0.00     0.133 H 
ATOM     52  H   IDU d1218      23.900  -8.856   0.105  0.00  0.00     0.100 H 
ATOM     53  H   IDU d1218      25.457  -6.356  -2.123  0.00  0.00     0.097 H 
ATOM     54  H   IDU d1218      26.965  -6.647  -0.031  0.00  0.00     0.087 H 
ATOM     55  H   IDU d1218      24.096  -6.599   0.003  0.00  0.00     0.210 HD
ENDROOT
TORSDOF 16
ENDMDL
MODEL 9
REMARK VINA RESULT:      -6.3      3.483      6.227
REMARK  0 active torsions:
REMARK  status: ('A' for Active; 'I' for Inactive)
REMARK       I    between atoms: C2_1  and  N_18 
REMARK       I    between atoms: O4_5  and  C1_17 
REMARK       I    between atoms: O4_5  and  C4_30 
REMARK       I    between atoms: O6_6  and  C6_7 
REMARK       I    between atoms: O6_6  and  S2_22 
REMARK       I    between atoms: C6_7  and  C5_28 
REMARK       I    between atoms: C3_8  and  O3_10 
REMARK       I    between atoms: C1_9  and  O1_16 
REMARK       I    between atoms: S1_12  and  N_18 
REMARK       I    between atoms: S1_12  and  O1S_13 
REMARK       I    between atoms: S1_12  and  O2S_15 
REMARK       I    between atoms: S1_12  and  O3S_26 
REMARK       I    between atoms: O2_24  and  C2_31 
REMARK       I    between atoms: O2_24  and  S_34 
REMARK       I    between atoms: C6_25  and  C5_27 
REMARK       I    between atoms: C3_32  and  O3_33 
ROOT
ATOM      1  C2  SGN d1219      22.126 -12.835  -4.908  0.00  0.00     0.081 C 
ATOM      2  O4  SGN d1219      23.186  -9.319  -5.743  0.00  0.00    -0.348 OA
ATOM      3  O6  SGN d1219      26.534 -11.809  -5.988  0.00  0.00    -0.254 OA
ATOM      4  C6  SGN d1219      25.610 -10.855  -6.471  0.00  0.00     0.067 C 
ATOM      5  C3  SGN d1219      22.061 -11.304  -4.976  0.00  0.00     0.083 C 
ATOM      6  C1  SGN d1219      22.974 -13.443  -6.034  0.00  0.00     0.147 C 
ATOM      7  O3  SGN d1219      21.579 -10.795  -3.749  0.00  0.00    -0.391 OA
ATOM      8  O4S SGN d1219      27.695 -10.583  -4.213  0.00  0.00    -0.572 OA
ATOM      9  S1  SGN d1219      20.332 -14.498  -3.854  0.00  0.00     0.156 S 
ATOM     10  O1S SGN d1219      19.080 -15.069  -4.345  0.00  0.00    -0.296 OA
ATOM     11  O5  SGN d1219      24.236 -12.798  -6.096  0.00  0.00    -0.350 OA
ATOM     12  O2S SGN d1219      20.155 -13.798  -2.582  0.00  0.00    -0.296 OA
ATOM     13  O1  SGN d1219      22.316 -13.351  -7.283  0.00  0.00    -0.369 OA
ATOM     14  N   SGN d1219      20.785 -13.397  -4.928  0.00  0.00    -0.210 NA
ATOM     15  O5S SGN d1219      28.519 -10.507  -6.468  0.00  0.00    -0.572 OA
ATOM     16  S2  SGN d1219      27.919 -11.346  -5.438  0.00  0.00     0.251 S 
ATOM     17  O3S SGN d1219      21.390 -15.507  -3.777  0.00  0.00    -0.296 OA
ATOM     18  C5  SGN d1219      24.192 -11.406  -6.378  0.00  0.00     0.091 C 
ATOM     19  O6S SGN d1219      28.687 -12.559  -5.181  0.00  0.00    -0.572 OA
ATOM     20  C4  SGN d1219      23.408 -10.646  -5.304  0.00  0.00     0.095 C 
ATOM     21  H   SGN d1219      22.606 -13.087  -3.985  0.00  0.00     0.076 H 
ATOM     22  H   SGN d1219      25.836 -10.628  -7.492  0.00  0.00     0.080 H 
ATOM     23  H   SGN d1219      25.680  -9.967  -5.877  0.00  0.00     0.080 H 
ATOM     24  H   SGN d1219      21.396 -11.062  -5.779  0.00  0.00     0.089 H 
ATOM     25  H   SGN d1219      23.119 -14.480  -5.816  0.00  0.00     0.131 H 
ATOM     26  H   SGN d1219      22.197 -11.026  -3.038  0.00  0.00     0.210 HD
ATOM     27  H   SGN d1219      18.403 -14.375  -4.384  0.00  0.00     0.231 HD
ATOM     28  H   SGN d1219      19.448 -13.139  -2.671  0.00  0.00     0.231 HD
ATOM     29  H   SGN d1219      22.171 -12.417  -7.504  0.00  0.00     0.212 HD
ATOM     30  H   SGN d1219      20.662 -13.821  -5.847  0.00  0.00     0.140 HD
ATOM     31  H   SGN d1219      21.478 -15.949  -4.636  0.00  0.00     0.231 HD
ATOM     32  H   SGN d1219      23.690 -11.270  -7.314  0.00  0.00     0.090 H 
ATOM     33  H   SGN d1219      23.994 -10.661  -4.409  0.00  0.00     0.091 H 
ATOM     34  C4  IDU d1218      21.946  -5.879  -4.646  0.00  0.00    -0.005 C 
ATOM     35  O61 IDU d1218      18.922  -7.093  -4.212  0.00  0.00    -0.646 OA
ATOM     36  O5  IDU d1218      22.180  -8.155  -3.877  0.00  0.00    -0.343 OA
ATOM     37  C1  IDU d1218      23.375  -8.425  -4.627  0.00  0.00     0.161 C 
ATOM     38  O62 IDU d1218      20.185  -7.029  -2.384  0.00  0.00    -0.646 OA
ATOM     39  O1S IDU d1218      27.295  -7.210  -2.954  0.00  0.00    -0.572 OA
ATOM     40  O3S IDU d1218      26.947  -8.005  -5.199  0.00  0.00    -0.572 OA
ATOM     41  O2  IDU d1218      25.027  -6.781  -4.039  0.00  0.00    -0.244 OA
ATOM     42  C6  IDU d1218      20.044  -7.112  -3.638  0.00  0.00     0.203 C 
ATOM     43  C5  IDU d1218      21.270  -7.241  -4.494  0.00  0.00     0.127 C 
ATOM     44  C2  IDU d1218      24.131  -7.167  -5.079  0.00  0.00     0.132 C 
ATOM     45  C3  IDU d1218      23.242  -5.972  -5.456  0.00  0.00     0.069 C 
ATOM     46  O3  IDU d1218      22.931  -6.024  -6.853  0.00  0.00    -0.393 OA
ATOM     47  S   IDU d1218      26.644  -6.912  -4.250  0.00  0.00     0.252 S 
ATOM     48  O2S IDU d1218      27.156  -5.634  -4.792  0.00  0.00    -0.572 OA
ATOM     49  H   IDU d1218      21.274  -5.213  -5.145  0.00  0.00     0.041 H 
ATOM     50  H   IDU d1218      22.191  -5.519  -3.668  0.00  0.00     0.041 H 
ATOM     51  H   IDU d1218      23.991  -8.932  -3.915  0.00  0.00     0.133 H 
ATOM     52  H   IDU d1218      20.991  -7.605  -5.461  0.00  0.00     0.100 H 
ATOM     53  H   IDU d1218      24.643  -7.432  -5.980  0.00  0.00     0.097 H 
ATOM     54  H   IDU d1218      23.807  -5.095  -5.221  0.00  0.00     0.087 H 
ATOM     55  H   IDU d1218      22.420  -6.827  -7.041  0.00  0.00     0.210 HD
ENDROOT
TORSDOF 16
ENDMDL
MODEL 10
REMARK VINA RESULT:      -6.3      2.335      2.999
REMARK  0 active torsions:
REMARK  status: ('A' for Active; 'I' for Inactive)
REMARK       I    between atoms: C2_1  and  N_18 
REMARK       I    between atoms: O4_5  and  C1_17 
REMARK       I    between atoms: O4_5  and  C4_30 
REMARK       I    between atoms: O6_6  and  C6_7 
REMARK       I    between atoms: O6_6  and  S2_22 
REMARK       I    between atoms: C6_7  and  C5_28 
REMARK       I    between atoms: C3_8  and  O3_10 
REMARK       I    between atoms: C1_9  and  O1_16 
REMARK       I    between atoms: S1_12  and  N_18 
REMARK       I    between atoms: S1_12  and  O1S_13 
REMARK       I    between atoms: S1_12  and  O2S_15 
REMARK       I    between atoms: S1_12  and  O3S_26 
REMARK       I    between atoms: O2_24  and  C2_31 
REMARK       I    between atoms: O2_24  and  S_34 
REMARK       I    between atoms: C6_25  and  C5_27 
REMARK       I    between atoms: C3_32  and  O3_33 
ROOT
ATOM      1  C2  SGN d1219      23.737 -11.771  -5.333  0.00  0.00     0.081 C 
ATOM      2  O4  SGN d1219      20.288 -12.086  -3.854  0.00  0.00    -0.348 OA
ATOM      3  O6  SGN d1219      20.974  -8.068  -4.774  0.00  0.00    -0.254 OA
ATOM      4  C6  SGN d1219      20.262  -9.287  -4.818  0.00  0.00     0.067 C 
ATOM      5  C3  SGN d1219      22.570 -12.392  -4.553  0.00  0.00     0.083 C 
ATOM      6  C1  SGN d1219      23.269 -10.787  -6.415  0.00  0.00     0.147 C 
ATOM      7  O3  SGN d1219      23.058 -12.996  -3.373  0.00  0.00    -0.391 OA
ATOM      8  O4S SGN d1219      20.741  -7.393  -2.431  0.00  0.00    -0.572 OA
ATOM      9  S1  SGN d1219      26.153 -12.809  -5.753  0.00  0.00     0.156 S 
ATOM     10  O1S SGN d1219      26.678 -13.778  -6.712  0.00  0.00    -0.296 OA
ATOM     11  O5  SGN d1219      22.360  -9.849  -5.860  0.00  0.00    -0.350 OA
ATOM     12  O2S SGN d1219      26.430 -13.199  -4.371  0.00  0.00    -0.296 OA
ATOM     13  O1  SGN d1219      22.670 -11.463  -7.503  0.00  0.00    -0.369 OA
ATOM     14  N   SGN d1219      24.558 -12.815  -5.923  0.00  0.00    -0.210 NA
ATOM     15  O5S SGN d1219      19.106  -6.707  -4.052  0.00  0.00    -0.572 OA
ATOM     16  S2  SGN d1219      20.525  -6.934  -3.800  0.00  0.00     0.251 S 
ATOM     17  O3S SGN d1219      26.627 -11.455  -6.042  0.00  0.00    -0.296 OA
ATOM     18  C5  SGN d1219      21.167 -10.404  -5.326  0.00  0.00     0.091 C 
ATOM     19  O6S SGN d1219      21.346  -5.772  -4.114  0.00  0.00    -0.572 OA
ATOM     20  C4  SGN d1219      21.470 -11.386  -4.190  0.00  0.00     0.095 C 
ATOM     21  H   SGN d1219      24.319 -11.210  -4.632  0.00  0.00     0.076 H 
ATOM     22  H   SGN d1219      19.424  -9.184  -5.474  0.00  0.00     0.080 H 
ATOM     23  H   SGN d1219      19.925  -9.532  -3.832  0.00  0.00     0.080 H 
ATOM     24  H   SGN d1219      22.123 -13.118  -5.200  0.00  0.00     0.089 H 
ATOM     25  H   SGN d1219      24.129 -10.268  -6.784  0.00  0.00     0.131 H 
ATOM     26  H   SGN d1219      23.457 -12.320  -2.805  0.00  0.00     0.210 HD
ATOM     27  H   SGN d1219      26.345 -14.663  -6.493  0.00  0.00     0.231 HD
ATOM     28  H   SGN d1219      26.103 -14.100  -4.217  0.00  0.00     0.231 HD
ATOM     29  H   SGN d1219      21.886 -11.943  -7.194  0.00  0.00     0.212 HD
ATOM     30  H   SGN d1219      24.375 -12.796  -6.927  0.00  0.00     0.140 HD
ATOM     31  H   SGN d1219      26.426 -11.232  -6.964  0.00  0.00     0.231 HD
ATOM     32  H   SGN d1219      20.670 -10.943  -6.106  0.00  0.00     0.090 H 
ATOM     33  H   SGN d1219      21.826 -10.813  -3.359  0.00  0.00     0.091 H 
ATOM     34  C4  IDU d1218      18.738 -14.469  -1.305  0.00  0.00    -0.005 C 
ATOM     35  O61 IDU d1218      20.834 -16.831  -2.219  0.00  0.00    -0.646 OA
ATOM     36  O5  IDU d1218      20.821 -13.404  -1.897  0.00  0.00    -0.343 OA
ATOM     37  C1  IDU d1218      20.214 -12.210  -2.419  0.00  0.00     0.161 C 
ATOM     38  O62 IDU d1218      21.470 -15.635  -0.456  0.00  0.00    -0.646 OA
ATOM     39  O1S IDU d1218      19.078  -8.965   0.378  0.00  0.00    -0.572 OA
ATOM     40  O3S IDU d1218      18.464  -9.052  -1.949  0.00  0.00    -0.572 OA
ATOM     41  O2  IDU d1218      18.820 -11.258  -0.708  0.00  0.00    -0.244 OA
ATOM     42  C6  IDU d1218      20.839 -15.767  -1.545  0.00  0.00     0.203 C 
ATOM     43  C5  IDU d1218      20.056 -14.598  -2.069  0.00  0.00     0.127 C 
ATOM     44  C2  IDU d1218      18.775 -11.976  -1.939  0.00  0.00     0.132 C 
ATOM     45  C3  IDU d1218      17.933 -13.248  -1.757  0.00  0.00     0.069 C 
ATOM     46  O3  IDU d1218      17.248 -13.552  -2.978  0.00  0.00    -0.393 OA
ATOM     47  S   IDU d1218      18.295  -9.710  -0.635  0.00  0.00     0.252 S 
ATOM     48  O2S IDU d1218      16.863  -9.713  -0.265  0.00  0.00    -0.572 OA
ATOM     49  H   IDU d1218      18.154 -15.350  -1.471  0.00  0.00     0.041 H 
ATOM     50  H   IDU d1218      18.967 -14.349  -0.266  0.00  0.00     0.041 H 
ATOM     51  H   IDU d1218      20.823 -11.434  -2.002  0.00  0.00     0.133 H 
ATOM     52  H   IDU d1218      19.846 -14.749  -3.107  0.00  0.00     0.100 H 
ATOM     53  H   IDU d1218      18.286 -11.424  -2.715  0.00  0.00     0.097 H 
ATOM     54  H   IDU d1218      17.239 -13.037  -0.971  0.00  0.00     0.087 H 
ATOM     55  H   IDU d1218      17.896 -13.740  -3.674  0.00  0.00     0.210 HD
ENDROOT
TORSDOF 16
ENDMDL
MODEL 11
REMARK VINA RESULT:      -6.3      2.683      6.422
REMARK  0 active torsions:
REMARK  status: ('A' for Active; 'I' for Inactive)
REMARK       I    between atoms: C2_1  and  N_18 
REMARK       I    between atoms: O4_5  and  C1_17 
REMARK       I    between atoms: O4_5  and  C4_30 
REMARK       I    between atoms: O6_6  and  C6_7 
REMARK       I    between atoms: O6_6  and  S2_22 
REMARK       I    between atoms: C6_7  and  C5_28 
REMARK       I    between atoms: C3_8  and  O3_10 
REMARK       I    between atoms: C1_9  and  O1_16 
REMARK       I    between atoms: S1_12  and  N_18 
REMARK       I    between atoms: S1_12  and  O1S_13 
REMARK       I    between atoms: S1_12  and  O2S_15 
REMARK       I    between atoms: S1_12  and  O3S_26 
REMARK       I    between atoms: O2_24  and  C2_31 
REMARK       I    between atoms: O2_24  and  S_34 
REMARK       I    between atoms: C6_25  and  C5_27 
REMARK       I    between atoms: C3_32  and  O3_33 
ROOT
ATOM      1  C2  SGN d1219      21.524 -14.843  -5.407  0.00  0.00     0.081 C 
ATOM      2  O4  SGN d1219      22.908 -11.422  -4.652  0.00  0.00    -0.348 OA
ATOM      3  O6  SGN d1219      19.545 -12.052  -2.253  0.00  0.00    -0.254 OA
ATOM      4  C6  SGN d1219      20.899 -11.734  -2.501  0.00  0.00     0.067 C 
ATOM      5  C3  SGN d1219      22.331 -13.554  -5.610  0.00  0.00     0.083 C 
ATOM      6  C1  SGN d1219      21.262 -15.150  -3.926  0.00  0.00     0.147 C 
ATOM      7  O3  SGN d1219      22.237 -13.144  -6.959  0.00  0.00    -0.391 OA
ATOM      8  O4S SGN d1219      18.355 -10.162  -3.259  0.00  0.00    -0.572 OA
ATOM      9  S1  SGN d1219      21.406 -16.963  -7.014  0.00  0.00     0.156 S 
ATOM     10  O1S SGN d1219      22.270 -18.124  -7.212  0.00  0.00    -0.296 OA
ATOM     11  O5  SGN d1219      20.727 -14.008  -3.278  0.00  0.00    -0.350 OA
ATOM     12  O2S SGN d1219      21.167 -16.237  -8.262  0.00  0.00    -0.296 OA
ATOM     13  O1  SGN d1219      22.441 -15.577  -3.271  0.00  0.00    -0.369 OA
ATOM     14  N   SGN d1219      22.198 -15.963  -6.043  0.00  0.00    -0.210 NA
ATOM     15  O5S SGN d1219      19.047 -10.065  -0.960  0.00  0.00    -0.572 OA
ATOM     16  S2  SGN d1219      18.504 -10.914  -2.015  0.00  0.00     0.251 S 
ATOM     17  O3S SGN d1219      20.154 -17.330  -6.351  0.00  0.00    -0.296 OA
ATOM     18  C5  SGN d1219      21.570 -12.864  -3.273  0.00  0.00     0.091 C 
ATOM     19  O6S SGN d1219      17.259 -11.566  -1.629  0.00  0.00    -0.572 OA
ATOM     20  C4  SGN d1219      21.887 -12.402  -4.698  0.00  0.00     0.095 C 
ATOM     21  H   SGN d1219      20.570 -14.690  -5.867  0.00  0.00     0.076 H 
ATOM     22  H   SGN d1219      21.405 -11.592  -1.569  0.00  0.00     0.080 H 
ATOM     23  H   SGN d1219      20.947 -10.836  -3.081  0.00  0.00     0.080 H 
ATOM     24  H   SGN d1219      23.343 -13.783  -5.348  0.00  0.00     0.089 H 
ATOM     25  H   SGN d1219      20.552 -15.949  -3.875  0.00  0.00     0.131 H 
ATOM     26  H   SGN d1219      21.313 -12.942  -7.172  0.00  0.00     0.210 HD
ATOM     27  H   SGN d1219      23.089 -17.846  -7.652  0.00  0.00     0.231 HD
ATOM     28  H   SGN d1219      22.017 -16.011  -8.672  0.00  0.00     0.231 HD
ATOM     29  H   SGN d1219      23.104 -14.869  -3.304  0.00  0.00     0.212 HD
ATOM     30  H   SGN d1219      22.583 -16.535  -5.291  0.00  0.00     0.140 HD
ATOM     31  H   SGN d1219      20.351 -17.809  -5.530  0.00  0.00     0.231 HD
ATOM     32  H   SGN d1219      22.491 -13.129  -2.797  0.00  0.00     0.090 H 
ATOM     33  H   SGN d1219      20.988 -11.999  -5.112  0.00  0.00     0.091 H 
ATOM     34  C4  IDU d1218      24.797  -8.843  -6.738  0.00  0.00    -0.005 C 
ATOM     35  O61 IDU d1218      26.081 -11.248  -8.574  0.00  0.00    -0.646 OA
ATOM     36  O5  IDU d1218      23.141 -10.588  -6.911  0.00  0.00    -0.343 OA
ATOM     37  C1  IDU d1218      22.593 -10.381  -5.598  0.00  0.00     0.161 C 
ATOM     38  O62 IDU d1218      24.242 -10.311  -9.398  0.00  0.00    -0.646 OA
ATOM     39  O1S IDU d1218      19.542  -7.220  -5.008  0.00  0.00    -0.572 OA
ATOM     40  O3S IDU d1218      20.629  -8.430  -3.233  0.00  0.00    -0.572 OA
ATOM     41  O2  IDU d1218      21.906  -8.084  -5.418  0.00  0.00    -0.244 OA
ATOM     42  C6  IDU d1218      24.984 -10.647  -8.429  0.00  0.00     0.203 C 
ATOM     43  C5  IDU d1218      24.538 -10.319  -7.034  0.00  0.00     0.127 C 
ATOM     44  C2  IDU d1218      22.911  -9.004  -4.997  0.00  0.00     0.132 C 
ATOM     45  C3  IDU d1218      24.297  -8.443  -5.347  0.00  0.00     0.069 C 
ATOM     46  O3  IDU d1218      25.249  -8.855  -4.359  0.00  0.00    -0.393 OA
ATOM     47  S   IDU d1218      20.840  -7.473  -4.340  0.00  0.00     0.252 S 
ATOM     48  O2S IDU d1218      21.385  -6.207  -3.800  0.00  0.00    -0.572 OA
ATOM     49  H   IDU d1218      25.850  -8.658  -6.792  0.00  0.00     0.041 H 
ATOM     50  H   IDU d1218      24.266  -8.261  -7.462  0.00  0.00     0.041 H 
ATOM     51  H   IDU d1218      21.538 -10.420  -5.774  0.00  0.00     0.133 H 
ATOM     52  H   IDU d1218      25.087 -10.919  -6.338  0.00  0.00     0.100 H 
ATOM     53  H   IDU d1218      22.921  -9.136  -3.934  0.00  0.00     0.097 H 
ATOM     54  H   IDU d1218      24.193  -7.378  -5.359  0.00  0.00     0.087 H 
ATOM     55  H   IDU d1218      25.325  -9.822  -4.367  0.00  0.00     0.210 HD
ENDROOT
TORSDOF 16
ENDMDL
MODEL 12
REMARK VINA RESULT:      -6.3      4.535      8.332
REMARK  0 active torsions:
REMARK  status: ('A' for Active; 'I' for Inactive)
REMARK       I    between atoms: C2_1  and  N_18 
REMARK       I    between atoms: O4_5  and  C1_17 
REMARK       I    between atoms: O4_5  and  C4_30 
REMARK       I    between atoms: O6_6  and  C6_7 
REMARK       I    between atoms: O6_6  and  S2_22 
REMARK       I    between atoms: C6_7  and  C5_28 
REMARK       I    between atoms: C3_8  and  O3_10 
REMARK       I    between atoms: C1_9  and  O1_16 
REMARK       I    between atoms: S1_12  and  N_18 
REMARK       I    between atoms: S1_12  and  O1S_13 
REMARK       I    between atoms: S1_12  and  O2S_15 
REMARK       I    between atoms: S1_12  and  O3S_26 
REMARK       I    between atoms: O2_24  and  C2_31 
REMARK       I    between atoms: O2_24  and  S_34 
REMARK       I    between atoms: C6_25  and  C5_27 
REMARK       I    between atoms: C3_32  and  O3_33 
ROOT
ATOM      1  C2  SGN d1219      21.207  -7.728  -2.060  0.00  0.00     0.081 C 
ATOM      2  O4  SGN d1219      24.596  -7.164  -3.602  0.00  0.00    -0.348 OA
ATOM      3  O6  SGN d1219      22.481  -9.861  -5.994  0.00  0.00    -0.254 OA
ATOM      4  C6  SGN d1219      23.221  -8.685  -5.738  0.00  0.00     0.067 C 
ATOM      5  C3  SGN d1219      22.682  -7.315  -2.151  0.00  0.00     0.083 C 
ATOM      6  C1  SGN d1219      20.493  -7.680  -3.418  0.00  0.00     0.147 C 
ATOM      7  O3  SGN d1219      23.357  -7.710  -0.975  0.00  0.00    -0.391 OA
ATOM      8  O4S SGN d1219      24.138 -11.628  -5.632  0.00  0.00    -0.572 OA
ATOM      9  S1  SGN d1219      19.589  -7.541   0.047  0.00  0.00     0.156 S 
ATOM     10  O1S SGN d1219      18.804  -6.449   0.618  0.00  0.00    -0.296 OA
ATOM     11  O5  SGN d1219      21.247  -8.386  -4.390  0.00  0.00    -0.350 OA
ATOM     12  O2S SGN d1219      20.493  -8.139   1.029  0.00  0.00    -0.296 OA
ATOM     13  O1  SGN d1219      20.276  -6.348  -3.840  0.00  0.00    -0.369 OA
ATOM     14  N   SGN d1219      20.510  -6.894  -1.094  0.00  0.00    -0.210 NA
ATOM     15  O5S SGN d1219      23.876 -10.650  -7.810  0.00  0.00    -0.572 OA
ATOM     16  S2  SGN d1219      23.186 -11.109  -6.610  0.00  0.00     0.251 S 
ATOM     17  O3S SGN d1219      18.733  -8.545  -0.587  0.00  0.00    -0.296 OA
ATOM     18  C5  SGN d1219      22.547  -7.871  -4.639  0.00  0.00     0.091 C 
ATOM     19  O6S SGN d1219      22.134 -12.076  -6.901  0.00  0.00    -0.572 OA
ATOM     20  C4  SGN d1219      23.407  -7.897  -3.372  0.00  0.00     0.095 C 
ATOM     21  H   SGN d1219      21.187  -8.747  -1.733  0.00  0.00     0.076 H 
ATOM     22  H   SGN d1219      23.274  -8.098  -6.631  0.00  0.00     0.080 H 
ATOM     23  H   SGN d1219      24.207  -8.953  -5.420  0.00  0.00     0.080 H 
ATOM     24  H   SGN d1219      22.694  -6.251  -2.262  0.00  0.00     0.089 H 
ATOM     25  H   SGN d1219      19.537  -8.148  -3.306  0.00  0.00     0.131 H 
ATOM     26  H   SGN d1219      23.333  -8.676  -0.896  0.00  0.00     0.210 HD
ATOM     27  H   SGN d1219      19.400  -5.802   1.028  0.00  0.00     0.231 HD
ATOM     28  H   SGN d1219      21.043  -7.445   1.427  0.00  0.00     0.231 HD
ATOM     29  H   SGN d1219      21.129  -5.900  -3.949  0.00  0.00     0.212 HD
ATOM     30  H   SGN d1219      19.909  -6.269  -1.632  0.00  0.00     0.140 HD
ATOM     31  H   SGN d1219      18.149  -8.113  -1.229  0.00  0.00     0.231 HD
ATOM     32  H   SGN d1219      22.449  -6.853  -4.953  0.00  0.00     0.090 H 
ATOM     33  H   SGN d1219      23.624  -8.921  -3.153  0.00  0.00     0.091 H 
ATOM     34  C4  IDU d1218      28.026  -6.324  -2.153  0.00  0.00    -0.005 C 
ATOM     35  O61 IDU d1218      26.596  -4.758   0.359  0.00  0.00    -0.646 OA
ATOM     36  O5  IDU d1218      25.976  -7.489  -1.643  0.00  0.00    -0.343 OA
ATOM     37  C1  IDU d1218      25.699  -7.870  -3.001  0.00  0.00     0.161 C 
ATOM     38  O62 IDU d1218      27.141  -6.877   0.753  0.00  0.00    -0.646 OA
ATOM     39  O1S IDU d1218      27.625 -11.502  -4.658  0.00  0.00    -0.572 OA
ATOM     40  O3S IDU d1218      26.387  -9.891  -5.950  0.00  0.00    -0.572 OA
ATOM     41  O2  IDU d1218      27.593  -9.084  -3.848  0.00  0.00    -0.244 OA
ATOM     42  C6  IDU d1218      26.808  -5.938  -0.027  0.00  0.00     0.203 C 
ATOM     43  C5  IDU d1218      26.652  -6.240  -1.490  0.00  0.00     0.127 C 
ATOM     44  C2  IDU d1218      26.924  -7.827  -3.926  0.00  0.00     0.132 C 
ATOM     45  C3  IDU d1218      27.923  -6.698  -3.634  0.00  0.00     0.069 C 
ATOM     46  O3  IDU d1218      27.575  -5.536  -4.398  0.00  0.00    -0.393 OA
ATOM     47  S   IDU d1218      27.600 -10.098  -5.131  0.00  0.00     0.252 S 
ATOM     48  O2S IDU d1218      28.801  -9.819  -5.949  0.00  0.00    -0.572 OA
ATOM     49  H   IDU d1218      28.510  -5.373  -2.069  0.00  0.00     0.041 H 
ATOM     50  H   IDU d1218      28.589  -7.088  -1.657  0.00  0.00     0.041 H 
ATOM     51  H   IDU d1218      25.405  -8.894  -2.903  0.00  0.00     0.133 H 
ATOM     52  H   IDU d1218      26.085  -5.460  -1.953  0.00  0.00     0.100 H 
ATOM     53  H   IDU d1218      26.551  -7.626  -4.909  0.00  0.00     0.097 H 
ATOM     54  H   IDU d1218      28.885  -7.069  -3.919  0.00  0.00     0.087 H 
ATOM     55  H   IDU d1218      26.701  -5.219  -4.123  0.00  0.00     0.210 HD
ENDROOT
TORSDOF 16
ENDMDL
MODEL 13
REMARK VINA RESULT:      -6.3      4.098      8.191
REMARK  0 active torsions:
REMARK  status: ('A' for Active; 'I' for Inactive)
REMARK       I    between atoms: C2_1  and  N_18 
REMARK       I    between atoms: O4_5  and  C1_17 
REMARK       I    between atoms: O4_5  and  C4_30 
REMARK       I    between atoms: O6_6  and  C6_7 
REMARK       I    between atoms: O6_6  and  S2_22 
REMARK       I    between atoms: C6_7  and  C5_28 
REMARK       I    between atoms: C3_8  and  O3_10 
REMARK       I    between atoms: C1_9  and  O1_16 
REMARK       I    between atoms: S1_12  and  N_18 
REMARK       I    between atoms: S1_12  and  O1S_13 
REMARK       I    between atoms: S1_12  and  O2S_15 
REMARK       I    between atoms: S1_12  and  O3S_26 
REMARK       I    between atoms: O2_24  and  C2_31 
REMARK       I    between atoms: O2_24  and  S_34 
REMARK       I    between atoms: C6_25  and  C5_27 
REMARK       I    between atoms: C3_32  and  O3_33 
ROOT
ATOM      1  C2  SGN d1219      20.803  -7.890  -1.815  0.00  0.00     0.081 C 
ATOM      2  O4  SGN d1219      24.045  -7.858  -3.731  0.00  0.00    -0.348 OA
ATOM      3  O6  SGN d1219      21.472 -10.622  -5.522  0.00  0.00    -0.254 OA
ATOM      4  C6  SGN d1219      22.331  -9.500  -5.500  0.00  0.00     0.067 C 
ATOM      5  C3  SGN d1219      22.290  -7.637  -2.100  0.00  0.00     0.083 C 
ATOM      6  C1  SGN d1219      19.956  -7.947  -3.094  0.00  0.00     0.147 C 
ATOM      7  O3  SGN d1219      23.051  -7.941  -0.949  0.00  0.00    -0.391 OA
ATOM      8  O4S SGN d1219      23.005 -12.480  -5.078  0.00  0.00    -0.572 OA
ATOM      9  S1  SGN d1219      19.439  -7.278   0.389  0.00  0.00     0.156 S 
ATOM     10  O1S SGN d1219      18.812  -6.051   0.875  0.00  0.00    -0.296 OA
ATOM     11  O5  SGN d1219      20.542  -8.841  -4.027  0.00  0.00    -0.350 OA
ATOM     12  O2S SGN d1219      20.389  -7.830   1.354  0.00  0.00    -0.296 OA
ATOM     13  O1  SGN d1219      19.808  -6.665  -3.673  0.00  0.00    -0.369 OA
ATOM     14  N   SGN d1219      20.285  -6.875  -0.912  0.00  0.00    -0.210 NA
ATOM     15  O5S SGN d1219      22.596 -11.768  -7.335  0.00  0.00    -0.572 OA
ATOM     16  S2  SGN d1219      22.002 -12.001  -6.025  0.00  0.00     0.251 S 
ATOM     17  O3S SGN d1219      18.440  -8.268  -0.019  0.00  0.00    -0.296 OA
ATOM     18  C5  SGN d1219      21.847  -8.490  -4.465  0.00  0.00     0.091 C 
ATOM     19  O6S SGN d1219      20.848 -12.891  -6.080  0.00  0.00    -0.572 OA
ATOM     20  C4  SGN d1219      22.831  -8.437  -3.292  0.00  0.00     0.095 C 
ATOM     21  H   SGN d1219      20.733  -8.852  -1.351  0.00  0.00     0.076 H 
ATOM     22  H   SGN d1219      22.338  -9.041  -6.466  0.00  0.00     0.080 H 
ATOM     23  H   SGN d1219      23.319  -9.820  -5.242  0.00  0.00     0.080 H 
ATOM     24  H   SGN d1219      22.379  -6.601  -2.357  0.00  0.00     0.089 H 
ATOM     25  H   SGN d1219      18.982  -8.302  -2.830  0.00  0.00     0.131 H 
ATOM     26  H   SGN d1219      22.954  -8.882  -0.737  0.00  0.00     0.210 HD
ATOM     27  H   SGN d1219      19.500  -5.419   1.135  0.00  0.00     0.231 HD
ATOM     28  H   SGN d1219      21.033  -7.148   1.600  0.00  0.00     0.231 HD
ATOM     29  H   SGN d1219      20.680  -6.319  -3.921  0.00  0.00     0.212 HD
ATOM     30  H   SGN d1219      19.684  -6.269  -1.472  0.00  0.00     0.140 HD
ATOM     31  H   SGN d1219      17.829  -7.867  -0.657  0.00  0.00     0.231 HD
ATOM     32  H   SGN d1219      21.802  -7.516  -4.905  0.00  0.00     0.090 H 
ATOM     33  H   SGN d1219      22.984  -9.441  -2.957  0.00  0.00     0.091 H 
ATOM     34  C4  IDU d1218      27.668  -7.176  -2.739  0.00  0.00    -0.005 C 
ATOM     35  O61 IDU d1218      26.648  -5.170  -0.342  0.00  0.00    -0.646 OA
ATOM     36  O5  IDU d1218      25.593  -8.062  -1.884  0.00  0.00    -0.343 OA
ATOM     37  C1  IDU d1218      25.144  -8.585  -3.145  0.00  0.00     0.161 C 
ATOM     38  O62 IDU d1218      27.052  -7.264   0.286  0.00  0.00    -0.646 OA
ATOM     39  O1S IDU d1218      26.574 -12.569  -4.461  0.00  0.00    -0.572 OA
ATOM     40  O3S IDU d1218      25.345 -11.024  -5.840  0.00  0.00    -0.572 OA
ATOM     41  O2  IDU d1218      26.830 -10.075  -3.991  0.00  0.00    -0.244 OA
ATOM     42  C6  IDU d1218      26.718  -6.405  -0.581  0.00  0.00     0.203 C 
ATOM     43  C5  IDU d1218      26.384  -6.875  -1.967  0.00  0.00     0.127 C 
ATOM     44  C2  IDU d1218      26.263  -8.780  -4.178  0.00  0.00     0.132 C 
ATOM     45  C3  IDU d1218      27.378  -7.724  -4.139  0.00  0.00     0.069 C 
ATOM     46  O3  IDU d1218      27.049  -6.642  -5.018  0.00  0.00    -0.393 OA
ATOM     47  S   IDU d1218      26.616 -11.241  -5.117  0.00  0.00     0.252 S 
ATOM     48  O2S IDU d1218      27.743 -11.187  -6.075  0.00  0.00    -0.572 OA
ATOM     49  H   IDU d1218      28.235  -6.273  -2.832  0.00  0.00     0.041 H 
ATOM     50  H   IDU d1218      28.214  -7.920  -2.197  0.00  0.00     0.041 H 
ATOM     51  H   IDU d1218      24.777  -9.555  -2.880  0.00  0.00     0.133 H 
ATOM     52  H   IDU d1218      25.838  -6.110  -2.478  0.00  0.00     0.100 H 
ATOM     53  H   IDU d1218      25.806  -8.671  -5.139  0.00  0.00     0.097 H 
ATOM     54  H   IDU d1218      28.270  -8.221  -4.459  0.00  0.00     0.087 H 
ATOM     55  H   IDU d1218      26.239  -6.209  -4.708  0.00  0.00     0.210 HD
ENDROOT
TORSDOF 16
ENDMDL
MODEL 14
REMARK VINA RESULT:      -6.2      1.445      1.531
REMARK  0 active torsions:
REMARK  status: ('A' for Active; 'I' for Inactive)
REMARK       I    between atoms: C2_1  and  N_18 
REMARK       I    between atoms: O4_5  and  C1_17 
REMARK       I    between atoms: O4_5  and  C4_30 
REMARK       I    between atoms: O6_6  and  C6_7 
REMARK       I    between atoms: O6_6  and  S2_22 
REMARK       I    between atoms: C6_7  and  C5_28 
REMARK       I    between atoms: C3_8  and  O3_10 
REMARK       I    between atoms: C1_9  and  O1_16 
REMARK       I    between atoms: S1_12  and  N_18 
REMARK       I    between atoms: S1_12  and  O1S_13 
REMARK       I    between atoms: S1_12  and  O2S_15 
REMARK       I    between atoms: S1_12  and  O3S_26 
REMARK       I    between atoms: O2_24  and  C2_31 
REMARK       I    between atoms: O2_24  and  S_34 
REMARK       I    between atoms: C6_25  and  C5_27 
REMARK       I    between atoms: C3_32  and  O3_33 
ROOT
ATOM      1  C2  SGN d1219      23.351 -12.473  -5.546  0.00  0.00     0.081 C 
ATOM      2  O4  SGN d1219      20.541 -10.931  -3.568  0.00  0.00    -0.348 OA
ATOM      3  O6  SGN d1219      22.625  -7.877  -5.516  0.00  0.00    -0.254 OA
ATOM      4  C6  SGN d1219      21.476  -8.620  -5.165  0.00  0.00     0.067 C 
ATOM      5  C3  SGN d1219      22.249 -12.358  -4.484  0.00  0.00     0.083 C 
ATOM      6  C1  SGN d1219      23.105 -11.562  -6.756  0.00  0.00     0.147 C 
ATOM      7  O3  SGN d1219      22.696 -12.932  -3.273  0.00  0.00    -0.391 OA
ATOM      8  O4S SGN d1219      23.252  -6.822  -3.396  0.00  0.00    -0.572 OA
ATOM      9  S1  SGN d1219      24.932 -14.560  -6.036  0.00  0.00     0.156 S 
ATOM     10  O1S SGN d1219      24.759 -15.795  -6.796  0.00  0.00    -0.296 OA
ATOM     11  O5  SGN d1219      22.834 -10.239  -6.323  0.00  0.00    -0.350 OA
ATOM     12  O2S SGN d1219      25.332 -14.818  -4.652  0.00  0.00    -0.296 OA
ATOM     13  O1  SGN d1219      22.041 -12.042  -7.555  0.00  0.00    -0.369 OA
ATOM     14  N   SGN d1219      23.493 -13.855  -5.975  0.00  0.00    -0.210 NA
ATOM     15  O5S SGN d1219      21.732  -5.715  -4.890  0.00  0.00    -0.572 OA
ATOM     16  S2  SGN d1219      22.936  -6.530  -4.791  0.00  0.00     0.251 S 
ATOM     17  O3S SGN d1219      25.852 -13.639  -6.705  0.00  0.00    -0.296 OA
ATOM     18  C5  SGN d1219      21.678 -10.091  -5.510  0.00  0.00     0.091 C 
ATOM     19  O6S SGN d1219      24.074  -5.941  -5.487  0.00  0.00    -0.572 OA
ATOM     20  C4  SGN d1219      21.795 -10.916  -4.225  0.00  0.00     0.095 C 
ATOM     21  H   SGN d1219      24.261 -12.145  -5.088  0.00  0.00     0.076 H 
ATOM     22  H   SGN d1219      20.632  -8.243  -5.703  0.00  0.00     0.080 H 
ATOM     23  H   SGN d1219      21.307  -8.528  -4.112  0.00  0.00     0.080 H 
ATOM     24  H   SGN d1219      21.400 -12.885  -4.868  0.00  0.00     0.089 H 
ATOM     25  H   SGN d1219      23.991 -11.562  -7.355  0.00  0.00     0.131 H 
ATOM     26  H   SGN d1219      23.464 -12.439  -2.946  0.00  0.00     0.210 HD
ATOM     27  H   SGN d1219      24.145 -16.381  -6.326  0.00  0.00     0.231 HD
ATOM     28  H   SGN d1219      24.701 -15.430  -4.242  0.00  0.00     0.231 HD
ATOM     29  H   SGN d1219      21.223 -12.052  -7.033  0.00  0.00     0.212 HD
ATOM     30  H   SGN d1219      23.106 -13.906  -6.918  0.00  0.00     0.140 HD
ATOM     31  H   SGN d1219      25.555 -13.492  -7.617  0.00  0.00     0.231 HD
ATOM     32  H   SGN d1219      20.834 -10.452  -6.060  0.00  0.00     0.090 H 
ATOM     33  H   SGN d1219      22.541 -10.454  -3.614  0.00  0.00     0.091 H 
ATOM     34  C4  IDU d1218      18.772 -11.910  -0.329  0.00  0.00    -0.005 C 
ATOM     35  O61 IDU d1218      19.398 -15.081  -0.931  0.00  0.00    -0.646 OA
ATOM     36  O5  IDU d1218      20.908 -12.031  -1.445  0.00  0.00    -0.343 OA
ATOM     37  C1  IDU d1218      20.759 -10.787  -2.150  0.00  0.00     0.161 C 
ATOM     38  O62 IDU d1218      20.870 -14.061   0.386  0.00  0.00    -0.646 OA
ATOM     39  O1S IDU d1218      21.786  -7.000  -0.087  0.00  0.00    -0.572 OA
ATOM     40  O3S IDU d1218      20.668  -7.148  -2.215  0.00  0.00    -0.572 OA
ATOM     41  O2  IDU d1218      20.338  -9.050  -0.542  0.00  0.00    -0.244 OA
ATOM     42  C6  IDU d1218      20.008 -14.050  -0.541  0.00  0.00     0.203 C 
ATOM     43  C5  IDU d1218      19.694 -12.747  -1.216  0.00  0.00     0.127 C 
ATOM     44  C2  IDU d1218      19.708  -9.845  -1.545  0.00  0.00     0.132 C 
ATOM     45  C3  IDU d1218      18.476 -10.540  -0.946  0.00  0.00     0.069 C 
ATOM     46  O3  IDU d1218      17.463 -10.676  -1.950  0.00  0.00    -0.393 OA
ATOM     47  S   IDU d1218      20.549  -7.445  -0.771  0.00  0.00     0.252 S 
ATOM     48  O2S IDU d1218      19.379  -6.729  -0.215  0.00  0.00    -0.572 OA
ATOM     49  H   IDU d1218      17.850 -12.436  -0.196  0.00  0.00     0.041 H 
ATOM     50  H   IDU d1218      19.265 -11.753   0.607  0.00  0.00     0.041 H 
ATOM     51  H   IDU d1218      21.717 -10.327  -2.021  0.00  0.00     0.133 H 
ATOM     52  H   IDU d1218      19.205 -12.941  -2.148  0.00  0.00     0.100 H 
ATOM     53  H   IDU d1218      19.332  -9.255  -2.355  0.00  0.00     0.097 H 
ATOM     54  H   IDU d1218      18.141  -9.915  -0.145  0.00  0.00     0.087 H 
ATOM     55  H   IDU d1218      17.790 -11.245  -2.664  0.00  0.00     0.210 HD
ENDROOT
TORSDOF 16
ENDMDL
MODEL 15
REMARK VINA RESULT:      -6.2      3.171      6.771
REMARK  0 active torsions:
REMARK  status: ('A' for Active; 'I' for Inactive)
REMARK       I    between atoms: C2_1  and  N_18 
REMARK       I    between atoms: O4_5  and  C1_17 
REMARK       I    between atoms: O4_5  and  C4_30 
REMARK       I    between atoms: O6_6  and  C6_7 
REMARK       I    between atoms: O6_6  and  S2_22 
REMARK       I    between atoms: C6_7  and  C5_28 
REMARK       I    between atoms: C3_8  and  O3_10 
REMARK       I    between atoms: C1_9  and  O1_16 
REMARK       I    between atoms: S1_12  and  N_18 
REMARK       I    between atoms: S1_12  and  O1S_13 
REMARK       I    between atoms: S1_12  and  O2S_15 
REMARK       I    between atoms: S1_12  and  O3S_26 
REMARK       I    between atoms: O2_24  and  C2_31 
REMARK       I    between atoms: O2_24  and  S_34 
REMARK       I    between atoms: C6_25  and  C5_27 
REMARK       I    between atoms: C3_32  and  O3_33 
ROOT
ATOM      1  C2  SGN d1219      24.273  -7.086  -5.819  0.00  0.00     0.081 C 
ATOM      2  O4  SGN d1219      21.906  -9.970  -5.306  0.00  0.00    -0.348 OA
ATOM      3  O6  SGN d1219      21.279  -7.180  -2.258  0.00  0.00    -0.254 OA
ATOM      4  C6  SGN d1219      20.890  -8.014  -3.330  0.00  0.00     0.067 C 
ATOM      5  C3  SGN d1219      23.698  -8.502  -5.958  0.00  0.00     0.083 C 
ATOM      6  C1  SGN d1219      23.201  -6.042  -5.477  0.00  0.00     0.147 C 
ATOM      7  O3  SGN d1219      24.749  -9.445  -5.922  0.00  0.00    -0.391 OA
ATOM      8  O4S SGN d1219      21.905  -8.792  -0.523  0.00  0.00    -0.572 OA
ATOM      9  S1  SGN d1219      26.455  -6.091  -6.978  0.00  0.00     0.156 S 
ATOM     10  O1S SGN d1219      26.725  -5.535  -8.302  0.00  0.00    -0.296 OA
ATOM     11  O5  SGN d1219      22.430  -6.481  -4.370  0.00  0.00    -0.350 OA
ATOM     12  O2S SGN d1219      27.358  -7.195  -6.651  0.00  0.00    -0.296 OA
ATOM     13  O1  SGN d1219      22.361  -5.782  -6.585  0.00  0.00    -0.369 OA
ATOM     14  N   SGN d1219      24.975  -6.707  -7.034  0.00  0.00    -0.210 NA
ATOM     15  O5S SGN d1219      19.639  -8.009  -0.680  0.00  0.00    -0.572 OA
ATOM     16  S2  SGN d1219      21.046  -7.640  -0.785  0.00  0.00     0.251 S 
ATOM     17  O3S SGN d1219      26.467  -5.055  -5.945  0.00  0.00    -0.296 OA
ATOM     18  C5  SGN d1219      21.714  -7.691  -4.571  0.00  0.00     0.091 C 
ATOM     19  O6S SGN d1219      21.396  -6.506   0.062  0.00  0.00    -0.572 OA
ATOM     20  C4  SGN d1219      22.663  -8.852  -4.881  0.00  0.00     0.095 C 
ATOM     21  H   SGN d1219      24.961  -7.107  -4.999  0.00  0.00     0.076 H 
ATOM     22  H   SGN d1219      19.853  -7.855  -3.543  0.00  0.00     0.080 H 
ATOM     23  H   SGN d1219      21.053  -9.035  -3.057  0.00  0.00     0.080 H 
ATOM     24  H   SGN d1219      23.187  -8.532  -6.899  0.00  0.00     0.089 H 
ATOM     25  H   SGN d1219      23.698  -5.130  -5.220  0.00  0.00     0.131 H 
ATOM     26  H   SGN d1219      25.195  -9.399  -5.062  0.00  0.00     0.210 HD
ATOM     27  H   SGN d1219      26.709  -6.247  -8.961  0.00  0.00     0.231 HD
ATOM     28  H   SGN d1219      27.323  -7.861  -7.357  0.00  0.00     0.231 HD
ATOM     29  H   SGN d1219      21.898  -6.596  -6.838  0.00  0.00     0.212 HD
ATOM     30  H   SGN d1219      24.391  -6.014  -7.503  0.00  0.00     0.140 HD
ATOM     31  H   SGN d1219      25.858  -4.342  -6.196  0.00  0.00     0.231 HD
ATOM     32  H   SGN d1219      21.065  -7.560  -5.411  0.00  0.00     0.090 H 
ATOM     33  H   SGN d1219      23.202  -9.073  -3.984  0.00  0.00     0.091 H 
ATOM     34  C4  IDU d1218      22.102 -13.696  -6.115  0.00  0.00    -0.005 C 
ATOM     35  O61 IDU d1218      24.075 -13.051  -8.665  0.00  0.00    -0.646 OA
ATOM     36  O5  IDU d1218      23.471 -11.802  -5.514  0.00  0.00    -0.343 OA
ATOM     37  C1  IDU d1218      22.464 -11.160  -4.714  0.00  0.00     0.161 C 
ATOM     38  O62 IDU d1218      25.117 -13.584  -6.775  0.00  0.00    -0.646 OA
ATOM     39  O1S IDU d1218      21.937 -12.415  -0.496  0.00  0.00    -0.572 OA
ATOM     40  O3S IDU d1218      20.443 -10.953  -1.693  0.00  0.00    -0.572 OA
ATOM     41  O2  IDU d1218      21.742 -12.707  -3.022  0.00  0.00    -0.244 OA
ATOM     42  C6  IDU d1218      24.134 -13.100  -7.407  0.00  0.00     0.203 C 
ATOM     43  C5  IDU d1218      22.976 -12.551  -6.626  0.00  0.00     0.127 C 
ATOM     44  C2  IDU d1218      21.342 -12.098  -4.248  0.00  0.00     0.132 C 
ATOM     45  C3  IDU d1218      20.942 -13.188  -5.253  0.00  0.00     0.069 C 
ATOM     46  O3  IDU d1218      19.893 -12.704  -6.100  0.00  0.00    -0.393 OA
ATOM     47  S   IDU d1218      20.981 -12.329  -1.624  0.00  0.00     0.252 S 
ATOM     48  O2S IDU d1218      19.869 -13.283  -1.418  0.00  0.00    -0.572 OA
ATOM     49  H   IDU d1218      21.702 -14.226  -6.954  0.00  0.00     0.041 H 
ATOM     50  H   IDU d1218      22.711 -14.334  -5.510  0.00  0.00     0.041 H 
ATOM     51  H   IDU d1218      23.011 -10.856  -3.846  0.00  0.00     0.133 H 
ATOM     52  H   IDU d1218      22.390 -11.917  -7.259  0.00  0.00     0.100 H 
ATOM     53  H   IDU d1218      20.469 -11.488  -4.134  0.00  0.00     0.097 H 
ATOM     54  H   IDU d1218      20.611 -14.023  -4.672  0.00  0.00     0.087 H 
ATOM     55  H   IDU d1218      20.216 -11.949  -6.615  0.00  0.00     0.210 HD
ENDROOT
TORSDOF 16
ENDMDL
MODEL 16
REMARK VINA RESULT:      -6.1      3.104      5.717
REMARK  0 active torsions:
REMARK  status: ('A' for Active; 'I' for Inactive)
REMARK       I    between atoms: C2_1  and  N_18 
REMARK       I    between atoms: O4_5  and  C1_17 
REMARK       I    between atoms: O4_5  and  C4_30 
REMARK       I    between atoms: O6_6  and  C6_7 
REMARK       I    between atoms: O6_6  and  S2_22 
REMARK       I    between atoms: C6_7  and  C5_28 
REMARK       I    between atoms: C3_8  and  O3_10 
REMARK       I    between atoms: C1_9  and  O1_16 
REMARK       I    between atoms: S1_12  and  N_18 
REMARK       I    between atoms: S1_12  and  O1S_13 
REMARK       I    between atoms: S1_12  and  O2S_15 
REMARK       I    between atoms: S1_12  and  O3S_26 
REMARK       I    between atoms: O2_24  and  C2_31 
REMARK       I    between atoms: O2_24  and  S_34 
REMARK       I    between atoms: C6_25  and  C5_27 
REMARK       I    between atoms: C3_32  and  O3_33 
ROOT
ATOM      1  C2  SGN d1219      21.534 -11.123  -4.947  0.00  0.00     0.081 C 
ATOM      2  O4  SGN d1219      18.608 -13.105  -3.646  0.00  0.00    -0.348 OA
ATOM      3  O6  SGN d1219      19.398  -9.995  -0.969  0.00  0.00    -0.254 OA
ATOM      4  C6  SGN d1219      18.588 -10.765  -1.833  0.00  0.00     0.067 C 
ATOM      5  C3  SGN d1219      20.572 -12.307  -4.786  0.00  0.00     0.083 C 
ATOM      6  C1  SGN d1219      20.885  -9.779  -4.587  0.00  0.00     0.147 C 
ATOM      7  O3  SGN d1219      21.304 -13.515  -4.786  0.00  0.00    -0.391 OA
ATOM      8  O4S SGN d1219      19.880 -11.558   0.853  0.00  0.00    -0.572 OA
ATOM      9  S1  SGN d1219      23.632 -10.937  -6.576  0.00  0.00     0.156 S 
ATOM     10  O1S SGN d1219      23.779 -10.608  -7.992  0.00  0.00    -0.296 OA
ATOM     11  O5  SGN d1219      20.257  -9.865  -3.319  0.00  0.00    -0.350 OA
ATOM     12  O2S SGN d1219      24.238 -12.227  -6.246  0.00  0.00    -0.296 OA
ATOM     13  O1  SGN d1219      19.949  -9.379  -5.570  0.00  0.00    -0.369 OA
ATOM     14  N   SGN d1219      22.059 -11.083  -6.302  0.00  0.00    -0.210 NA
ATOM     15  O5S SGN d1219      17.938 -10.149   0.957  0.00  0.00    -0.572 OA
ATOM     16  S2  SGN d1219      19.343 -10.230   0.572  0.00  0.00     0.251 S 
ATOM     17  O3S SGN d1219      24.137  -9.864  -5.718  0.00  0.00    -0.296 OA
ATOM     18  C5  SGN d1219      19.207 -10.817  -3.225  0.00  0.00     0.091 C 
ATOM     19  O6S SGN d1219      20.155  -9.182   1.179  0.00  0.00    -0.572 OA
ATOM     20  C4  SGN d1219      19.715 -12.233  -3.515  0.00  0.00     0.095 C 
ATOM     21  H   SGN d1219      22.337 -11.276  -4.255  0.00  0.00     0.076 H 
ATOM     22  H   SGN d1219      17.616 -10.323  -1.894  0.00  0.00     0.080 H 
ATOM     23  H   SGN d1219      18.511 -11.760  -1.446  0.00  0.00     0.080 H 
ATOM     24  H   SGN d1219      19.897 -12.267  -5.616  0.00  0.00     0.089 H 
ATOM     25  H   SGN d1219      21.656  -9.039  -4.549  0.00  0.00     0.131 H 
ATOM     26  H   SGN d1219      21.906 -13.528  -4.026  0.00  0.00     0.210 HD
ATOM     27  H   SGN d1219      23.436 -11.338  -8.531  0.00  0.00     0.231 HD
ATOM     28  H   SGN d1219      23.881 -12.912  -6.833  0.00  0.00     0.231 HD
ATOM     29  H   SGN d1219      19.237 -10.036  -5.625  0.00  0.00     0.212 HD
ATOM     30  H   SGN d1219      21.611 -10.291  -6.763  0.00  0.00     0.140 HD
ATOM     31  H   SGN d1219      23.714  -9.026  -5.966  0.00  0.00     0.231 HD
ATOM     32  H   SGN d1219      18.467 -10.573  -3.958  0.00  0.00     0.090 H 
ATOM     33  H   SGN d1219      20.337 -12.524  -2.696  0.00  0.00     0.091 H 
ATOM     34  C4  IDU d1218      17.594 -16.774  -3.934  0.00  0.00    -0.005 C 
ATOM     35  O61 IDU d1218      19.124 -16.983  -6.837  0.00  0.00    -0.646 OA
ATOM     36  O5  IDU d1218      19.527 -15.333  -3.842  0.00  0.00    -0.343 OA
ATOM     37  C1  IDU d1218      18.918 -14.350  -2.989  0.00  0.00     0.161 C 
ATOM     38  O62 IDU d1218      20.328 -17.633  -5.085  0.00  0.00    -0.646 OA
ATOM     39  O1S IDU d1218      18.907 -15.006   1.395  0.00  0.00    -0.572 OA
ATOM     40  O3S IDU d1218      17.674 -13.276   0.260  0.00  0.00    -0.572 OA
ATOM     41  O2  IDU d1218      18.143 -15.450  -0.998  0.00  0.00    -0.244 OA
ATOM     42  C6  IDU d1218      19.414 -16.934  -5.612  0.00  0.00     0.203 C 
ATOM     43  C5  IDU d1218      18.633 -15.995  -4.739  0.00  0.00     0.127 C 
ATOM     44  C2  IDU d1218      17.694 -14.862  -2.216  0.00  0.00     0.132 C 
ATOM     45  C3  IDU d1218      16.816 -15.868  -2.976  0.00  0.00     0.069 C 
ATOM     46  O3  IDU d1218      15.797 -15.168  -3.701  0.00  0.00    -0.393 OA
ATOM     47  S   IDU d1218      17.809 -14.738   0.437  0.00  0.00     0.252 S 
ATOM     48  O2S IDU d1218      16.539 -15.292   0.956  0.00  0.00    -0.572 OA
ATOM     49  H   IDU d1218      16.905 -17.234  -4.611  0.00  0.00     0.041 H 
ATOM     50  H   IDU d1218      18.109 -17.509  -3.350  0.00  0.00     0.041 H 
ATOM     51  H   IDU d1218      19.689 -14.148  -2.274  0.00  0.00     0.133 H 
ATOM     52  H   IDU d1218      18.134 -15.274  -5.352  0.00  0.00     0.100 H 
ATOM     53  H   IDU d1218      17.066 -14.011  -2.050  0.00  0.00     0.097 H 
ATOM     54  H   IDU d1218      16.388 -16.509  -2.235  0.00  0.00     0.087 H 
ATOM     55  H   IDU d1218      16.209 -14.594  -4.365  0.00  0.00     0.210 HD
ENDROOT
TORSDOF 16
ENDMDL
MODEL 17
REMARK VINA RESULT:      -6.1      2.905      6.895
REMARK  0 active torsions:
REMARK  status: ('A' for Active; 'I' for Inactive)
REMARK       I    between atoms: C2_1  and  N_18 
REMARK       I    between atoms: O4_5  and  C1_17 
REMARK       I    between atoms: O4_5  and  C4_30 
REMARK       I    between atoms: O6_6  and  C6_7 
REMARK       I    between atoms: O6_6  and  S2_22 
REMARK       I    between atoms: C6_7  and  C5_28 
REMARK       I    between atoms: C3_8  and  O3_10 
REMARK       I    between atoms: C1_9  and  O1_16 
REMARK       I    between atoms: S1_12  and  N_18 
REMARK       I    between atoms: S1_12  and  O1S_13 
REMARK       I    between atoms: S1_12  and  O2S_15 
REMARK       I    between atoms: S1_12  and  O3S_26 
REMARK       I    between atoms: O2_24  and  C2_31 
REMARK       I    between atoms: O2_24  and  S_34 
REMARK       I    between atoms: C6_25  and  C5_27 
REMARK       I    between atoms: C3_32  and  O3_33 
ROOT
ATOM      1  C2  SGN d1219      24.070  -8.014  -5.627  0.00  0.00     0.081 C 
ATOM      2  O4  SGN d1219      22.655 -10.619  -3.305  0.00  0.00    -0.348 OA
ATOM      3  O6  SGN d1219      25.149 -12.519  -6.069  0.00  0.00    -0.254 OA
ATOM      4  C6  SGN d1219      24.695 -12.183  -4.774  0.00  0.00     0.067 C 
ATOM      5  C3  SGN d1219      23.123  -8.643  -4.597  0.00  0.00     0.083 C 
ATOM      6  C1  SGN d1219      25.471  -8.642  -5.606  0.00  0.00     0.147 C 
ATOM      7  O3  SGN d1219      21.790  -8.283  -4.896  0.00  0.00    -0.391 OA
ATOM      8  O4S SGN d1219      23.303 -13.863  -6.954  0.00  0.00    -0.572 OA
ATOM      9  S1  SGN d1219      23.977  -5.550  -6.635  0.00  0.00     0.156 S 
ATOM     10  O1S SGN d1219      24.438  -4.250  -6.155  0.00  0.00    -0.296 OA
ATOM     11  O5  SGN d1219      25.372 -10.055  -5.677  0.00  0.00    -0.350 OA
ATOM     12  O2S SGN d1219      22.553  -5.540  -6.969  0.00  0.00    -0.296 OA
ATOM     13  O1  SGN d1219      26.190  -8.259  -4.450  0.00  0.00    -0.369 OA
ATOM     14  N   SGN d1219      24.158  -6.578  -5.418  0.00  0.00    -0.210 NA
ATOM     15  O5S SGN d1219      25.091 -14.918  -5.746  0.00  0.00    -0.572 OA
ATOM     16  S2  SGN d1219      24.743 -13.882  -6.711  0.00  0.00     0.251 S 
ATOM     17  O3S SGN d1219      24.794  -6.033  -7.750  0.00  0.00    -0.296 OA
ATOM     18  C5  SGN d1219      24.677 -10.669  -4.600  0.00  0.00     0.091 C 
ATOM     19  O6S SGN d1219      25.496 -13.993  -7.954  0.00  0.00    -0.572 OA
ATOM     20  C4  SGN d1219      23.231 -10.172  -4.518  0.00  0.00     0.095 C 
ATOM     21  H   SGN d1219      23.655  -8.210  -6.594  0.00  0.00     0.076 H 
ATOM     22  H   SGN d1219      25.350 -12.615  -4.046  0.00  0.00     0.080 H 
ATOM     23  H   SGN d1219      23.703 -12.562  -4.641  0.00  0.00     0.080 H 
ATOM     24  H   SGN d1219      23.418  -8.263  -3.640  0.00  0.00     0.089 H 
ATOM     25  H   SGN d1219      26.006  -8.283  -6.460  0.00  0.00     0.131 H 
ATOM     26  H   SGN d1219      21.547  -8.639  -5.765  0.00  0.00     0.210 HD
ATOM     27  H   SGN d1219      23.877  -3.961  -5.418  0.00  0.00     0.231 HD
ATOM     28  H   SGN d1219      22.045  -5.216  -6.209  0.00  0.00     0.231 HD
ATOM     29  H   SGN d1219      25.724  -8.573  -3.660  0.00  0.00     0.212 HD
ATOM     30  H   SGN d1219      25.082  -6.399  -5.023  0.00  0.00     0.140 HD
ATOM     31  H   SGN d1219      25.729  -6.025  -7.492  0.00  0.00     0.231 HD
ATOM     32  H   SGN d1219      25.172 -10.404  -3.689  0.00  0.00     0.090 H 
ATOM     33  H   SGN d1219      22.707 -10.570  -5.361  0.00  0.00     0.091 H 
ATOM     34  C4  IDU d1218      19.374 -10.902  -1.373  0.00  0.00    -0.005 C 
ATOM     35  O61 IDU d1218      19.187  -7.625  -1.185  0.00  0.00    -0.646 OA
ATOM     36  O5  IDU d1218      20.318 -10.003  -3.403  0.00  0.00    -0.343 OA
ATOM     37  C1  IDU d1218      21.300 -11.040  -3.563  0.00  0.00     0.161 C 
ATOM     38  O62 IDU d1218      18.070  -8.540  -2.875  0.00  0.00    -0.646 OA
ATOM     39  O1S IDU d1218      20.125 -14.842  -5.516  0.00  0.00    -0.572 OA
ATOM     40  O3S IDU d1218      22.215 -14.468  -4.380  0.00  0.00    -0.572 OA
ATOM     41  O2  IDU d1218      20.165 -13.158  -3.600  0.00  0.00    -0.244 OA
ATOM     42  C6  IDU d1218      19.017  -8.539  -2.036  0.00  0.00     0.203 C 
ATOM     43  C5  IDU d1218      19.992  -9.679  -2.050  0.00  0.00     0.127 C 
ATOM     44  C2  IDU d1218      20.986 -12.326  -2.784  0.00  0.00     0.132 C 
ATOM     45  C3  IDU d1218      20.307 -12.115  -1.423  0.00  0.00     0.069 C 
ATOM     46  O3  IDU d1218      21.304 -11.995  -0.400  0.00  0.00    -0.393 OA
ATOM     47  S   IDU d1218      20.750 -14.562  -4.202  0.00  0.00     0.252 S 
ATOM     48  O2S IDU d1218      20.438 -15.652  -3.251  0.00  0.00    -0.572 OA
ATOM     49  H   IDU d1218      19.171 -10.664  -0.350  0.00  0.00     0.041 H 
ATOM     50  H   IDU d1218      18.475 -11.153  -1.897  0.00  0.00     0.041 H 
ATOM     51  H   IDU d1218      21.232 -11.270  -4.606  0.00  0.00     0.133 H 
ATOM     52  H   IDU d1218      20.878  -9.394  -1.521  0.00  0.00     0.100 H 
ATOM     53  H   IDU d1218      21.930 -12.779  -2.561  0.00  0.00     0.097 H 
ATOM     54  H   IDU d1218      19.693 -12.975  -1.260  0.00  0.00     0.087 H 
ATOM     55  H   IDU d1218      21.848 -11.210  -0.569  0.00  0.00     0.210 HD
ENDROOT
TORSDOF 16
ENDMDL
MODEL 18
REMARK VINA RESULT:      -6.1      2.809      7.271
REMARK  0 active torsions:
REMARK  status: ('A' for Active; 'I' for Inactive)
REMARK       I    between atoms: C2_1  and  N_18 
REMARK       I    between atoms: O4_5  and  C1_17 
REMARK       I    between atoms: O4_5  and  C4_30 
REMARK       I    between atoms: O6_6  and  C6_7 
REMARK       I    between atoms: O6_6  and  S2_22 
REMARK       I    between atoms: C6_7  and  C5_28 
REMARK       I    between atoms: C3_8  and  O3_10 
REMARK       I    between atoms: C1_9  and  O1_16 
REMARK       I    between atoms: S1_12  and  N_18 
REMARK       I    between atoms: S1_12  and  O1S_13 
REMARK       I    between atoms: S1_12  and  O2S_15 
REMARK       I    between atoms: S1_12  and  O3S_26 
REMARK       I    between atoms: O2_24  and  C2_31 
REMARK       I    between atoms: O2_24  and  S_34 
REMARK       I    between atoms: C6_25  and  C5_27 
REMARK       I    between atoms: C3_32  and  O3_33 
ROOT
ATOM      1  C2  SGN d1219      21.688  -8.003  -4.436  0.00  0.00     0.081 C 
ATOM      2  O4  SGN d1219      22.069 -11.735  -4.108  0.00  0.00    -0.348 OA
ATOM      3  O6  SGN d1219      19.164 -10.454  -1.390  0.00  0.00    -0.254 OA
ATOM      4  C6  SGN d1219      19.666 -11.240  -2.451  0.00  0.00     0.067 C 
ATOM      5  C3  SGN d1219      22.335  -9.388  -4.569  0.00  0.00     0.083 C 
ATOM      6  C1  SGN d1219      20.157  -8.071  -4.337  0.00  0.00     0.147 C 
ATOM      7  O3  SGN d1219      23.719  -9.291  -4.304  0.00  0.00    -0.391 OA
ATOM      8  O4S SGN d1219      20.474 -11.238   0.526  0.00  0.00    -0.572 OA
ATOM      9  S1  SGN d1219      22.637  -5.670  -5.304  0.00  0.00     0.156 S 
ATOM     10  O1S SGN d1219      22.629  -5.002  -6.603  0.00  0.00    -0.296 OA
ATOM     11  O5  SGN d1219      19.775  -9.002  -3.338  0.00  0.00    -0.350 OA
ATOM     12  O2S SGN d1219      23.990  -5.810  -4.766  0.00  0.00    -0.296 OA
ATOM     13  O1  SGN d1219      19.575  -8.419  -5.578  0.00  0.00    -0.369 OA
ATOM     14  N   SGN d1219      22.083  -7.155  -5.549  0.00  0.00    -0.210 NA
ATOM     15  O5S SGN d1219      18.399 -12.310  -0.037  0.00  0.00    -0.572 OA
ATOM     16  S2  SGN d1219      19.106 -11.038   0.056  0.00  0.00     0.251 S 
ATOM     17  O3S SGN d1219      21.739  -5.012  -4.353  0.00  0.00    -0.296 OA
ATOM     18  C5  SGN d1219      20.189 -10.341  -3.567  0.00  0.00     0.091 C 
ATOM     19  O6S SGN d1219      18.397 -10.057   0.869  0.00  0.00    -0.572 OA
ATOM     20  C4  SGN d1219      21.715 -10.445  -3.645  0.00  0.00     0.095 C 
ATOM     21  H   SGN d1219      22.041  -7.579  -3.519  0.00  0.00     0.076 H 
ATOM     22  H   SGN d1219      18.882 -11.859  -2.834  0.00  0.00     0.080 H 
ATOM     23  H   SGN d1219      20.467 -11.849  -2.088  0.00  0.00     0.080 H 
ATOM     24  H   SGN d1219      22.157  -9.712  -5.573  0.00  0.00     0.089 H 
ATOM     25  H   SGN d1219      19.800  -7.099  -4.068  0.00  0.00     0.131 H 
ATOM     26  H   SGN d1219      23.854  -8.996  -3.391  0.00  0.00     0.210 HD
ATOM     27  H   SGN d1219      23.232  -5.463  -7.207  0.00  0.00     0.231 HD
ATOM     28  H   SGN d1219      24.555  -6.249  -5.421  0.00  0.00     0.231 HD
ATOM     29  H   SGN d1219      19.884  -9.299  -5.845  0.00  0.00     0.212 HD
ATOM     30  H   SGN d1219      21.263  -7.062  -6.149  0.00  0.00     0.140 HD
ATOM     31  H   SGN d1219      20.854  -4.937  -4.743  0.00  0.00     0.231 HD
ATOM     32  H   SGN d1219      19.786 -10.660  -4.505  0.00  0.00     0.090 H 
ATOM     33  H   SGN d1219      22.099 -10.272  -2.662  0.00  0.00     0.091 H 
ATOM     34  C4  IDU d1218      25.002 -14.124  -4.624  0.00  0.00    -0.005 C 
ATOM     35  O61 IDU d1218      26.279 -12.091  -6.871  0.00  0.00    -0.646 OA
ATOM     36  O5  IDU d1218      24.479 -11.868  -3.945  0.00  0.00    -0.343 OA
ATOM     37  C1  IDU d1218      23.209 -12.199  -3.357  0.00  0.00     0.161 C 
ATOM     38  O62 IDU d1218      27.072 -11.840  -4.810  0.00  0.00    -0.646 OA
ATOM     39  O1S IDU d1218      23.090 -13.729   0.801  0.00  0.00    -0.572 OA
ATOM     40  O3S IDU d1218      21.215 -13.708  -0.710  0.00  0.00    -0.572 OA
ATOM     41  O2  IDU d1218      23.563 -13.903  -1.699  0.00  0.00    -0.244 OA
ATOM     42  C6  IDU d1218      26.157 -12.167  -5.619  0.00  0.00     0.203 C 
ATOM     43  C5  IDU d1218      24.854 -12.669  -5.067  0.00  0.00     0.127 C 
ATOM     44  C2  IDU d1218      23.047 -13.686  -3.010  0.00  0.00     0.132 C 
ATOM     45  C3  IDU d1218      23.716 -14.662  -3.991  0.00  0.00     0.069 C 
ATOM     46  O3  IDU d1218      22.789 -15.022  -5.021  0.00  0.00    -0.393 OA
ATOM     47  S   IDU d1218      22.557 -14.281  -0.466  0.00  0.00     0.252 S 
ATOM     48  O2S IDU d1218      22.454 -15.754  -0.373  0.00  0.00    -0.572 OA
ATOM     49  H   IDU d1218      25.243 -14.723  -5.478  0.00  0.00     0.041 H 
ATOM     50  H   IDU d1218      25.779 -14.170  -3.889  0.00  0.00     0.041 H 
ATOM     51  H   IDU d1218      23.227 -11.654  -2.436  0.00  0.00     0.133 H 
ATOM     52  H   IDU d1218      24.101 -12.607  -5.825  0.00  0.00     0.100 H 
ATOM     53  H   IDU d1218      22.000 -13.897  -3.075  0.00  0.00     0.097 H 
ATOM     54  H   IDU d1218      23.999 -15.516  -3.413  0.00  0.00     0.087 H 
ATOM     55  H   IDU d1218      22.547 -14.232  -5.530  0.00  0.00     0.210 HD
ENDROOT
TORSDOF 16
ENDMDL
MODEL 19
REMARK VINA RESULT:      -6.1      2.514      6.305
REMARK  0 active torsions:
REMARK  status: ('A' for Active; 'I' for Inactive)
REMARK       I    between atoms: C2_1  and  N_18 
REMARK       I    between atoms: O4_5  and  C1_17 
REMARK       I    between atoms: O4_5  and  C4_30 
REMARK       I    between atoms: O6_6  and  C6_7 
REMARK       I    between atoms: O6_6  and  S2_22 
REMARK       I    between atoms: C6_7  and  C5_28 
REMARK       I    between atoms: C3_8  and  O3_10 
REMARK       I    between atoms: C1_9  and  O1_16 
REMARK       I    between atoms: S1_12  and  N_18 
REMARK       I    between atoms: S1_12  and  O1S_13 
REMARK       I    between atoms: S1_12  and  O2S_15 
REMARK       I    between atoms: S1_12  and  O3S_26 
REMARK       I    between atoms: O2_24  and  C2_31 
REMARK       I    between atoms: O2_24  and  S_34 
REMARK       I    between atoms: C6_25  and  C5_27 
REMARK       I    between atoms: C3_32  and  O3_33 
ROOT
ATOM      1  C2  SGN d1219      19.936 -13.111  -3.357  0.00  0.00     0.081 C 
ATOM      2  O4  SGN d1219      22.861 -10.867  -4.126  0.00  0.00    -0.348 OA
ATOM      3  O6  SGN d1219      20.549  -9.060  -1.150  0.00  0.00    -0.254 OA
ATOM      4  C6  SGN d1219      21.740  -9.569  -1.713  0.00  0.00     0.067 C 
ATOM      5  C3  SGN d1219      21.119 -12.528  -4.141  0.00  0.00     0.083 C 
ATOM      6  C1  SGN d1219      20.059 -12.885  -1.843  0.00  0.00     0.147 C 
ATOM      7  O3  SGN d1219      20.787 -12.453  -5.512  0.00  0.00    -0.391 OA
ATOM      8  O4S SGN d1219      20.074  -7.118  -2.565  0.00  0.00    -0.572 OA
ATOM      9  S1  SGN d1219      18.372 -15.154  -4.046  0.00  0.00     0.156 S 
ATOM     10  O1S SGN d1219      18.511 -16.604  -3.948  0.00  0.00    -0.296 OA
ATOM     11  O5  SGN d1219      20.332 -11.519  -1.576  0.00  0.00    -0.350 OA
ATOM     12  O2S SGN d1219      18.094 -14.720  -5.415  0.00  0.00    -0.296 OA
ATOM     13  O1  SGN d1219      21.064 -13.704  -1.279  0.00  0.00    -0.369 OA
ATOM     14  N   SGN d1219      19.793 -14.529  -3.644  0.00  0.00    -0.210 NA
ATOM     15  O5S SGN d1219      21.437  -6.875  -0.603  0.00  0.00    -0.572 OA
ATOM     16  S2  SGN d1219      20.265  -7.526  -1.176  0.00  0.00     0.251 S 
ATOM     17  O3S SGN d1219      17.377 -14.642  -3.102  0.00  0.00    -0.296 OA
ATOM     18  C5  SGN d1219      21.547 -11.025  -2.121  0.00  0.00     0.091 C 
ATOM     19  O6S SGN d1219      19.060  -7.315  -0.384  0.00  0.00    -0.572 OA
ATOM     20  C4  SGN d1219      21.557 -11.142  -3.649  0.00  0.00     0.095 C 
ATOM     21  H   SGN d1219      19.059 -12.590  -3.680  0.00  0.00     0.076 H 
ATOM     22  H   SGN d1219      22.528  -9.506  -0.991  0.00  0.00     0.080 H 
ATOM     23  H   SGN d1219      21.994  -8.993  -2.578  0.00  0.00     0.080 H 
ATOM     24  H   SGN d1219      21.946 -13.188  -3.981  0.00  0.00     0.089 H 
ATOM     25  H   SGN d1219      19.126 -13.152  -1.392  0.00  0.00     0.131 H 
ATOM     26  H   SGN d1219      20.038 -11.850  -5.631  0.00  0.00     0.210 HD
ATOM     27  H   SGN d1219      19.176 -16.909  -4.585  0.00  0.00     0.231 HD
ATOM     28  H   SGN d1219      18.772 -15.077  -6.011  0.00  0.00     0.231 HD
ATOM     29  H   SGN d1219      21.922 -13.481  -1.673  0.00  0.00     0.212 HD
ATOM     30  H   SGN d1219      20.102 -15.027  -2.809  0.00  0.00     0.140 HD
ATOM     31  H   SGN d1219      17.594 -14.949  -2.207  0.00  0.00     0.231 HD
ATOM     32  H   SGN d1219      22.351 -11.618  -1.737  0.00  0.00     0.090 H 
ATOM     33  H   SGN d1219      20.853 -10.433  -4.029  0.00  0.00     0.091 H 
ATOM     34  C4  IDU d1218      24.916 -10.230  -7.280  0.00  0.00    -0.005 C 
ATOM     35  O61 IDU d1218      24.320 -13.297  -8.303  0.00  0.00    -0.646 OA
ATOM     36  O5  IDU d1218      22.698 -10.826  -6.539  0.00  0.00    -0.343 OA
ATOM     37  C1  IDU d1218      22.757 -10.066  -5.320  0.00  0.00     0.161 C 
ATOM     38  O62 IDU d1218      22.938 -11.750  -9.101  0.00  0.00    -0.646 OA
ATOM     39  O1S IDU d1218      21.812  -5.737  -5.428  0.00  0.00    -0.572 OA
ATOM     40  O3S IDU d1218      22.754  -6.892  -3.536  0.00  0.00    -0.572 OA
ATOM     41  O2  IDU d1218      23.267  -7.783  -5.875  0.00  0.00    -0.244 OA
ATOM     42  C6  IDU d1218      23.719 -12.194  -8.210  0.00  0.00     0.203 C 
ATOM     43  C5  IDU d1218      23.945 -11.370  -6.975  0.00  0.00     0.127 C 
ATOM     44  C2  IDU d1218      23.831  -8.968  -5.318  0.00  0.00     0.132 C 
ATOM     45  C3  IDU d1218      25.126  -9.320  -6.067  0.00  0.00     0.069 C 
ATOM     46  O3  IDU d1218      26.055  -9.931  -5.164  0.00  0.00    -0.393 OA
ATOM     47  S   IDU d1218      22.999  -6.473  -4.934  0.00  0.00     0.252 S 
ATOM     48  O2S IDU d1218      24.193  -5.601  -4.984  0.00  0.00    -0.572 OA
ATOM     49  H   IDU d1218      25.859 -10.646  -7.567  0.00  0.00     0.041 H 
ATOM     50  H   IDU d1218      24.498  -9.640  -8.069  0.00  0.00     0.041 H 
ATOM     51  H   IDU d1218      21.803  -9.583  -5.297  0.00  0.00     0.133 H 
ATOM     52  H   IDU d1218      24.360 -11.990  -6.208  0.00  0.00     0.100 H 
ATOM     53  H   IDU d1218      24.125  -8.838  -4.296  0.00  0.00     0.097 H 
ATOM     54  H   IDU d1218      25.510  -8.396  -6.446  0.00  0.00     0.087 H 
ATOM     55  H   IDU d1218      25.685 -10.764  -4.834  0.00  0.00     0.210 HD
ENDROOT
TORSDOF 16
ENDMDL
MODEL 20
REMARK VINA RESULT:      -6.1      2.444      4.369
REMARK  0 active torsions:
REMARK  status: ('A' for Active; 'I' for Inactive)
REMARK       I    between atoms: C2_1  and  N_18 
REMARK       I    between atoms: O4_5  and  C1_17 
REMARK       I    between atoms: O4_5  and  C4_30 
REMARK       I    between atoms: O6_6  and  C6_7 
REMARK       I    between atoms: O6_6  and  S2_22 
REMARK       I    between atoms: C6_7  and  C5_28 
REMARK       I    between atoms: C3_8  and  O3_10 
REMARK       I    between atoms: C1_9  and  O1_16 
REMARK       I    between atoms: S1_12  and  N_18 
REMARK       I    between atoms: S1_12  and  O1S_13 
REMARK       I    between atoms: S1_12  and  O2S_15 
REMARK       I    between atoms: S1_12  and  O3S_26 
REMARK       I    between atoms: O2_24  and  C2_31 
REMARK       I    between atoms: O2_24  and  S_34 
REMARK       I    between atoms: C6_25  and  C5_27 
REMARK       I    between atoms: C3_32  and  O3_33 
ROOT
ATOM      1  C2  SGN d1219      22.347 -13.863  -4.419  0.00  0.00     0.081 C 
ATOM      2  O4  SGN d1219      21.288 -10.289  -4.959  0.00  0.00    -0.348 OA
ATOM      3  O6  SGN d1219      24.658 -11.044  -7.311  0.00  0.00    -0.254 OA
ATOM      4  C6  SGN d1219      23.330 -10.625  -7.075  0.00  0.00     0.067 C 
ATOM      5  C3  SGN d1219      21.648 -12.525  -4.143  0.00  0.00     0.083 C 
ATOM      6  C1  SGN d1219      22.628 -14.088  -5.911  0.00  0.00     0.147 C 
ATOM      7  O3  SGN d1219      21.734 -12.220  -2.766  0.00  0.00    -0.391 OA
ATOM      8  O4S SGN d1219      25.974  -9.341  -6.141  0.00  0.00    -0.572 OA
ATOM      9  S1  SGN d1219      22.230 -16.092  -2.967  0.00  0.00     0.156 S 
ATOM     10  O1S SGN d1219      21.263 -17.183  -2.876  0.00  0.00    -0.296 OA
ATOM     11  O5  SGN d1219      23.279 -12.954  -6.461  0.00  0.00    -0.350 OA
ATOM     12  O2S SGN d1219      22.491 -15.479  -1.665  0.00  0.00    -0.296 OA
ATOM     13  O1  SGN d1219      21.438 -14.361  -6.625  0.00  0.00    -0.369 OA
ATOM     14  N   SGN d1219      21.559 -14.961  -3.883  0.00  0.00    -0.210 NA
ATOM     15  O5S SGN d1219      25.366  -9.023  -8.443  0.00  0.00    -0.572 OA
ATOM     16  S2  SGN d1219      25.800  -9.988  -7.439  0.00  0.00     0.251 S 
ATOM     17  O3S SGN d1219      23.467 -16.521  -3.623  0.00  0.00    -0.296 OA
ATOM     18  C5  SGN d1219      22.539 -11.743  -6.404  0.00  0.00     0.091 C 
ATOM     19  O6S SGN d1219      26.996 -10.719  -7.840  0.00  0.00    -0.572 OA
ATOM     20  C4  SGN d1219      22.218 -11.356  -4.958  0.00  0.00     0.095 C 
ATOM     21  H   SGN d1219      23.295 -13.828  -3.925  0.00  0.00     0.076 H 
ATOM     22  H   SGN d1219      22.867 -10.374  -8.007  0.00  0.00     0.080 H 
ATOM     23  H   SGN d1219      23.341  -9.770  -6.433  0.00  0.00     0.080 H 
ATOM     24  H   SGN d1219      20.629 -12.645  -4.447  0.00  0.00     0.089 H 
ATOM     25  H   SGN d1219      23.268 -14.940  -6.002  0.00  0.00     0.131 H 
ATOM     26  H   SGN d1219      22.665 -12.116  -2.516  0.00  0.00     0.210 HD
ATOM     27  H   SGN d1219      20.458 -16.865  -2.438  0.00  0.00     0.231 HD
ATOM     28  H   SGN d1219      21.651 -15.208  -1.261  0.00  0.00     0.231 HD
ATOM     29  H   SGN d1219      20.838 -13.601  -6.558  0.00  0.00     0.212 HD
ATOM     30  H   SGN d1219      21.150 -15.442  -4.684  0.00  0.00     0.140 HD
ATOM     31  H   SGN d1219      23.255 -16.922  -4.481  0.00  0.00     0.231 HD
ATOM     32  H   SGN d1219      21.615 -11.891  -6.922  0.00  0.00     0.090 H 
ATOM     33  H   SGN d1219      23.136 -11.063  -4.493  0.00  0.00     0.091 H 
ATOM     34  C4  IDU d1218      19.562  -7.704  -2.741  0.00  0.00    -0.005 C 
ATOM     35  O61 IDU d1218      18.018 -10.110  -1.117  0.00  0.00    -0.646 OA
ATOM     36  O5  IDU d1218      21.056  -9.598  -2.653  0.00  0.00    -0.343 OA
ATOM     37  C1  IDU d1218      21.661  -9.348  -3.932  0.00  0.00     0.161 C 
ATOM     38  O62 IDU d1218      19.905  -9.398  -0.181  0.00  0.00    -0.646 OA
ATOM     39  O1S IDU d1218      24.991  -6.436  -4.214  0.00  0.00    -0.572 OA
ATOM     40  O3S IDU d1218      23.860  -7.418  -6.099  0.00  0.00    -0.572 OA
ATOM     41  O2  IDU d1218      22.549  -7.114  -3.928  0.00  0.00    -0.244 OA
ATOM     42  C6  IDU d1218      19.168  -9.600  -1.189  0.00  0.00     0.203 C 
ATOM     43  C5  IDU d1218      19.684  -9.215  -2.546  0.00  0.00     0.127 C 
ATOM     44  C2  IDU d1218      21.483  -7.910  -4.440  0.00  0.00     0.132 C 
ATOM     45  C3  IDU d1218      20.140  -7.254  -4.085  0.00  0.00     0.069 C 
ATOM     46  O3  IDU d1218      19.188  -7.511  -5.125  0.00  0.00    -0.393 OA
ATOM     47  S   IDU d1218      23.698  -6.525  -4.931  0.00  0.00     0.252 S 
ATOM     48  O2S IDU d1218      23.281  -5.182  -5.392  0.00  0.00    -0.572 OA
ATOM     49  H   IDU d1218      18.529  -7.432  -2.700  0.00  0.00     0.041 H 
ATOM     50  H   IDU d1218      20.119  -7.224  -1.963  0.00  0.00     0.041 H 
ATOM     51  H   IDU d1218      22.703  -9.492  -3.733  0.00  0.00     0.133 H 
ATOM     52  H   IDU d1218      19.108  -9.714  -3.297  0.00  0.00     0.100 H 
ATOM     53  H   IDU d1218      21.494  -7.966  -5.509  0.00  0.00     0.097 H 
ATOM     54  H   IDU d1218      20.334  -6.207  -3.994  0.00  0.00     0.087 H 
ATOM     55  H   IDU d1218      19.028  -8.465  -5.189  0.00  0.00     0.210 HD
ENDROOT
TORSDOF 16
ENDMDL
MODEL 21
REMARK VINA RESULT:      -6.0      2.676      6.787
REMARK  0 active torsions:
REMARK  status: ('A' for Active; 'I' for Inactive)
REMARK       I    between atoms: C2_1  and  N_18 
REMARK       I    between atoms: O4_5  and  C1_17 
REMARK       I    between atoms: O4_5  and  C4_30 
REMARK       I    between atoms: O6_6  and  C6_7 
REMARK       I    between atoms: O6_6  and  S2_22 
REMARK       I    between atoms: C6_7  and  C5_28 
REMARK       I    between atoms: C3_8  and  O3_10 
REMARK       I    between atoms: C1_9  and  O1_16 
REMARK       I    between atoms: S1_12  and  N_18 
REMARK       I    between atoms: S1_12  and  O1S_13 
REMARK       I    between atoms: S1_12  and  O2S_15 
REMARK       I    between atoms: S1_12  and  O3S_26 
REMARK       I    between atoms: O2_24  and  C2_31 
REMARK       I    between atoms: O2_24  and  S_34 
REMARK       I    between atoms: C6_25  and  C5_27 
REMARK       I    between atoms: C3_32  and  O3_33 
ROOT
ATOM      1  C2  SGN d1219      20.612  -9.892  -3.352  0.00  0.00     0.081 C 
ATOM      2  O4  SGN d1219      19.231 -12.718  -1.281  0.00  0.00    -0.348 OA
ATOM      3  O6  SGN d1219      21.262 -14.341  -4.553  0.00  0.00    -0.254 OA
ATOM      4  C6  SGN d1219      20.973 -14.175  -3.180  0.00  0.00     0.067 C 
ATOM      5  C3  SGN d1219      19.727 -10.605  -2.321  0.00  0.00     0.083 C 
ATOM      6  C1  SGN d1219      21.950 -10.609  -3.580  0.00  0.00     0.147 C 
ATOM      7  O3  SGN d1219      18.405 -10.116  -2.413  0.00  0.00    -0.391 OA
ATOM      8  O4S SGN d1219      19.230 -15.409  -5.406  0.00  0.00    -0.572 OA
ATOM      9  S1  SGN d1219      20.622  -7.304  -3.980  0.00  0.00     0.156 S 
ATOM     10  O1S SGN d1219      21.235  -6.125  -3.374  0.00  0.00    -0.296 OA
ATOM     11  O5  SGN d1219      21.728 -11.985  -3.841  0.00  0.00    -0.350 OA
ATOM     12  O2S SGN d1219      19.177  -7.148  -4.146  0.00  0.00    -0.296 OA
ATOM     13  O1  SGN d1219      22.814 -10.454  -2.471  0.00  0.00    -0.369 OA
ATOM     14  N   SGN d1219      20.840  -8.514  -2.951  0.00  0.00    -0.210 NA
ATOM     15  O5S SGN d1219      21.039 -16.752  -4.572  0.00  0.00    -0.572 OA
ATOM     16  S2  SGN d1219      20.681 -15.561  -5.333  0.00  0.00     0.251 S 
ATOM     17  O3S SGN d1219      21.277  -7.666  -5.238  0.00  0.00    -0.296 OA
ATOM     18  C5  SGN d1219      21.099 -12.707  -2.791  0.00  0.00     0.091 C 
ATOM     19  O6S SGN d1219      21.291 -15.533  -6.657  0.00  0.00    -0.572 OA
ATOM     20  C4  SGN d1219      19.714 -12.132  -2.475  0.00  0.00     0.095 C 
ATOM     21  H   SGN d1219      20.085  -9.912  -4.284  0.00  0.00     0.076 H 
ATOM     22  H   SGN d1219      21.660 -14.755  -2.601  0.00  0.00     0.080 H 
ATOM     23  H   SGN d1219      19.971 -14.503  -2.991  0.00  0.00     0.080 H 
ATOM     24  H   SGN d1219      20.148 -10.395  -1.360  0.00  0.00     0.089 H 
ATOM     25  H   SGN d1219      22.424 -10.162  -4.429  0.00  0.00     0.131 H 
ATOM     26  H   SGN d1219      18.045 -10.319  -3.291  0.00  0.00     0.210 HD
ATOM     27  H   SGN d1219      20.778  -5.914  -2.544  0.00  0.00     0.231 HD
ATOM     28  H   SGN d1219      18.778  -6.909  -3.294  0.00  0.00     0.231 HD
ATOM     29  H   SGN d1219      22.406 -10.852  -1.686  0.00  0.00     0.212 HD
ATOM     30  H   SGN d1219      21.811  -8.459  -2.641  0.00  0.00     0.140 HD
ATOM     31  H   SGN d1219      22.231  -7.760  -5.090  0.00  0.00     0.231 HD
ATOM     32  H   SGN d1219      21.704 -12.617  -1.913  0.00  0.00     0.090 H 
ATOM     33  H   SGN d1219      19.076 -12.362  -3.301  0.00  0.00     0.091 H 
ATOM     34  C4  IDU d1218      16.153 -13.070   0.951  0.00  0.00    -0.005 C 
ATOM     35  O61 IDU d1218      16.259  -9.853   1.625  0.00  0.00    -0.646 OA
ATOM     36  O5  IDU d1218      16.956 -11.939  -1.024  0.00  0.00    -0.343 OA
ATOM     37  C1  IDU d1218      17.826 -13.003  -1.441  0.00  0.00     0.161 C 
ATOM     38  O62 IDU d1218      14.902 -10.425  -0.040  0.00  0.00    -0.646 OA
ATOM     39  O1S IDU d1218      16.146 -16.379  -3.771  0.00  0.00    -0.572 OA
ATOM     40  O3S IDU d1218      18.365 -16.322  -2.839  0.00  0.00    -0.572 OA
ATOM     41  O2  IDU d1218      16.521 -15.011  -1.652  0.00  0.00    -0.244 OA
ATOM     42  C6  IDU d1218      15.927 -10.614   0.677  0.00  0.00     0.203 C 
ATOM     43  C5  IDU d1218      16.798 -11.803   0.389  0.00  0.00     0.127 C 
ATOM     44  C2  IDU d1218      17.488 -14.368  -0.824  0.00  0.00     0.132 C 
ATOM     45  C3  IDU d1218      16.972 -14.321   0.622  0.00  0.00     0.069 C 
ATOM     46  O3  IDU d1218      18.074 -14.424   1.532  0.00  0.00    -0.393 OA
ATOM     47  S   IDU d1218      16.923 -16.343  -2.511  0.00  0.00     0.252 S 
ATOM     48  O2S IDU d1218      16.621 -17.541  -1.697  0.00  0.00    -0.572 OA
ATOM     49  H   IDU d1218      16.075 -12.976   2.014  0.00  0.00     0.041 H 
ATOM     50  H   IDU d1218      15.187 -13.178   0.501  0.00  0.00     0.041 H 
ATOM     51  H   IDU d1218      17.633 -13.068  -2.492  0.00  0.00     0.133 H 
ATOM     52  H   IDU d1218      17.753 -11.661   0.850  0.00  0.00     0.100 H 
ATOM     53  H   IDU d1218      18.409 -14.912  -0.776  0.00  0.00     0.097 H 
ATOM     54  H   IDU d1218      16.308 -15.152   0.729  0.00  0.00     0.087 H 
ATOM     55  H   IDU d1218      18.661 -13.661   1.416  0.00  0.00     0.210 HD
ENDROOT
TORSDOF 16
ENDMDL
MODEL 22
REMARK VINA RESULT:      -6.0      2.771      6.235
REMARK  0 active torsions:
REMARK  status: ('A' for Active; 'I' for Inactive)
REMARK       I    between atoms: C2_1  and  N_18 
REMARK       I    between atoms: O4_5  and  C1_17 
REMARK       I    between atoms: O4_5  and  C4_30 
REMARK       I    between atoms: O6_6  and  C6_7 
REMARK       I    between atoms: O6_6  and  S2_22 
REMARK       I    between atoms: C6_7  and  C5_28 
REMARK       I    between atoms: C3_8  and  O3_10 
REMARK       I    between atoms: C1_9  and  O1_16 
REMARK       I    between atoms: S1_12  and  N_18 
REMARK       I    between atoms: S1_12  and  O1S_13 
REMARK       I    between atoms: S1_12  and  O2S_15 
REMARK       I    between atoms: S1_12  and  O3S_26 
REMARK       I    between atoms: O2_24  and  C2_31 
REMARK       I    between atoms: O2_24  and  S_34 
REMARK       I    between atoms: C6_25  and  C5_27 
REMARK       I    between atoms: C3_32  and  O3_33 
ROOT
ATOM      1  C2  SGN d1219      22.999 -13.382  -6.446  0.00  0.00     0.081 C 
ATOM      2  O4  SGN d1219      23.164 -10.508  -4.018  0.00  0.00    -0.348 OA
ATOM      3  O6  SGN d1219      20.000 -13.003  -2.908  0.00  0.00    -0.254 OA
ATOM      4  C6  SGN d1219      21.198 -12.284  -2.697  0.00  0.00     0.067 C 
ATOM      5  C3  SGN d1219      23.369 -11.997  -5.897  0.00  0.00     0.083 C 
ATOM      6  C1  SGN d1219      22.735 -14.408  -5.335  0.00  0.00     0.147 C 
ATOM      7  O3  SGN d1219      23.254 -11.034  -6.925  0.00  0.00    -0.391 OA
ATOM      8  O4S SGN d1219      18.354 -11.219  -3.235  0.00  0.00    -0.572 OA
ATOM      9  S1  SGN d1219      23.684 -14.441  -8.791  0.00  0.00     0.156 S 
ATOM     10  O1S SGN d1219      24.884 -15.117  -9.277  0.00  0.00    -0.296 OA
ATOM     11  O5  SGN d1219      21.817 -13.880  -4.392  0.00  0.00    -0.350 OA
ATOM     12  O2S SGN d1219      23.324 -13.294  -9.625  0.00  0.00    -0.296 OA
ATOM     13  O1  SGN d1219      23.935 -14.790  -4.690  0.00  0.00    -0.369 OA
ATOM     14  N   SGN d1219      24.040 -13.862  -7.339  0.00  0.00    -0.210 NA
ATOM     15  O5S SGN d1219      18.801 -12.057  -1.029  0.00  0.00    -0.572 OA
ATOM     16  S2  SGN d1219      18.638 -12.407  -2.435  0.00  0.00     0.251 S 
ATOM     17  O3S SGN d1219      22.566 -15.373  -8.637  0.00  0.00    -0.296 OA
ATOM     18  C5  SGN d1219      22.251 -12.709  -3.715  0.00  0.00     0.091 C 
ATOM     19  O6S SGN d1219      17.638 -13.448  -2.644  0.00  0.00    -0.572 OA
ATOM     20  C4  SGN d1219      22.514 -11.564  -4.698  0.00  0.00     0.095 C 
ATOM     21  H   SGN d1219      22.084 -13.268  -6.990  0.00  0.00     0.076 H 
ATOM     22  H   SGN d1219      21.561 -12.481  -1.710  0.00  0.00     0.080 H 
ATOM     23  H   SGN d1219      21.004 -11.237  -2.810  0.00  0.00     0.080 H 
ATOM     24  H   SGN d1219      24.378 -12.067  -5.548  0.00  0.00     0.089 H 
ATOM     25  H   SGN d1219      22.313 -15.282  -5.786  0.00  0.00     0.131 H 
ATOM     26  H   SGN d1219      22.333 -10.989  -7.224  0.00  0.00     0.210 HD
ATOM     27  H   SGN d1219      25.604 -14.473  -9.367  0.00  0.00     0.231 HD
ATOM     28  H   SGN d1219      24.087 -12.700  -9.705  0.00  0.00     0.231 HD
ATOM     29  H   SGN d1219      24.339 -14.013  -4.272  0.00  0.00     0.212 HD
ATOM     30  H   SGN d1219      24.528 -14.608  -6.842  0.00  0.00     0.140 HD
ATOM     31  H   SGN d1219      22.841 -16.118  -8.080  0.00  0.00     0.231 HD
ATOM     32  H   SGN d1219      23.168 -12.932  -3.213  0.00  0.00     0.090 H 
ATOM     33  H   SGN d1219      21.567 -11.248  -5.082  0.00  0.00     0.091 H 
ATOM     34  C4  IDU d1218      24.292  -6.874  -4.332  0.00  0.00    -0.005 C 
ATOM     35  O61 IDU d1218      26.410  -7.723  -6.699  0.00  0.00    -0.646 OA
ATOM     36  O5  IDU d1218      23.293  -8.675  -5.590  0.00  0.00    -0.343 OA
ATOM     37  C1  IDU d1218      22.609  -9.256  -4.468  0.00  0.00     0.161 C 
ATOM     38  O62 IDU d1218      24.438  -6.991  -7.415  0.00  0.00    -0.646 OA
ATOM     39  O1S IDU d1218      18.677  -7.611  -3.251  0.00  0.00    -0.572 OA
ATOM     40  O3S IDU d1218      19.952  -9.209  -1.979  0.00  0.00    -0.572 OA
ATOM     41  O2  IDU d1218      21.217  -7.567  -3.472  0.00  0.00    -0.244 OA
ATOM     42  C6  IDU d1218      25.171  -7.552  -6.551  0.00  0.00     0.203 C 
ATOM     43  C5  IDU d1218      24.539  -8.046  -5.282  0.00  0.00     0.127 C 
ATOM     44  C2  IDU d1218      22.426  -8.299  -3.281  0.00  0.00     0.132 C 
ATOM     45  C3  IDU d1218      23.585  -7.318  -3.049  0.00  0.00     0.069 C 
ATOM     46  O3  IDU d1218      24.540  -7.902  -2.154  0.00  0.00    -0.393 OA
ATOM     47  S   IDU d1218      19.932  -7.823  -2.493  0.00  0.00     0.252 S 
ATOM     48  O2S IDU d1218      20.005  -6.875  -1.359  0.00  0.00    -0.572 OA
ATOM     49  H   IDU d1218      25.233  -6.434  -4.074  0.00  0.00     0.041 H 
ATOM     50  H   IDU d1218      23.661  -6.169  -4.832  0.00  0.00     0.041 H 
ATOM     51  H   IDU d1218      21.638  -9.464  -4.866  0.00  0.00     0.133 H 
ATOM     52  H   IDU d1218      25.194  -8.749  -4.810  0.00  0.00     0.100 H 
ATOM     53  H   IDU d1218      22.397  -8.911  -2.403  0.00  0.00     0.097 H 
ATOM     54  H   IDU d1218      23.151  -6.438  -2.624  0.00  0.00     0.087 H 
ATOM     55  H   IDU d1218      24.919  -8.697  -2.559  0.00  0.00     0.210 HD
ENDROOT
TORSDOF 16
ENDMDL
MODEL 23
REMARK VINA RESULT:      -6.0      2.672      6.089
REMARK  0 active torsions:
REMARK  status: ('A' for Active; 'I' for Inactive)
REMARK       I    between atoms: C2_1  and  N_18 
REMARK       I    between atoms: O4_5  and  C1_17 
REMARK       I    between atoms: O4_5  and  C4_30 
REMARK       I    between atoms: O6_6  and  C6_7 
REMARK       I    between atoms: O6_6  and  S2_22 
REMARK       I    between atoms: C6_7  and  C5_28 
REMARK       I    between atoms: C3_8  and  O3_10 
REMARK       I    between atoms: C1_9  and  O1_16 
REMARK       I    between atoms: S1_12  and  N_18 
REMARK       I    between atoms: S1_12  and  O1S_13 
REMARK       I    between atoms: S1_12  and  O2S_15 
REMARK       I    between atoms: S1_12  and  O3S_26 
REMARK       I    between atoms: O2_24  and  C2_31 
REMARK       I    between atoms: O2_24  and  S_34 
REMARK       I    between atoms: C6_25  and  C5_27 
REMARK       I    between atoms: C3_32  and  O3_33 
ROOT
ATOM      1  C2  SGN d1219      23.088 -12.911  -6.533  0.00  0.00     0.081 C 
ATOM      2  O4  SGN d1219      22.295 -10.659  -3.621  0.00  0.00    -0.348 OA
ATOM      3  O6  SGN d1219      20.206 -14.246  -3.131  0.00  0.00    -0.254 OA
ATOM      4  C6  SGN d1219      21.086 -13.213  -2.737  0.00  0.00     0.067 C 
ATOM      5  C3  SGN d1219      22.967 -11.612  -5.726  0.00  0.00     0.083 C 
ATOM      6  C1  SGN d1219      23.214 -14.153  -5.640  0.00  0.00     0.147 C 
ATOM      7  O3  SGN d1219      22.508 -10.573  -6.567  0.00  0.00    -0.391 OA
ATOM      8  O4S SGN d1219      18.040 -13.106  -3.209  0.00  0.00    -0.572 OA
ATOM      9  S1  SGN d1219      24.054 -13.217  -8.996  0.00  0.00     0.156 S 
ATOM     10  O1S SGN d1219      25.404 -13.338  -9.538  0.00  0.00    -0.296 OA
ATOM     11  O5  SGN d1219      22.187 -14.156  -4.661  0.00  0.00    -0.350 OA
ATOM     12  O2S SGN d1219      23.305 -12.129  -9.625  0.00  0.00    -0.296 OA
ATOM     13  O1  SGN d1219      24.483 -14.215  -5.018  0.00  0.00    -0.369 OA
ATOM     14  N   SGN d1219      24.215 -12.831  -7.448  0.00  0.00    -0.210 NA
ATOM     15  O5S SGN d1219      18.788 -14.135  -1.172  0.00  0.00    -0.572 OA
ATOM     16  S2  SGN d1219      18.730 -14.251  -2.624  0.00  0.00     0.251 S 
ATOM     17  O3S SGN d1219      23.328 -14.487  -9.066  0.00  0.00    -0.296 OA
ATOM     18  C5  SGN d1219      22.202 -13.055  -3.764  0.00  0.00     0.091 C 
ATOM     19  O6S SGN d1219      18.147 -15.513  -3.066  0.00  0.00    -0.572 OA
ATOM     20  C4  SGN d1219      22.037 -11.728  -4.511  0.00  0.00     0.095 C 
ATOM     21  H   SGN d1219      22.180 -13.019  -7.090  0.00  0.00     0.076 H 
ATOM     22  H   SGN d1219      21.512 -13.455  -1.786  0.00  0.00     0.080 H 
ATOM     23  H   SGN d1219      20.541 -12.295  -2.669  0.00  0.00     0.080 H 
ATOM     24  H   SGN d1219      23.944 -11.396  -5.347  0.00  0.00     0.089 H 
ATOM     25  H   SGN d1219      23.111 -15.019  -6.261  0.00  0.00     0.131 H 
ATOM     26  H   SGN d1219      21.623 -10.791  -6.897  0.00  0.00     0.210 HD
ATOM     27  H   SGN d1219      25.856 -12.482  -9.476  0.00  0.00     0.231 HD
ATOM     28  H   SGN d1219      23.815 -11.306  -9.559  0.00  0.00     0.231 HD
ATOM     29  H   SGN d1219      24.602 -13.439  -4.448  0.00  0.00     0.212 HD
ATOM     30  H   SGN d1219      24.938 -13.444  -7.071  0.00  0.00     0.140 HD
ATOM     31  H   SGN d1219      23.854 -15.182  -8.640  0.00  0.00     0.231 HD
ATOM     32  H   SGN d1219      23.150 -13.041  -3.267  0.00  0.00     0.090 H 
ATOM     33  H   SGN d1219      21.032 -11.689  -4.876  0.00  0.00     0.091 H 
ATOM     34  C4  IDU d1218      22.095  -6.868  -3.219  0.00  0.00    -0.005 C 
ATOM     35  O61 IDU d1218      24.333  -6.485  -5.597  0.00  0.00    -0.646 OA
ATOM     36  O5  IDU d1218      21.756  -8.634  -4.828  0.00  0.00    -0.343 OA
ATOM     37  C1  IDU d1218      21.334  -9.612  -3.863  0.00  0.00     0.161 C 
ATOM     38  O62 IDU d1218      22.216  -6.352  -6.262  0.00  0.00    -0.646 OA
ATOM     39  O1S IDU d1218      17.098  -9.668  -2.558  0.00  0.00    -0.572 OA
ATOM     40  O3S IDU d1218      18.869 -10.941  -1.536  0.00  0.00    -0.572 OA
ATOM     41  O2  IDU d1218      19.463  -8.718  -2.646  0.00  0.00    -0.244 OA
ATOM     42  C6  IDU d1218      23.114  -6.779  -5.480  0.00  0.00     0.203 C 
ATOM     43  C5  IDU d1218      22.713  -7.686  -4.352  0.00  0.00     0.127 C 
ATOM     44  C2  IDU d1218      20.854  -9.014  -2.533  0.00  0.00     0.132 C 
ATOM     45  C3  IDU d1218      21.607  -7.757  -2.073  0.00  0.00     0.069 C 
ATOM     46  O3  IDU d1218      22.721  -8.135  -1.253  0.00  0.00    -0.393 OA
ATOM     47  S   IDU d1218      18.363  -9.575  -1.792  0.00  0.00     0.252 S 
ATOM     48  O2S IDU d1218      18.124  -8.888  -0.503  0.00  0.00    -0.572 OA
ATOM     49  H   IDU d1218      22.830  -6.189  -2.842  0.00  0.00     0.041 H 
ATOM     50  H   IDU d1218      21.250  -6.341  -3.613  0.00  0.00     0.041 H 
ATOM     51  H   IDU d1218      20.487 -10.062  -4.338  0.00  0.00     0.133 H 
ATOM     52  H   IDU d1218      23.578  -8.197  -3.985  0.00  0.00     0.100 H 
ATOM     53  H   IDU d1218      21.053  -9.751  -1.783  0.00  0.00     0.097 H 
ATOM     54  H   IDU d1218      20.903  -7.174  -1.517  0.00  0.00     0.087 H 
ATOM     55  H   IDU d1218      23.343  -8.662  -1.777  0.00  0.00     0.210 HD
ENDROOT
TORSDOF 16
ENDMDL
MODEL 24
REMARK VINA RESULT:      -6.0      3.265      8.862
REMARK  0 active torsions:
REMARK  status: ('A' for Active; 'I' for Inactive)
REMARK       I    between atoms: C2_1  and  N_18 
REMARK       I    between atoms: O4_5  and  C1_17 
REMARK       I    between atoms: O4_5  and  C4_30 
REMARK       I    between atoms: O6_6  and  C6_7 
REMARK       I    between atoms: O6_6  and  S2_22 
REMARK       I    between atoms: C6_7  and  C5_28 
REMARK       I    between atoms: C3_8  and  O3_10 
REMARK       I    between atoms: C1_9  and  O1_16 
REMARK       I    between atoms: S1_12  and  N_18 
REMARK       I    between atoms: S1_12  and  O1S_13 
REMARK       I    between atoms: S1_12  and  O2S_15 
REMARK       I    between atoms: S1_12  and  O3S_26 
REMARK       I    between atoms: O2_24  and  C2_31 
REMARK       I    between atoms: O2_24  and  S_34 
REMARK       I    between atoms: C6_25  and  C5_27 
REMARK       I    between atoms: C3_32  and  O3_33 
ROOT
ATOM      1  C2  SGN d1219      21.798  -8.821  -4.778  0.00  0.00     0.081 C 
ATOM      2  O4  SGN d1219      22.542 -11.912  -6.797  0.00  0.00    -0.348 OA
ATOM      3  O6  SGN d1219      20.099 -12.985  -3.580  0.00  0.00    -0.254 OA
ATOM      4  C6  SGN d1219      20.458 -12.905  -4.944  0.00  0.00     0.067 C 
ATOM      5  C3  SGN d1219      22.521  -9.731  -5.779  0.00  0.00     0.083 C 
ATOM      6  C1  SGN d1219      20.324  -9.205  -4.586  0.00  0.00     0.147 C 
ATOM      7  O3  SGN d1219      23.918  -9.560  -5.650  0.00  0.00    -0.391 OA
ATOM      8  O4S SGN d1219      21.803 -14.486  -2.663  0.00  0.00    -0.572 OA
ATOM      9  S1  SGN d1219      22.371  -6.295  -4.160  0.00  0.00     0.156 S 
ATOM     10  O1S SGN d1219      22.066  -5.012  -4.789  0.00  0.00    -0.296 OA
ATOM     11  O5  SGN d1219      20.213 -10.593  -4.315  0.00  0.00    -0.350 OA
ATOM     12  O2S SGN d1219      23.808  -6.476  -3.953  0.00  0.00    -0.296 OA
ATOM     13  O1  SGN d1219      19.551  -8.866  -5.722  0.00  0.00    -0.369 OA
ATOM     14  N   SGN d1219      21.907  -7.431  -5.191  0.00  0.00    -0.210 NA
ATOM     15  O5S SGN d1219      19.756 -15.382  -3.545  0.00  0.00    -0.572 OA
ATOM     16  S2  SGN d1219      20.360 -14.298  -2.778  0.00  0.00     0.251 S 
ATOM     17  O3S SGN d1219      21.615  -6.481  -2.921  0.00  0.00    -0.296 OA
ATOM     18  C5  SGN d1219      20.687 -11.451  -5.342  0.00  0.00     0.091 C 
ATOM     19  O6S SGN d1219      19.736 -14.115  -1.473  0.00  0.00    -0.572 OA
ATOM     20  C4  SGN d1219      22.175 -11.217  -5.620  0.00  0.00     0.095 C 
ATOM     21  H   SGN d1219      22.280  -8.952  -3.831  0.00  0.00     0.076 H 
ATOM     22  H   SGN d1219      19.670 -13.316  -5.541  0.00  0.00     0.080 H 
ATOM     23  H   SGN d1219      21.360 -13.458  -5.102  0.00  0.00     0.080 H 
ATOM     24  H   SGN d1219      22.187  -9.438  -6.753  0.00  0.00     0.089 H 
ATOM     25  H   SGN d1219      19.943  -8.652  -3.753  0.00  0.00     0.131 H 
ATOM     26  H   SGN d1219      24.196  -9.831  -4.762  0.00  0.00     0.210 HD
ATOM     27  H   SGN d1219      22.582  -4.921  -5.605  0.00  0.00     0.231 HD
ATOM     28  H   SGN d1219      24.275  -6.345  -4.794  0.00  0.00     0.231 HD
ATOM     29  H   SGN d1219      19.876  -9.356  -6.493  0.00  0.00     0.212 HD
ATOM     30  H   SGN d1219      20.984  -7.156  -5.529  0.00  0.00     0.140 HD
ATOM     31  H   SGN d1219      20.670  -6.353  -3.097  0.00  0.00     0.231 HD
ATOM     32  H   SGN d1219      20.143 -11.233  -6.238  0.00  0.00     0.090 H 
ATOM     33  H   SGN d1219      22.719 -11.580  -4.774  0.00  0.00     0.091 H 
ATOM     34  C4  IDU d1218      25.515 -12.991  -8.936  0.00  0.00    -0.005 C 
ATOM     35  O61 IDU d1218      26.177  -9.845  -9.625  0.00  0.00    -0.646 OA
ATOM     36  O5  IDU d1218      24.942 -11.684  -6.990  0.00  0.00    -0.343 OA
ATOM     37  C1  IDU d1218      23.837 -12.513  -6.594  0.00  0.00     0.161 C 
ATOM     38  O62 IDU d1218      27.317 -10.698  -7.918  0.00  0.00    -0.646 OA
ATOM     39  O1S IDU d1218      24.622 -16.161  -4.203  0.00  0.00    -0.572 OA
ATOM     40  O3S IDU d1218      22.504 -15.601  -5.201  0.00  0.00    -0.572 OA
ATOM     41  O2  IDU d1218      24.634 -14.766  -6.338  0.00  0.00    -0.244 OA
ATOM     42  C6  IDU d1218      26.297 -10.652  -8.665  0.00  0.00     0.203 C 
ATOM     43  C5  IDU d1218      25.166 -11.603  -8.398  0.00  0.00     0.127 C 
ATOM     44  C2  IDU d1218      23.866 -13.925  -7.196  0.00  0.00     0.132 C 
ATOM     45  C3  IDU d1218      24.419 -14.014  -8.627  0.00  0.00     0.069 C 
ATOM     46  O3  IDU d1218      23.349 -13.868  -9.568  0.00  0.00    -0.393 OA
ATOM     47  S   IDU d1218      23.910 -15.960  -5.486  0.00  0.00     0.252 S 
ATOM     48  O2S IDU d1218      23.949 -17.204  -6.286  0.00  0.00    -0.572 OA
ATOM     49  H   IDU d1218      25.641 -12.929  -9.996  0.00  0.00     0.041 H 
ATOM     50  H   IDU d1218      26.416 -13.315  -8.458  0.00  0.00     0.041 H 
ATOM     51  H   IDU d1218      23.980 -12.610  -5.538  0.00  0.00     0.133 H 
ATOM     52  H   IDU d1218      24.283 -11.248  -8.887  0.00  0.00     0.100 H 
ATOM     53  H   IDU d1218      22.846 -14.241  -7.269  0.00  0.00     0.097 H 
ATOM     54  H   IDU d1218      24.874 -14.978  -8.711  0.00  0.00     0.087 H 
ATOM     55  H   IDU d1218      22.952 -12.989  -9.473  0.00  0.00     0.210 HD
ENDROOT
TORSDOF 16
ENDMDL
MODEL 25
REMARK VINA RESULT:      -6.0      2.761      6.449
REMARK  0 active torsions:
REMARK  status: ('A' for Active; 'I' for Inactive)
REMARK       I    between atoms: C2_1  and  N_18 
REMARK       I    between atoms: O4_5  and  C1_17 
REMARK       I    between atoms: O4_5  and  C4_30 
REMARK       I    between atoms: O6_6  and  C6_7 
REMARK       I    between atoms: O6_6  and  S2_22 
REMARK       I    between atoms: C6_7  and  C5_28 
REMARK       I    between atoms: C3_8  and  O3_10 
REMARK       I    between atoms: C1_9  and  O1_16 
REMARK       I    between atoms: S1_12  and  N_18 
REMARK       I    between atoms: S1_12  and  O1S_13 
REMARK       I    between atoms: S1_12  and  O2S_15 
REMARK       I    between atoms: S1_12  and  O3S_26 
REMARK       I    between atoms: O2_24  and  C2_31 
REMARK       I    between atoms: O2_24  and  S_34 
REMARK       I    between atoms: C6_25  and  C5_27 
REMARK       I    between atoms: C3_32  and  O3_33 
ROOT
ATOM      1  C2  SGN d1219      19.383  -9.644  -0.719  0.00  0.00     0.081 C 
ATOM      2  O4  SGN d1219      22.668 -10.901  -2.066  0.00  0.00    -0.348 OA
ATOM      3  O6  SGN d1219      22.238  -6.887  -3.150  0.00  0.00    -0.254 OA
ATOM      4  C6  SGN d1219      22.899  -7.992  -2.569  0.00  0.00     0.067 C 
ATOM      5  C3  SGN d1219      20.447 -10.652  -1.173  0.00  0.00     0.083 C 
ATOM      6  C1  SGN d1219      19.988  -8.305  -0.273  0.00  0.00     0.147 C 
ATOM      7  O3  SGN d1219      19.829 -11.703  -1.886  0.00  0.00    -0.391 OA
ATOM      8  O4S SGN d1219      22.287  -7.428  -5.539  0.00  0.00    -0.572 OA
ATOM      9  S1  SGN d1219      16.973 -10.159   0.290  0.00  0.00     0.156 S 
ATOM     10  O1S SGN d1219      16.497 -10.510   1.625  0.00  0.00    -0.296 OA
ATOM     11  O5  SGN d1219      20.882  -7.820  -1.263  0.00  0.00    -0.350 OA
ATOM     12  O2S SGN d1219      16.556 -11.135  -0.717  0.00  0.00    -0.296 OA
ATOM     13  O1  SGN d1219      20.654  -8.428   0.969  0.00  0.00    -0.369 OA
ATOM     14  N   SGN d1219      18.575 -10.211   0.347  0.00  0.00    -0.210 NA
ATOM     15  O5S SGN d1219      24.089  -6.188  -4.546  0.00  0.00    -0.572 OA
ATOM     16  S2  SGN d1219      22.646  -6.393  -4.573  0.00  0.00     0.251 S 
ATOM     17  O3S SGN d1219      16.585  -8.797  -0.081  0.00  0.00    -0.296 OA
ATOM     18  C5  SGN d1219      21.998  -8.656  -1.533  0.00  0.00     0.091 C 
ATOM     19  O6S SGN d1219      21.906  -5.159  -4.809  0.00  0.00    -0.572 OA
ATOM     20  C4  SGN d1219      21.551 -10.032  -2.039  0.00  0.00     0.095 C 
ATOM     21  H   SGN d1219      18.765  -9.439  -1.568  0.00  0.00     0.076 H 
ATOM     22  H   SGN d1219      23.797  -7.657  -2.093  0.00  0.00     0.080 H 
ATOM     23  H   SGN d1219      23.135  -8.702  -3.334  0.00  0.00     0.080 H 
ATOM     24  H   SGN d1219      20.920 -11.017  -0.284  0.00  0.00     0.089 H 
ATOM     25  H   SGN d1219      19.188  -7.606  -0.149  0.00  0.00     0.131 H 
ATOM     26  H   SGN d1219      19.409 -11.349  -2.685  0.00  0.00     0.210 HD
ATOM     27  H   SGN d1219      16.771 -11.416   1.838  0.00  0.00     0.231 HD
ATOM     28  H   SGN d1219      16.830 -12.024  -0.438  0.00  0.00     0.231 HD
ATOM     29  H   SGN d1219      21.386  -9.059   0.882  0.00  0.00     0.212 HD
ATOM     30  H   SGN d1219      18.849  -9.733   1.205  0.00  0.00     0.140 HD
ATOM     31  H   SGN d1219      16.878  -8.179   0.608  0.00  0.00     0.231 HD
ATOM     32  H   SGN d1219      22.539  -8.797  -0.622  0.00  0.00     0.090 H 
ATOM     33  H   SGN d1219      21.147  -9.896  -3.019  0.00  0.00     0.091 H 
ATOM     34  C4  IDU d1218      23.878 -14.325  -3.245  0.00  0.00    -0.005 C 
ATOM     35  O61 IDU d1218      21.775 -15.790  -1.186  0.00  0.00    -0.646 OA
ATOM     36  O5  IDU d1218      21.905 -12.942  -3.115  0.00  0.00    -0.343 OA
ATOM     37  C1  IDU d1218      22.606 -11.696  -3.267  0.00  0.00     0.161 C 
ATOM     38  O62 IDU d1218      21.035 -15.529  -3.266  0.00  0.00    -0.646 OA
ATOM     39  O1S IDU d1218      23.621 -10.274  -7.340  0.00  0.00    -0.572 OA
ATOM     40  O3S IDU d1218      24.439  -9.295  -5.298  0.00  0.00    -0.572 OA
ATOM     41  O2  IDU d1218      23.879 -11.788  -5.304  0.00  0.00    -0.244 OA
ATOM     42  C6  IDU d1218      21.755 -15.178  -2.287  0.00  0.00     0.203 C 
ATOM     43  C5  IDU d1218      22.631 -13.968  -2.436  0.00  0.00     0.127 C 
ATOM     44  C2  IDU d1218      24.005 -11.836  -3.884  0.00  0.00     0.132 C 
ATOM     45  C3  IDU d1218      24.772 -13.105  -3.482  0.00  0.00     0.069 C 
ATOM     46  O3  IDU d1218      25.552 -12.846  -2.308  0.00  0.00    -0.393 OA
ATOM     47  S   IDU d1218      24.460 -10.509  -6.142  0.00  0.00     0.252 S 
ATOM     48  O2S IDU d1218      25.852 -10.803  -6.550  0.00  0.00    -0.572 OA
ATOM     49  H   IDU d1218      24.437 -15.064  -2.710  0.00  0.00     0.041 H 
ATOM     50  H   IDU d1218      23.561 -14.695  -4.198  0.00  0.00     0.041 H 
ATOM     51  H   IDU d1218      21.996 -11.166  -3.968  0.00  0.00     0.133 H 
ATOM     52  H   IDU d1218      22.927 -13.624  -1.467  0.00  0.00     0.100 H 
ATOM     53  H   IDU d1218      24.585 -11.023  -3.499  0.00  0.00     0.097 H 
ATOM     54  H   IDU d1218      25.400 -13.349  -4.313  0.00  0.00     0.087 H 
ATOM     55  H   IDU d1218      24.962 -12.627  -1.571  0.00  0.00     0.210 HD
ENDROOT
TORSDOF 16
ENDMDL
MODEL 26
REMARK VINA RESULT:      -6.0      2.167      2.577
REMARK  0 active torsions:
REMARK  status: ('A' for Active; 'I' for Inactive)
REMARK       I    between atoms: C2_1  and  N_18 
REMARK       I    between atoms: O4_5  and  C1_17 
REMARK       I    between atoms: O4_5  and  C4_30 
REMARK       I    between atoms: O6_6  and  C6_7 
REMARK       I    between atoms: O6_6  and  S2_22 
REMARK       I    between atoms: C6_7  and  C5_28 
REMARK       I    between atoms: C3_8  and  O3_10 
REMARK       I    between atoms: C1_9  and  O1_16 
REMARK       I    between atoms: S1_12  and  N_18 
REMARK       I    between atoms: S1_12  and  O1S_13 
REMARK       I    between atoms: S1_12  and  O2S_15 
REMARK       I    between atoms: S1_12  and  O3S_26 
REMARK       I    between atoms: O2_24  and  C2_31 
REMARK       I    between atoms: O2_24  and  S_34 
REMARK       I    between atoms: C6_25  and  C5_27 
REMARK       I    between atoms: C3_32  and  O3_33 
ROOT
ATOM      1  C2  SGN d1219      22.838 -13.109  -6.253  0.00  0.00     0.081 C 
ATOM      2  O4  SGN d1219      20.848 -10.509  -4.393  0.00  0.00    -0.348 OA
ATOM      3  O6  SGN d1219      24.663  -8.975  -5.142  0.00  0.00    -0.254 OA
ATOM      4  C6  SGN d1219      23.251  -8.965  -5.174  0.00  0.00     0.067 C 
ATOM      5  C3  SGN d1219      21.722 -12.523  -5.378  0.00  0.00     0.083 C 
ATOM      6  C1  SGN d1219      23.448 -12.073  -7.208  0.00  0.00     0.147 C 
ATOM      7  O3  SGN d1219      21.452 -13.401  -4.304  0.00  0.00    -0.391 OA
ATOM      8  O4S SGN d1219      25.147  -8.754  -2.751  0.00  0.00    -0.572 OA
ATOM      9  S1  SGN d1219      23.147 -15.640  -7.022  0.00  0.00     0.156 S 
ATOM     10  O1S SGN d1219      22.565 -16.443  -8.094  0.00  0.00    -0.296 OA
ATOM     11  O5  SGN d1219      23.808 -10.903  -6.493  0.00  0.00    -0.350 OA
ATOM     12  O2S SGN d1219      22.959 -16.257  -5.709  0.00  0.00    -0.296 OA
ATOM     13  O1  SGN d1219      22.554 -11.750  -8.256  0.00  0.00    -0.369 OA
ATOM     14  N   SGN d1219      22.342 -14.253  -7.000  0.00  0.00    -0.210 NA
ATOM     15  O5S SGN d1219      24.910  -6.794  -4.119  0.00  0.00    -0.572 OA
ATOM     16  S2  SGN d1219      25.426  -8.156  -4.054  0.00  0.00     0.251 S 
ATOM     17  O3S SGN d1219      24.555 -15.334  -7.282  0.00  0.00    -0.296 OA
ATOM     18  C5  SGN d1219      22.733 -10.228  -5.855  0.00  0.00     0.091 C 
ATOM     19  O6S SGN d1219      26.841  -8.240  -4.392  0.00  0.00    -0.572 OA
ATOM     20  C4  SGN d1219      22.045 -11.128  -4.825  0.00  0.00     0.095 C 
ATOM     21  H   SGN d1219      23.621 -13.423  -5.593  0.00  0.00     0.076 H 
ATOM     22  H   SGN d1219      22.915  -8.107  -5.717  0.00  0.00     0.080 H 
ATOM     23  H   SGN d1219      22.877  -8.930  -4.172  0.00  0.00     0.080 H 
ATOM     24  H   SGN d1219      20.865 -12.414  -6.010  0.00  0.00     0.089 H 
ATOM     25  H   SGN d1219      24.325 -12.503  -7.646  0.00  0.00     0.131 H 
ATOM     26  H   SGN d1219      22.242 -13.482  -3.747  0.00  0.00     0.210 HD
ATOM     27  H   SGN d1219      21.634 -16.627  -7.891  0.00  0.00     0.231 HD
ATOM     28  H   SGN d1219      22.017 -16.445  -5.573  0.00  0.00     0.231 HD
ATOM     29  H   SGN d1219      21.748 -11.358  -7.886  0.00  0.00     0.212 HD
ATOM     30  H   SGN d1219      22.259 -13.952  -7.971  0.00  0.00     0.140 HD
ATOM     31  H   SGN d1219      24.641 -14.927  -8.159  0.00  0.00     0.231 HD
ATOM     32  H   SGN d1219      22.013  -9.965  -6.601  0.00  0.00     0.090 H 
ATOM     33  H   SGN d1219      22.724 -11.260  -4.010  0.00  0.00     0.091 H 
ATOM     34  C4  IDU d1218      18.028 -10.709  -1.826  0.00  0.00    -0.005 C 
ATOM     35  O61 IDU d1218      17.028 -13.557  -3.128  0.00  0.00    -0.646 OA
ATOM     36  O5  IDU d1218      19.990 -11.884  -2.598  0.00  0.00    -0.343 OA
ATOM     37  C1  IDU d1218      20.715 -10.700  -2.970  0.00  0.00     0.161 C 
ATOM     38  O62 IDU d1218      18.394 -13.743  -1.385  0.00  0.00    -0.646 OA
ATOM     39  O1S IDU d1218      22.975  -8.488   0.136  0.00  0.00    -0.572 OA
ATOM     40  O3S IDU d1218      22.574  -7.692  -2.101  0.00  0.00    -0.572 OA
ATOM     41  O2  IDU d1218      20.853  -9.261  -1.049  0.00  0.00    -0.244 OA
ATOM     42  C6  IDU d1218      17.956 -13.122  -2.396  0.00  0.00     0.203 C 
ATOM     43  C5  IDU d1218      18.572 -11.799  -2.749  0.00  0.00     0.127 C 
ATOM     44  C2  IDU d1218      20.199  -9.414  -2.307  0.00  0.00     0.132 C 
ATOM     45  C3  IDU d1218      18.678  -9.350  -2.104  0.00  0.00     0.069 C 
ATOM     46  O3  IDU d1218      18.063  -8.750  -3.250  0.00  0.00    -0.393 OA
ATOM     47  S   IDU d1218      21.930  -8.052  -0.819  0.00  0.00     0.252 S 
ATOM     48  O2S IDU d1218      21.212  -6.875  -0.281  0.00  0.00    -0.572 OA
ATOM     49  H   IDU d1218      16.972 -10.624  -1.975  0.00  0.00     0.041 H 
ATOM     50  H   IDU d1218      18.255 -10.985  -0.817  0.00  0.00     0.041 H 
ATOM     51  H   IDU d1218      21.694 -10.892  -2.582  0.00  0.00     0.133 H 
ATOM     52  H   IDU d1218      18.328 -11.555  -3.762  0.00  0.00     0.100 H 
ATOM     53  H   IDU d1218      20.426  -8.616  -2.984  0.00  0.00     0.097 H 
ATOM     54  H   IDU d1218      18.520  -8.756  -1.229  0.00  0.00     0.087 H 
ATOM     55  H   IDU d1218      18.220  -9.305  -4.029  0.00  0.00     0.210 HD
ENDROOT
TORSDOF 16
ENDMDL
MODEL 27
REMARK VINA RESULT:      -6.0      3.000      8.256
REMARK  0 active torsions:
REMARK  status: ('A' for Active; 'I' for Inactive)
REMARK       I    between atoms: C2_1  and  N_18 
REMARK       I    between atoms: O4_5  and  C1_17 
REMARK       I    between atoms: O4_5  and  C4_30 
REMARK       I    between atoms: O6_6  and  C6_7 
REMARK       I    between atoms: O6_6  and  S2_22 
REMARK       I    between atoms: C6_7  and  C5_28 
REMARK       I    between atoms: C3_8  and  O3_10 
REMARK       I    between atoms: C1_9  and  O1_16 
REMARK       I    between atoms: S1_12  and  N_18 
REMARK       I    between atoms: S1_12  and  O1S_13 
REMARK       I    between atoms: S1_12  and  O2S_15 
REMARK       I    between atoms: S1_12  and  O3S_26 
REMARK       I    between atoms: O2_24  and  C2_31 
REMARK       I    between atoms: O2_24  and  S_34 
REMARK       I    between atoms: C6_25  and  C5_27 
REMARK       I    between atoms: C3_32  and  O3_33 
ROOT
ATOM      1  C2  SGN d1219      20.385  -9.107  -1.928  0.00  0.00     0.081 C 
ATOM      2  O4  SGN d1219      22.606  -9.867  -4.873  0.00  0.00    -0.348 OA
ATOM      3  O6  SGN d1219      20.013 -13.094  -4.299  0.00  0.00    -0.254 OA
ATOM      4  C6  SGN d1219      20.628 -12.063  -5.044  0.00  0.00     0.067 C 
ATOM      5  C3  SGN d1219      21.592  -9.000  -2.870  0.00  0.00     0.083 C 
ATOM      6  C1  SGN d1219      19.136  -9.661  -2.627  0.00  0.00     0.147 C 
ATOM      7  O3  SGN d1219      22.771  -8.827  -2.111  0.00  0.00    -0.391 OA
ATOM      8  O4S SGN d1219      21.870 -14.635  -3.878  0.00  0.00    -0.572 OA
ATOM      9  S1  SGN d1219      19.884  -7.657   0.249  0.00  0.00     0.156 S 
ATOM     10  O1S SGN d1219      19.306  -6.333   0.464  0.00  0.00    -0.296 OA
ATOM     11  O5  SGN d1219      19.455 -10.857  -3.319  0.00  0.00    -0.350 OA
ATOM     12  O2S SGN d1219      21.204  -7.788   0.867  0.00  0.00    -0.296 OA
ATOM     13  O1  SGN d1219      18.580  -8.714  -3.518  0.00  0.00    -0.369 OA
ATOM     14  N   SGN d1219      20.097  -7.812  -1.332  0.00  0.00    -0.210 NA
ATOM     15  O5S SGN d1219      20.528 -14.876  -5.855  0.00  0.00    -0.572 OA
ATOM     16  S2  SGN d1219      20.520 -14.563  -4.431  0.00  0.00     0.251 S 
ATOM     17  O3S SGN d1219      18.974  -8.719   0.682  0.00  0.00    -0.296 OA
ATOM     18  C5  SGN d1219      20.423 -10.721  -4.350  0.00  0.00     0.091 C 
ATOM     19  O6S SGN d1219      19.587 -15.392  -3.677  0.00  0.00    -0.572 OA
ATOM     20  C4  SGN d1219      21.757 -10.213  -3.795  0.00  0.00     0.095 C 
ATOM     21  H   SGN d1219      20.649  -9.804  -1.160  0.00  0.00     0.076 H 
ATOM     22  H   SGN d1219      20.195 -12.026  -6.021  0.00  0.00     0.080 H 
ATOM     23  H   SGN d1219      21.677 -12.262  -5.118  0.00  0.00     0.080 H 
ATOM     24  H   SGN d1219      21.413  -8.153  -3.500  0.00  0.00     0.089 H 
ATOM     25  H   SGN d1219      18.404  -9.874  -1.875  0.00  0.00     0.131 H 
ATOM     26  H   SGN d1219      22.912  -9.606  -1.550  0.00  0.00     0.210 HD
ATOM     27  H   SGN d1219      19.933  -5.655   0.167  0.00  0.00     0.231 HD
ATOM     28  H   SGN d1219      21.778  -7.069   0.557  0.00  0.00     0.231 HD
ATOM     29  H   SGN d1219      19.225  -8.503  -4.210  0.00  0.00     0.212 HD
ATOM     30  H   SGN d1219      19.242  -7.474  -1.774  0.00  0.00     0.140 HD
ATOM     31  H   SGN d1219      18.112  -8.600   0.254  0.00  0.00     0.231 HD
ATOM     32  H   SGN d1219      20.062 -10.002  -5.055  0.00  0.00     0.090 H 
ATOM     33  H   SGN d1219      22.182 -11.002  -3.211  0.00  0.00     0.091 H 
ATOM     34  C4  IDU d1218      26.179  -8.876  -5.784  0.00  0.00    -0.005 C 
ATOM     35  O61 IDU d1218      25.846  -6.074  -4.098  0.00  0.00    -0.646 OA
ATOM     36  O5  IDU d1218      24.752  -9.332  -3.893  0.00  0.00    -0.343 OA
ATOM     37  C1  IDU d1218      23.944 -10.310  -4.569  0.00  0.00     0.161 C 
ATOM     38  O62 IDU d1218      26.782  -7.748  -2.973  0.00  0.00    -0.646 OA
ATOM     39  O1S IDU d1218      25.371 -14.500  -4.799  0.00  0.00    -0.572 OA
ATOM     40  O3S IDU d1218      23.484 -13.622  -6.010  0.00  0.00    -0.572 OA
ATOM     41  O2  IDU d1218      25.393 -12.027  -5.424  0.00  0.00    -0.244 OA
ATOM     42  C6  IDU d1218      26.013  -7.303  -3.874  0.00  0.00     0.203 C 
ATOM     43  C5  IDU d1218      25.255  -8.283  -4.722  0.00  0.00     0.127 C 
ATOM     44  C2  IDU d1218      24.602 -10.909  -5.821  0.00  0.00     0.132 C 
ATOM     45  C3  IDU d1218      25.468  -9.934  -6.633  0.00  0.00     0.069 C 
ATOM     46  O3  IDU d1218      24.664  -9.288  -7.628  0.00  0.00    -0.393 OA
ATOM     47  S   IDU d1218      24.952 -13.544  -5.850  0.00  0.00     0.252 S 
ATOM     48  O2S IDU d1218      25.607 -13.884  -7.133  0.00  0.00    -0.572 OA
ATOM     49  H   IDU d1218      26.519  -8.090  -6.425  0.00  0.00     0.041 H 
ATOM     50  H   IDU d1218      26.999  -9.349  -5.284  0.00  0.00     0.041 H 
ATOM     51  H   IDU d1218      23.863 -11.091  -3.843  0.00  0.00     0.133 H 
ATOM     52  H   IDU d1218      24.443  -7.779  -5.204  0.00  0.00     0.100 H 
ATOM     53  H   IDU d1218      23.803 -11.187  -6.476  0.00  0.00     0.097 H 
ATOM     54  H   IDU d1218      26.237 -10.524  -7.085  0.00  0.00     0.087 H 
ATOM     55  H   IDU d1218      23.975  -8.761  -7.194  0.00  0.00     0.210 HD
ENDROOT
TORSDOF 16
ENDMDL
MODEL 28
REMARK VINA RESULT:      -6.0      4.379      8.237
REMARK  0 active torsions:
REMARK  status: ('A' for Active; 'I' for Inactive)
REMARK       I    between atoms: C2_1  and  N_18 
REMARK       I    between atoms: O4_5  and  C1_17 
REMARK       I    between atoms: O4_5  and  C4_30 
REMARK       I    between atoms: O6_6  and  C6_7 
REMARK       I    between atoms: O6_6  and  S2_22 
REMARK       I    between atoms: C6_7  and  C5_28 
REMARK       I    between atoms: C3_8  and  O3_10 
REMARK       I    between atoms: C1_9  and  O1_16 
REMARK       I    between atoms: S1_12  and  N_18 
REMARK       I    between atoms: S1_12  and  O1S_13 
REMARK       I    between atoms: S1_12  and  O2S_15 
REMARK       I    between atoms: S1_12  and  O3S_26 
REMARK       I    between atoms: O2_24  and  C2_31 
REMARK       I    between atoms: O2_24  and  S_34 
REMARK       I    between atoms: C6_25  and  C5_27 
REMARK       I    between atoms: C3_32  and  O3_33 
ROOT
ATOM      1  C2  SGN d1219      26.327  -6.940  -4.601  0.00  0.00     0.081 C 
ATOM      2  O4  SGN d1219      24.197  -9.374  -6.530  0.00  0.00    -0.348 OA
ATOM      3  O6  SGN d1219      21.721  -7.174  -3.981  0.00  0.00    -0.254 OA
ATOM      4  C6  SGN d1219      22.138  -7.692  -5.227  0.00  0.00     0.067 C 
ATOM      5  C3  SGN d1219      25.979  -8.167  -5.454  0.00  0.00     0.083 C 
ATOM      6  C1  SGN d1219      25.307  -5.803  -4.756  0.00  0.00     0.147 C 
ATOM      7  O3  SGN d1219      26.731  -9.279  -5.012  0.00  0.00    -0.391 OA
ATOM      8  O4S SGN d1219      21.019  -9.186  -2.771  0.00  0.00    -0.572 OA
ATOM      9  S1  SGN d1219      28.734  -6.161  -3.768  0.00  0.00     0.156 S 
ATOM     10  O1S SGN d1219      29.822  -5.415  -4.396  0.00  0.00    -0.296 OA
ATOM     11  O5  SGN d1219      23.992  -6.299  -4.573  0.00  0.00    -0.350 OA
ATOM     12  O2S SGN d1219      29.180  -7.457  -3.256  0.00  0.00    -0.296 OA
ATOM     13  O1  SGN d1219      25.422  -5.176  -6.019  0.00  0.00    -0.369 OA
ATOM     14  N   SGN d1219      27.663  -6.466  -4.922  0.00  0.00    -0.210 NA
ATOM     15  O5S SGN d1219      19.441  -7.978  -4.121  0.00  0.00    -0.572 OA
ATOM     16  S2  SGN d1219      20.562  -7.865  -3.196  0.00  0.00     0.251 S 
ATOM     17  O3S SGN d1219      28.063  -5.370  -2.736  0.00  0.00    -0.296 OA
ATOM     18  C5  SGN d1219      23.582  -7.290  -5.505  0.00  0.00     0.091 C 
ATOM     19  O6S SGN d1219      20.268  -7.006  -2.055  0.00  0.00    -0.572 OA
ATOM     20  C4  SGN d1219      24.487  -8.524  -5.436  0.00  0.00     0.095 C 
ATOM     21  H   SGN d1219      26.293  -7.251  -3.577  0.00  0.00     0.076 H 
ATOM     22  H   SGN d1219      21.508  -7.304  -6.000  0.00  0.00     0.080 H 
ATOM     23  H   SGN d1219      22.070  -8.760  -5.204  0.00  0.00     0.080 H 
ATOM     24  H   SGN d1219      26.225  -7.915  -6.465  0.00  0.00     0.089 H 
ATOM     25  H   SGN d1219      25.514  -5.068  -4.006  0.00  0.00     0.131 H 
ATOM     26  H   SGN d1219      26.491  -9.488  -4.096  0.00  0.00     0.210 HD
ATOM     27  H   SGN d1219      30.243  -5.967  -5.073  0.00  0.00     0.231 HD
ATOM     28  H   SGN d1219      29.619  -7.951  -3.966  0.00  0.00     0.231 HD
ATOM     29  H   SGN d1219      25.239  -5.823  -6.719  0.00  0.00     0.212 HD
ATOM     30  H   SGN d1219      27.545  -5.598  -5.444  0.00  0.00     0.140 HD
ATOM     31  H   SGN d1219      27.782  -4.521  -3.111  0.00  0.00     0.231 HD
ATOM     32  H   SGN d1219      23.659  -6.877  -6.488  0.00  0.00     0.090 H 
ATOM     33  H   SGN d1219      24.290  -9.015  -4.507  0.00  0.00     0.091 H 
ATOM     34  C4  IDU d1218      24.852 -12.836  -8.000  0.00  0.00    -0.005 C 
ATOM     35  O61 IDU d1218      28.028 -12.081  -8.396  0.00  0.00    -0.646 OA
ATOM     36  O5  IDU d1218      25.488 -11.388  -6.177  0.00  0.00    -0.343 OA
ATOM     37  C1  IDU d1218      24.209 -10.741  -6.070  0.00  0.00     0.161 C 
ATOM     38  O62 IDU d1218      27.541 -13.162  -6.515  0.00  0.00    -0.646 OA
ATOM     39  O1S IDU d1218      20.995 -12.683  -3.716  0.00  0.00    -0.572 OA
ATOM     40  O3S IDU d1218      20.691 -10.761  -5.135  0.00  0.00    -0.572 OA
ATOM     41  O2  IDU d1218      22.531 -12.428  -5.737  0.00  0.00    -0.244 OA
ATOM     42  C6  IDU d1218      27.233 -12.387  -7.467  0.00  0.00     0.203 C 
ATOM     43  C5  IDU d1218      25.853 -11.796  -7.496  0.00  0.00     0.127 C 
ATOM     44  C2  IDU d1218      23.054 -11.525  -6.708  0.00  0.00     0.132 C 
ATOM     45  C3  IDU d1218      23.418 -12.302  -7.983  0.00  0.00     0.069 C 
ATOM     46  O3  IDU d1218      23.203 -11.472  -9.131  0.00  0.00    -0.393 OA
ATOM     47  S   IDU d1218      21.035 -12.199  -5.116  0.00  0.00     0.252 S 
ATOM     48  O2S IDU d1218      20.061 -12.950  -5.938  0.00  0.00    -0.572 OA
ATOM     49  H   IDU d1218      25.109 -13.106  -9.002  0.00  0.00     0.041 H 
ATOM     50  H   IDU d1218      24.898 -13.684  -7.348  0.00  0.00     0.041 H 
ATOM     51  H   IDU d1218      24.041 -10.722  -5.014  0.00  0.00     0.133 H 
ATOM     52  H   IDU d1218      25.844 -10.952  -8.154  0.00  0.00     0.100 H 
ATOM     53  H   IDU d1218      22.332 -10.798  -7.019  0.00  0.00     0.097 H 
ATOM     54  H   IDU d1218      22.777 -13.158  -8.004  0.00  0.00     0.087 H 
ATOM     55  H   IDU d1218      23.793 -10.704  -9.090  0.00  0.00     0.210 HD
ENDROOT
TORSDOF 16
ENDMDL
MODEL 29
REMARK VINA RESULT:      -6.0      2.432      5.478
REMARK  0 active torsions:
REMARK  status: ('A' for Active; 'I' for Inactive)
REMARK       I    between atoms: C2_1  and  N_18 
REMARK       I    between atoms: O4_5  and  C1_17 
REMARK       I    between atoms: O4_5  and  C4_30 
REMARK       I    between atoms: O6_6  and  C6_7 
REMARK       I    between atoms: O6_6  and  S2_22 
REMARK       I    between atoms: C6_7  and  C5_28 
REMARK       I    between atoms: C3_8  and  O3_10 
REMARK       I    between atoms: C1_9  and  O1_16 
REMARK       I    between atoms: S1_12  and  N_18 
REMARK       I    between atoms: S1_12  and  O1S_13 
REMARK       I    between atoms: S1_12  and  O2S_15 
REMARK       I    between atoms: S1_12  and  O3S_26 
REMARK       I    between atoms: O2_24  and  C2_31 
REMARK       I    between atoms: O2_24  and  S_34 
REMARK       I    between atoms: C6_25  and  C5_27 
REMARK       I    between atoms: C3_32  and  O3_33 
ROOT
ATOM      1  C2  SGN d1219      19.755 -14.227  -2.437  0.00  0.00     0.081 C 
ATOM      2  O4  SGN d1219      20.164 -10.830  -4.010  0.00  0.00    -0.348 OA
ATOM      3  O6  SGN d1219      22.202 -13.629  -6.350  0.00  0.00    -0.254 OA
ATOM      4  C6  SGN d1219      21.272 -12.592  -6.115  0.00  0.00     0.067 C 
ATOM      5  C3  SGN d1219      19.765 -12.696  -2.544  0.00  0.00     0.083 C 
ATOM      6  C1  SGN d1219      19.528 -14.914  -3.791  0.00  0.00     0.147 C 
ATOM      7  O3  SGN d1219      20.317 -12.143  -1.367  0.00  0.00    -0.391 OA
ATOM      8  O4S SGN d1219      24.353 -12.519  -5.974  0.00  0.00    -0.572 OA
ATOM      9  S1  SGN d1219      19.104 -15.709  -0.322  0.00  0.00     0.156 S 
ATOM     10  O1S SGN d1219      17.832 -16.157   0.239  0.00  0.00    -0.296 OA
ATOM     11  O5  SGN d1219      20.425 -14.393  -4.758  0.00  0.00    -0.350 OA
ATOM     12  O2S SGN d1219      19.917 -14.994   0.662  0.00  0.00    -0.296 OA
ATOM     13  O1  SGN d1219      18.192 -14.760  -4.230  0.00  0.00    -0.369 OA
ATOM     14  N   SGN d1219      18.750 -14.657  -1.479  0.00  0.00    -0.210 NA
ATOM     15  O5S SGN d1219      23.365 -12.525  -8.164  0.00  0.00    -0.572 OA
ATOM     16  S2  SGN d1219      23.603 -13.302  -6.953  0.00  0.00     0.251 S 
ATOM     17  O3S SGN d1219      19.842 -16.814  -0.936  0.00  0.00    -0.296 OA
ATOM     18  C5  SGN d1219      20.291 -13.004  -5.023  0.00  0.00     0.091 C 
ATOM     19  O6S SGN d1219      24.246 -14.582  -7.222  0.00  0.00    -0.572 OA
ATOM     20  C4  SGN d1219      20.538 -12.172  -3.761  0.00  0.00     0.095 C 
ATOM     21  H   SGN d1219      20.725 -14.523  -2.096  0.00  0.00     0.076 H 
ATOM     22  H   SGN d1219      20.733 -12.389  -7.017  0.00  0.00     0.080 H 
ATOM     23  H   SGN d1219      21.798 -11.715  -5.800  0.00  0.00     0.080 H 
ATOM     24  H   SGN d1219      18.747 -12.393  -2.670  0.00  0.00     0.089 H 
ATOM     25  H   SGN d1219      19.714 -15.960  -3.666  0.00  0.00     0.131 H 
ATOM     26  H   SGN d1219      21.238 -12.431  -1.274  0.00  0.00     0.210 HD
ATOM     27  H   SGN d1219      17.370 -15.402   0.636  0.00  0.00     0.231 HD
ATOM     28  H   SGN d1219      19.397 -14.271   1.047  0.00  0.00     0.231 HD
ATOM     29  H   SGN d1219      17.998 -13.817  -4.351  0.00  0.00     0.212 HD
ATOM     30  H   SGN d1219      17.990 -15.068  -2.021  0.00  0.00     0.140 HD
ATOM     31  H   SGN d1219      19.273 -17.263  -1.580  0.00  0.00     0.231 HD
ATOM     32  H   SGN d1219      19.289 -12.821  -5.351  0.00  0.00     0.090 H 
ATOM     33  H   SGN d1219      21.580 -12.242  -3.530  0.00  0.00     0.091 H 
ATOM     34  C4  IDU d1218      20.284  -7.285  -2.596  0.00  0.00    -0.005 C 
ATOM     35  O61 IDU d1218      18.356  -8.203  -0.097  0.00  0.00    -0.646 OA
ATOM     36  O5  IDU d1218      20.833  -9.572  -2.056  0.00  0.00    -0.343 OA
ATOM     37  C1  IDU d1218      21.140  -9.957  -3.406  0.00  0.00     0.161 C 
ATOM     38  O62 IDU d1218      20.538  -8.259   0.324  0.00  0.00    -0.646 OA
ATOM     39  O1S IDU d1218      25.180  -9.122  -5.025  0.00  0.00    -0.572 OA
ATOM     40  O3S IDU d1218      23.306  -9.883  -6.331  0.00  0.00    -0.572 OA
ATOM     41  O2  IDU d1218      22.838  -8.479  -4.249  0.00  0.00    -0.244 OA
ATOM     42  C6  IDU d1218      19.553  -8.329  -0.468  0.00  0.00     0.203 C 
ATOM     43  C5  IDU d1218      19.817  -8.576  -1.925  0.00  0.00     0.127 C 
ATOM     44  C2  IDU d1218      21.446  -8.777  -4.340  0.00  0.00     0.132 C 
ATOM     45  C3  IDU d1218      20.632  -7.503  -4.071  0.00  0.00     0.069 C 
ATOM     46  O3  IDU d1218      19.429  -7.526  -4.849  0.00  0.00    -0.393 OA
ATOM     47  S   IDU d1218      23.830  -8.765  -5.517  0.00  0.00     0.252 S 
ATOM     48  O2S IDU d1218      23.902  -7.542  -6.347  0.00  0.00    -0.572 OA
ATOM     49  H   IDU d1218      19.502  -6.558  -2.529  0.00  0.00     0.041 H 
ATOM     50  H   IDU d1218      21.167  -6.950  -2.093  0.00  0.00     0.041 H 
ATOM     51  H   IDU d1218      22.042 -10.521  -3.292  0.00  0.00     0.133 H 
ATOM     52  H   IDU d1218      18.917  -8.912  -2.395  0.00  0.00     0.100 H 
ATOM     53  H   IDU d1218      21.161  -9.091  -5.323  0.00  0.00     0.097 H 
ATOM     54  H   IDU d1218      21.257  -6.684  -4.357  0.00  0.00     0.087 H 
ATOM     55  H   IDU d1218      18.879  -8.276  -4.572  0.00  0.00     0.210 HD
ENDROOT
TORSDOF 16
ENDMDL
MODEL 30
REMARK VINA RESULT:      -5.9      2.995      6.741
REMARK  0 active torsions:
REMARK  status: ('A' for Active; 'I' for Inactive)
REMARK       I    between atoms: C2_1  and  N_18 
REMARK       I    between atoms: O4_5  and  C1_17 
REMARK       I    between atoms: O4_5  and  C4_30 
REMARK       I    between atoms: O6_6  and  C6_7 
REMARK       I    between atoms: O6_6  and  S2_22 
REMARK       I    between atoms: C6_7  and  C5_28 
REMARK       I    between atoms: C3_8  and  O3_10 
REMARK       I    between atoms: C1_9  and  O1_16 
REMARK       I    between atoms: S1_12  and  N_18 
REMARK       I    between atoms: S1_12  and  O1S_13 
REMARK       I    between atoms: S1_12  and  O2S_15 
REMARK       I    between atoms: S1_12  and  O3S_26 
REMARK       I    between atoms: O2_24  and  C2_31 
REMARK       I    between atoms: O2_24  and  S_34 
REMARK       I    between atoms: C6_25  and  C5_27 
REMARK       I    between atoms: C3_32  and  O3_33 
ROOT
ATOM      1  C2  SGN d1219      22.404 -14.807  -6.350  0.00  0.00     0.081 C 
ATOM      2  O4  SGN d1219      23.467 -11.417  -5.102  0.00  0.00    -0.348 OA
ATOM      3  O6  SGN d1219      20.175 -12.683  -2.860  0.00  0.00    -0.254 OA
ATOM      4  C6  SGN d1219      21.494 -12.211  -3.043  0.00  0.00     0.067 C 
ATOM      5  C3  SGN d1219      23.089 -13.434  -6.358  0.00  0.00     0.083 C 
ATOM      6  C1  SGN d1219      22.171 -15.344  -4.930  0.00  0.00     0.147 C 
ATOM      7  O3  SGN d1219      22.958 -12.849  -7.637  0.00  0.00    -0.391 OA
ATOM      8  O4S SGN d1219      18.816 -10.786  -3.606  0.00  0.00    -0.572 OA
ATOM      9  S1  SGN d1219      22.482 -16.681  -8.241  0.00  0.00     0.156 S 
ATOM     10  O1S SGN d1219      23.450 -17.718  -8.589  0.00  0.00    -0.296 OA
ATOM     11  O5  SGN d1219      21.533 -14.358  -4.135  0.00  0.00    -0.350 OA
ATOM     12  O2S SGN d1219      22.178 -15.810  -9.377  0.00  0.00    -0.296 OA
ATOM     13  O1  SGN d1219      23.384 -15.749  -4.326  0.00  0.00    -0.369 OA
ATOM     14  N   SGN d1219      23.178 -15.760  -7.128  0.00  0.00    -0.210 NA
ATOM     15  O5S SGN d1219      19.496 -10.953  -1.308  0.00  0.00    -0.572 OA
ATOM     16  S2  SGN d1219      19.034 -11.689  -2.479  0.00  0.00     0.251 S 
ATOM     17  O3S SGN d1219      21.269 -17.250  -7.653  0.00  0.00    -0.296 OA
ATOM     18  C5  SGN d1219      22.266 -13.154  -3.958  0.00  0.00     0.091 C 
ATOM     19  O6S SGN d1219      17.854 -12.500  -2.205  0.00  0.00    -0.572 OA
ATOM     20  C4  SGN d1219      22.541 -12.468  -5.299  0.00  0.00     0.095 C 
ATOM     21  H   SGN d1219      21.440 -14.679  -6.796  0.00  0.00     0.076 H 
ATOM     22  H   SGN d1219      21.985 -12.157  -2.094  0.00  0.00     0.080 H 
ATOM     23  H   SGN d1219      21.459 -11.239  -3.491  0.00  0.00     0.080 H 
ATOM     24  H   SGN d1219      24.118 -13.605  -6.118  0.00  0.00     0.089 H 
ATOM     25  H   SGN d1219      21.537 -16.203  -5.001  0.00  0.00     0.131 H 
ATOM     26  H   SGN d1219      22.020 -12.703  -7.832  0.00  0.00     0.210 HD
ATOM     27  H   SGN d1219      24.240 -17.307  -8.974  0.00  0.00     0.231 HD
ATOM     28  H   SGN d1219      23.004 -15.452  -9.739  0.00  0.00     0.231 HD
ATOM     29  H   SGN d1219      23.978 -14.987  -4.250  0.00  0.00     0.212 HD
ATOM     30  H   SGN d1219      23.614 -16.395  -6.458  0.00  0.00     0.140 HD
ATOM     31  H   SGN d1219      21.509 -17.820  -6.905  0.00  0.00     0.231 HD
ATOM     32  H   SGN d1219      23.208 -13.399  -3.511  0.00  0.00     0.090 H 
ATOM     33  H   SGN d1219      21.608 -12.094  -5.664  0.00  0.00     0.091 H 
ATOM     34  C4  IDU d1218      25.112  -8.406  -6.778  0.00  0.00    -0.005 C 
ATOM     35  O61 IDU d1218      26.613 -10.401  -8.917  0.00  0.00    -0.646 OA
ATOM     36  O5  IDU d1218      23.623 -10.254  -7.217  0.00  0.00    -0.343 OA
ATOM     37  C1  IDU d1218      23.058 -10.285  -5.896  0.00  0.00     0.161 C 
ATOM     38  O62 IDU d1218      24.695  -9.528  -9.625  0.00  0.00    -0.646 OA
ATOM     39  O1S IDU d1218      19.729  -7.530  -4.907  0.00  0.00    -0.572 OA
ATOM     40  O3S IDU d1218      20.922  -8.875  -3.306  0.00  0.00    -0.572 OA
ATOM     41  O2  IDU d1218      22.163  -8.109  -5.404  0.00  0.00    -0.244 OA
ATOM     42  C6  IDU d1218      25.464  -9.929  -8.704  0.00  0.00     0.203 C 
ATOM     43  C5  IDU d1218      24.990  -9.844  -7.282  0.00  0.00     0.127 C 
ATOM     44  C2  IDU d1218      23.247  -8.984  -5.102  0.00  0.00     0.132 C 
ATOM     45  C3  IDU d1218      24.576  -8.255  -5.352  0.00  0.00     0.069 C 
ATOM     46  O3  IDU d1218      25.561  -8.714  -4.418  0.00  0.00    -0.393 OA
ATOM     47  S   IDU d1218      21.044  -7.756  -4.264  0.00  0.00     0.252 S 
ATOM     48  O2S IDU d1218      21.470  -6.535  -3.544  0.00  0.00    -0.572 OA
ATOM     49  H   IDU d1218      26.143  -8.121  -6.792  0.00  0.00     0.041 H 
ATOM     50  H   IDU d1218      24.529  -7.779  -7.420  0.00  0.00     0.041 H 
ATOM     51  H   IDU d1218      22.011 -10.394  -6.089  0.00  0.00     0.133 H 
ATOM     52  H   IDU d1218      25.591 -10.484  -6.670  0.00  0.00     0.100 H 
ATOM     53  H   IDU d1218      23.270  -9.263  -4.069  0.00  0.00     0.097 H 
ATOM     54  H   IDU d1218      24.375  -7.213  -5.214  0.00  0.00     0.087 H 
ATOM     55  H   IDU d1218      25.726  -9.659  -4.561  0.00  0.00     0.210 HD
ENDROOT
TORSDOF 16
ENDMDL
MODEL 31
REMARK VINA RESULT:      -5.9      2.572      6.258
REMARK  0 active torsions:
REMARK  status: ('A' for Active; 'I' for Inactive)
REMARK       I    between atoms: C2_1  and  N_18 
REMARK       I    between atoms: O4_5  and  C1_17 
REMARK       I    between atoms: O4_5  and  C4_30 
REMARK       I    between atoms: O6_6  and  C6_7 
REMARK       I    between atoms: O6_6  and  S2_22 
REMARK       I    between atoms: C6_7  and  C5_28 
REMARK       I    between atoms: C3_8  and  O3_10 
REMARK       I    between atoms: C1_9  and  O1_16 
REMARK       I    between atoms: S1_12  and  N_18 
REMARK       I    between atoms: S1_12  and  O1S_13 
REMARK       I    between atoms: S1_12  and  O2S_15 
REMARK       I    between atoms: S1_12  and  O3S_26 
REMARK       I    between atoms: O2_24  and  C2_31 
REMARK       I    between atoms: O2_24  and  S_34 
REMARK       I    between atoms: C6_25  and  C5_27 
REMARK       I    between atoms: C3_32  and  O3_33 
ROOT
ATOM      1  C2  SGN d1219      18.964 -13.359  -1.563  0.00  0.00     0.081 C 
ATOM      2  O4  SGN d1219      20.172 -10.530  -3.735  0.00  0.00    -0.348 OA
ATOM      3  O6  SGN d1219      21.302 -14.141  -5.510  0.00  0.00    -0.254 OA
ATOM      4  C6  SGN d1219      20.687 -12.870  -5.474  0.00  0.00     0.067 C 
ATOM      5  C3  SGN d1219      19.368 -11.930  -1.951  0.00  0.00     0.083 C 
ATOM      6  C1  SGN d1219      18.505 -14.192  -2.768  0.00  0.00     0.147 C 
ATOM      7  O3  SGN d1219      20.097 -11.341  -0.894  0.00  0.00    -0.391 OA
ATOM      8  O4S SGN d1219      23.683 -13.590  -5.338  0.00  0.00    -0.572 OA
ATOM      9  S1  SGN d1219      18.046 -14.212   0.787  0.00  0.00     0.156 S 
ATOM     10  O1S SGN d1219      16.728 -14.200   1.416  0.00  0.00    -0.296 OA
ATOM     11  O5  SGN d1219      19.462 -14.109  -3.811  0.00  0.00    -0.350 OA
ATOM     12  O2S SGN d1219      19.061 -13.574   1.625  0.00  0.00    -0.296 OA
ATOM     13  O1  SGN d1219      17.237 -13.772  -3.233  0.00  0.00    -0.369 OA
ATOM     14  N   SGN d1219      17.926 -13.329  -0.546  0.00  0.00    -0.210 NA
ATOM     15  O5S SGN d1219      22.630 -13.727  -7.492  0.00  0.00    -0.572 OA
ATOM     16  S2  SGN d1219      22.712 -14.309  -6.158  0.00  0.00     0.251 S 
ATOM     17  O3S SGN d1219      18.442 -15.565   0.391  0.00  0.00    -0.296 OA
ATOM     18  C5  SGN d1219      19.683 -12.805  -4.329  0.00  0.00     0.091 C 
ATOM     19  O6S SGN d1219      22.986 -15.741  -6.184  0.00  0.00    -0.572 OA
ATOM     20  C4  SGN d1219      20.195 -11.856  -3.242  0.00  0.00     0.095 C 
ATOM     21  H   SGN d1219      19.838 -13.835  -1.169  0.00  0.00     0.076 H 
ATOM     22  H   SGN d1219      20.179 -12.696  -6.400  0.00  0.00     0.080 H 
ATOM     23  H   SGN d1219      21.437 -12.121  -5.325  0.00  0.00     0.080 H 
ATOM     24  H   SGN d1219      18.459 -11.396  -2.135  0.00  0.00     0.089 H 
ATOM     25  H   SGN d1219      18.417 -15.211  -2.451  0.00  0.00     0.131 H 
ATOM     26  H   SGN d1219      20.915 -11.842  -0.747  0.00  0.00     0.210 HD
ATOM     27  H   SGN d1219      16.497 -13.291   1.665  0.00  0.00     0.231 HD
ATOM     28  H   SGN d1219      18.765 -12.682   1.867  0.00  0.00     0.231 HD
ATOM     29  H   SGN d1219      17.290 -12.849  -3.526  0.00  0.00     0.212 HD
ATOM     30  H   SGN d1219      17.061 -13.615  -1.005  0.00  0.00     0.140 HD
ATOM     31  H   SGN d1219      17.747 -15.955  -0.162  0.00  0.00     0.231 HD
ATOM     32  H   SGN d1219      18.749 -12.426  -4.688  0.00  0.00     0.090 H 
ATOM     33  H   SGN d1219      21.191 -12.157  -2.997  0.00  0.00     0.091 H 
ATOM     34  C4  IDU d1218      21.276  -6.950  -3.000  0.00  0.00    -0.005 C 
ATOM     35  O61 IDU d1218      19.291  -6.861  -0.381  0.00  0.00    -0.646 OA
ATOM     36  O5  IDU d1218      21.234  -9.165  -2.044  0.00  0.00    -0.343 OA
ATOM     37  C1  IDU d1218      21.368  -9.853  -3.300  0.00  0.00     0.161 C 
ATOM     38  O62 IDU d1218      21.399  -7.416   0.050  0.00  0.00    -0.646 OA
ATOM     39  O1S IDU d1218      25.409 -10.420  -5.030  0.00  0.00    -0.572 OA
ATOM     40  O3S IDU d1218      23.344 -10.879  -6.180  0.00  0.00    -0.572 OA
ATOM     41  O2  IDU d1218      23.353  -9.052  -4.394  0.00  0.00    -0.244 OA
ATOM     42  C6  IDU d1218      20.396  -7.364  -0.718  0.00  0.00     0.203 C 
ATOM     43  C5  IDU d1218      20.520  -7.929  -2.103  0.00  0.00     0.127 C 
ATOM     44  C2  IDU d1218      21.929  -8.983  -4.434  0.00  0.00     0.132 C 
ATOM     45  C3  IDU d1218      21.488  -7.512  -4.408  0.00  0.00     0.069 C 
ATOM     46  O3  IDU d1218      20.286  -7.355  -5.173  0.00  0.00    -0.393 OA
ATOM     47  S   IDU d1218      24.178  -9.813  -5.584  0.00  0.00     0.252 S 
ATOM     48  O2S IDU d1218      24.528  -8.822  -6.626  0.00  0.00    -0.572 OA
ATOM     49  H   IDU d1218      20.715  -6.042  -3.071  0.00  0.00     0.041 H 
ATOM     50  H   IDU d1218      22.238  -6.775  -2.564  0.00  0.00     0.041 H 
ATOM     51  H   IDU d1218      22.097 -10.605  -3.080  0.00  0.00     0.133 H 
ATOM     52  H   IDU d1218      19.543  -8.093  -2.507  0.00  0.00     0.100 H 
ATOM     53  H   IDU d1218      21.528  -9.381  -5.343  0.00  0.00     0.097 H 
ATOM     54  H   IDU d1218      22.292  -6.952  -4.839  0.00  0.00     0.087 H 
ATOM     55  H   IDU d1218      19.574  -7.871  -4.764  0.00  0.00     0.210 HD
ENDROOT
TORSDOF 16
ENDMDL
MODEL 32
REMARK VINA RESULT:      -5.9      4.254      6.420
REMARK  0 active torsions:
REMARK  status: ('A' for Active; 'I' for Inactive)
REMARK       I    between atoms: C2_1  and  N_18 
REMARK       I    between atoms: O4_5  and  C1_17 
REMARK       I    between atoms: O4_5  and  C4_30 
REMARK       I    between atoms: O6_6  and  C6_7 
REMARK       I    between atoms: O6_6  and  S2_22 
REMARK       I    between atoms: C6_7  and  C5_28 
REMARK       I    between atoms: C3_8  and  O3_10 
REMARK       I    between atoms: C1_9  and  O1_16 
REMARK       I    between atoms: S1_12  and  N_18 
REMARK       I    between atoms: S1_12  and  O1S_13 
REMARK       I    between atoms: S1_12  and  O2S_15 
REMARK       I    between atoms: S1_12  and  O3S_26 
REMARK       I    between atoms: O2_24  and  C2_31 
REMARK       I    between atoms: O2_24  and  S_34 
REMARK       I    between atoms: C6_25  and  C5_27 
REMARK       I    between atoms: C3_32  and  O3_33 
ROOT
ATOM      1  C2  SGN d1219      25.313  -7.475  -4.824  0.00  0.00     0.081 C 
ATOM      2  O4  SGN d1219      24.033  -9.974  -2.314  0.00  0.00    -0.348 OA
ATOM      3  O6  SGN d1219      20.757  -8.161  -4.170  0.00  0.00    -0.254 OA
ATOM      4  C6  SGN d1219      21.546  -9.255  -3.750  0.00  0.00     0.067 C 
ATOM      5  C3  SGN d1219      25.330  -8.419  -3.614  0.00  0.00     0.083 C 
ATOM      6  C1  SGN d1219      24.272  -7.881  -5.877  0.00  0.00     0.147 C 
ATOM      7  O3  SGN d1219      26.034  -7.812  -2.550  0.00  0.00    -0.391 OA
ATOM      8  O4S SGN d1219      19.945  -7.240  -2.051  0.00  0.00    -0.572 OA
ATOM      9  S1  SGN d1219      27.315  -5.991  -5.763  0.00  0.00     0.156 S 
ATOM     10  O1S SGN d1219      28.457  -6.276  -6.628  0.00  0.00    -0.296 OA
ATOM     11  O5  SGN d1219      23.010  -8.081  -5.262  0.00  0.00    -0.350 OA
ATOM     12  O2S SGN d1219      27.725  -5.405  -4.487  0.00  0.00    -0.296 OA
ATOM     13  O1  SGN d1219      24.668  -9.048  -6.571  0.00  0.00    -0.369 OA
ATOM     14  N   SGN d1219      26.635  -7.403  -5.424  0.00  0.00    -0.210 NA
ATOM     15  O5S SGN d1219      18.689  -8.945  -3.184  0.00  0.00    -0.572 OA
ATOM     16  S2  SGN d1219      19.499  -7.744  -3.347  0.00  0.00     0.251 S 
ATOM     17  O3S SGN d1219      26.315  -5.167  -6.443  0.00  0.00    -0.296 OA
ATOM     18  C5  SGN d1219      22.967  -9.112  -4.286  0.00  0.00     0.091 C 
ATOM     19  O6S SGN d1219      18.823  -6.709  -4.121  0.00  0.00    -0.572 OA
ATOM     20  C4  SGN d1219      23.931  -8.824  -3.131  0.00  0.00     0.095 C 
ATOM     21  H   SGN d1219      25.030  -6.509  -4.462  0.00  0.00     0.076 H 
ATOM     22  H   SGN d1219      21.118 -10.163  -4.120  0.00  0.00     0.080 H 
ATOM     23  H   SGN d1219      21.576  -9.276  -2.681  0.00  0.00     0.080 H 
ATOM     24  H   SGN d1219      25.818  -9.317  -3.934  0.00  0.00     0.089 H 
ATOM     25  H   SGN d1219      24.195  -7.087  -6.589  0.00  0.00     0.131 H 
ATOM     26  H   SGN d1219      25.574  -7.003  -2.278  0.00  0.00     0.210 HD
ATOM     27  H   SGN d1219      29.099  -6.822  -6.147  0.00  0.00     0.231 HD
ATOM     28  H   SGN d1219      28.386  -5.977  -4.066  0.00  0.00     0.231 HD
ATOM     29  H   SGN d1219      24.746  -9.786  -5.945  0.00  0.00     0.212 HD
ATOM     30  H   SGN d1219      26.583  -7.918  -6.303  0.00  0.00     0.140 HD
ATOM     31  H   SGN d1219      26.068  -5.586  -7.283  0.00  0.00     0.231 HD
ATOM     32  H   SGN d1219      23.270 -10.026  -4.752  0.00  0.00     0.090 H 
ATOM     33  H   SGN d1219      23.534  -7.997  -2.582  0.00  0.00     0.091 H 
ATOM     34  C4  IDU d1218      25.391 -11.284   1.005  0.00  0.00    -0.005 C 
ATOM     35  O61 IDU d1218      28.467 -10.768  -0.035  0.00  0.00    -0.646 OA
ATOM     36  O5  IDU d1218      25.363  -9.324  -0.402  0.00  0.00    -0.343 OA
ATOM     37  C1  IDU d1218      24.049  -9.561  -0.933  0.00  0.00     0.161 C 
ATOM     38  O62 IDU d1218      27.589  -9.121   1.173  0.00  0.00    -0.646 OA
ATOM     39  O1S IDU d1218      20.512  -8.235   1.387  0.00  0.00    -0.572 OA
ATOM     40  O3S IDU d1218      20.427  -9.637  -0.569  0.00  0.00    -0.572 OA
ATOM     41  O2  IDU d1218      22.511  -9.744   0.905  0.00  0.00    -0.244 OA
ATOM     42  C6  IDU d1218      27.481 -10.103   0.382  0.00  0.00     0.203 C 
ATOM     43  C5  IDU d1218      26.113 -10.500  -0.090  0.00  0.00     0.127 C 
ATOM     44  C2  IDU d1218      23.192 -10.512  -0.084  0.00  0.00     0.132 C 
ATOM     45  C3  IDU d1218      23.963 -11.654   0.596  0.00  0.00     0.069 C 
ATOM     46  O3  IDU d1218      23.992 -12.797  -0.267  0.00  0.00    -0.393 OA
ATOM     47  S   IDU d1218      20.888  -9.557   0.834  0.00  0.00     0.252 S 
ATOM     48  O2S IDU d1218      20.251 -10.634   1.624  0.00  0.00    -0.572 OA
ATOM     49  H   IDU d1218      25.937 -12.183   1.204  0.00  0.00     0.041 H 
ATOM     50  H   IDU d1218      25.337 -10.665   1.877  0.00  0.00     0.041 H 
ATOM     51  H   IDU d1218      23.597  -8.592  -0.886  0.00  0.00     0.133 H 
ATOM     52  H   IDU d1218      26.203 -11.114  -0.961  0.00  0.00     0.100 H 
ATOM     53  H   IDU d1218      22.517 -10.993  -0.762  0.00  0.00     0.097 H 
ATOM     54  H   IDU d1218      23.436 -11.871   1.501  0.00  0.00     0.087 H 
ATOM     55  H   IDU d1218      24.473 -12.576  -1.080  0.00  0.00     0.210 HD
ENDROOT
TORSDOF 16
ENDMDL
MODEL 33
REMARK VINA RESULT:      -5.9      3.218      6.385
REMARK  0 active torsions:
REMARK  status: ('A' for Active; 'I' for Inactive)
REMARK       I    between atoms: C2_1  and  N_18 
REMARK       I    between atoms: O4_5  and  C1_17 
REMARK       I    between atoms: O4_5  and  C4_30 
REMARK       I    between atoms: O6_6  and  C6_7 
REMARK       I    between atoms: O6_6  and  S2_22 
REMARK       I    between atoms: C6_7  and  C5_28 
REMARK       I    between atoms: C3_8  and  O3_10 
REMARK       I    between atoms: C1_9  and  O1_16 
REMARK       I    between atoms: S1_12  and  N_18 
REMARK       I    between atoms: S1_12  and  O1S_13 
REMARK       I    between atoms: S1_12  and  O2S_15 
REMARK       I    between atoms: S1_12  and  O3S_26 
REMARK       I    between atoms: O2_24  and  C2_31 
REMARK       I    between atoms: O2_24  and  S_34 
REMARK       I    between atoms: C6_25  and  C5_27 
REMARK       I    between atoms: C3_32  and  O3_33 
ROOT
ATOM      1  C2  SGN d1219      17.184 -15.408  -3.355  0.00  0.00     0.081 C 
ATOM      2  O4  SGN d1219      20.019 -13.208  -2.211  0.00  0.00    -0.348 OA
ATOM      3  O6  SGN d1219      16.651 -12.342   0.106  0.00  0.00    -0.254 OA
ATOM      4  C6  SGN d1219      17.999 -12.708  -0.106  0.00  0.00     0.067 C 
ATOM      5  C3  SGN d1219      18.528 -14.669  -3.409  0.00  0.00     0.083 C 
ATOM      6  C1  SGN d1219      16.723 -15.695  -1.919  0.00  0.00     0.147 C 
ATOM      7  O3  SGN d1219      18.721 -14.132  -4.701  0.00  0.00    -0.391 OA
ATOM      8  O4S SGN d1219      16.595 -10.020  -0.672  0.00  0.00    -0.572 OA
ATOM      9  S1  SGN d1219      16.133 -17.018  -5.197  0.00  0.00     0.156 S 
ATOM     10  O1S SGN d1219      16.329 -18.427  -5.530  0.00  0.00    -0.296 OA
ATOM     11  O5  SGN d1219      16.781 -14.510  -1.142  0.00  0.00    -0.350 OA
ATOM     12  O2S SGN d1219      16.349 -16.146  -6.351  0.00  0.00    -0.296 OA
ATOM     13  O1  SGN d1219      17.505 -16.711  -1.320  0.00  0.00    -0.369 OA
ATOM     14  N   SGN d1219      17.258 -16.643  -4.117  0.00  0.00    -0.210 NA
ATOM     15  O5S SGN d1219      17.118 -10.511   1.621  0.00  0.00    -0.572 OA
ATOM     16  S2  SGN d1219      16.289 -10.870   0.476  0.00  0.00     0.251 S 
ATOM     17  O3S SGN d1219      14.827 -16.787  -4.578  0.00  0.00    -0.296 OA
ATOM     18  C5  SGN d1219      18.073 -13.937  -1.006  0.00  0.00     0.091 C 
ATOM     19  O6S SGN d1219      14.865 -10.861   0.786  0.00  0.00    -0.572 OA
ATOM     20  C4  SGN d1219      18.655 -13.548  -2.369  0.00  0.00     0.095 C 
ATOM     21  H   SGN d1219      16.453 -14.759  -3.792  0.00  0.00     0.076 H 
ATOM     22  H   SGN d1219      18.458 -12.930   0.835  0.00  0.00     0.080 H 
ATOM     23  H   SGN d1219      18.512 -11.897  -0.579  0.00  0.00     0.080 H 
ATOM     24  H   SGN d1219      19.282 -15.392  -3.177  0.00  0.00     0.089 H 
ATOM     25  H   SGN d1219      15.712 -16.041  -1.959  0.00  0.00     0.131 H 
ATOM     26  H   SGN d1219      18.027 -13.481  -4.887  0.00  0.00     0.210 HD
ATOM     27  H   SGN d1219      17.202 -18.545  -5.936  0.00  0.00     0.231 HD
ATOM     28  H   SGN d1219      17.223 -16.327  -6.734  0.00  0.00     0.231 HD
ATOM     29  H   SGN d1219      18.430 -16.422  -1.272  0.00  0.00     0.212 HD
ATOM     30  H   SGN d1219      17.271 -17.403  -3.437  0.00  0.00     0.140 HD
ATOM     31  H   SGN d1219      14.719 -17.382  -3.819  0.00  0.00     0.231 HD
ATOM     32  H   SGN d1219      18.719 -14.667  -0.565  0.00  0.00     0.090 H 
ATOM     33  H   SGN d1219      18.091 -12.715  -2.731  0.00  0.00     0.091 H 
ATOM     34  C4  IDU d1218      23.041 -11.696  -3.987  0.00  0.00    -0.005 C 
ATOM     35  O61 IDU d1218      23.084 -14.220  -6.093  0.00  0.00    -0.646 OA
ATOM     36  O5  IDU d1218      20.755 -12.372  -4.358  0.00  0.00    -0.343 OA
ATOM     37  C1  IDU d1218      20.307 -12.056  -3.029  0.00  0.00     0.161 C 
ATOM     38  O62 IDU d1218      21.987 -12.420  -6.798  0.00  0.00    -0.646 OA
ATOM     39  O1S IDU d1218      19.164  -7.883  -2.070  0.00  0.00    -0.572 OA
ATOM     40  O3S IDU d1218      19.421  -9.645  -0.449  0.00  0.00    -0.572 OA
ATOM     41  O2  IDU d1218      20.822  -9.751  -2.583  0.00  0.00    -0.244 OA
ATOM     42  C6  IDU d1218      22.414 -13.175  -5.877  0.00  0.00     0.203 C 
ATOM     43  C5  IDU d1218      22.110 -12.815  -4.452  0.00  0.00     0.127 C 
ATOM     44  C2  IDU d1218      21.223 -11.084  -2.273  0.00  0.00     0.132 C 
ATOM     45  C3  IDU d1218      22.724 -11.245  -2.559  0.00  0.00     0.069 C 
ATOM     46  O3  IDU d1218      23.296 -12.171  -1.627  0.00  0.00    -0.393 OA
ATOM     47  S   IDU d1218      20.133  -8.808  -1.439  0.00  0.00     0.252 S 
ATOM     48  O2S IDU d1218      21.197  -8.037  -0.757  0.00  0.00    -0.572 OA
ATOM     49  H   IDU d1218      24.051 -12.049  -4.022  0.00  0.00     0.041 H 
ATOM     50  H   IDU d1218      22.903 -10.857  -4.638  0.00  0.00     0.041 H 
ATOM     51  H   IDU d1218      19.379 -11.553  -3.206  0.00  0.00     0.133 H 
ATOM     52  H   IDU d1218      22.255 -13.674  -3.831  0.00  0.00     0.100 H 
ATOM     53  H   IDU d1218      21.110 -11.312  -1.233  0.00  0.00     0.097 H 
ATOM     54  H   IDU d1218      23.155 -10.273  -2.447  0.00  0.00     0.087 H 
ATOM     55  H   IDU d1218      22.891 -13.043  -1.747  0.00  0.00     0.210 HD
ENDROOT
TORSDOF 16
ENDMDL
MODEL 34
REMARK VINA RESULT:      -5.9      2.731      6.888
REMARK  0 active torsions:
REMARK  status: ('A' for Active; 'I' for Inactive)
REMARK       I    between atoms: C2_1  and  N_18 
REMARK       I    between atoms: O4_5  and  C1_17 
REMARK       I    between atoms: O4_5  and  C4_30 
REMARK       I    between atoms: O6_6  and  C6_7 
REMARK       I    between atoms: O6_6  and  S2_22 
REMARK       I    between atoms: C6_7  and  C5_28 
REMARK       I    between atoms: C3_8  and  O3_10 
REMARK       I    between atoms: C1_9  and  O1_16 
REMARK       I    between atoms: S1_12  and  N_18 
REMARK       I    between atoms: S1_12  and  O1S_13 
REMARK       I    between atoms: S1_12  and  O2S_15 
REMARK       I    between atoms: S1_12  and  O3S_26 
REMARK       I    between atoms: O2_24  and  C2_31 
REMARK       I    between atoms: O2_24  and  S_34 
REMARK       I    between atoms: C6_25  and  C5_27 
REMARK       I    between atoms: C3_32  and  O3_33 
ROOT
ATOM      1  C2  SGN d1219      21.628  -9.123  -4.333  0.00  0.00     0.081 C 
ATOM      2  O4  SGN d1219      20.411 -12.687  -4.334  0.00  0.00    -0.348 OA
ATOM      3  O6  SGN d1219      18.300 -10.564  -1.418  0.00  0.00    -0.254 OA
ATOM      4  C6  SGN d1219      18.430 -11.387  -2.559  0.00  0.00     0.067 C 
ATOM      5  C3  SGN d1219      21.637 -10.633  -4.604  0.00  0.00     0.083 C 
ATOM      6  C1  SGN d1219      20.210  -8.555  -4.186  0.00  0.00     0.147 C 
ATOM      7  O3  SGN d1219      22.934 -11.147  -4.381  0.00  0.00    -0.391 OA
ATOM      8  O4S SGN d1219      19.153 -11.995   0.378  0.00  0.00    -0.572 OA
ATOM      9  S1  SGN d1219      23.470  -7.331  -5.032  0.00  0.00     0.156 S 
ATOM     10  O1S SGN d1219      23.747  -6.605  -6.269  0.00  0.00    -0.296 OA
ATOM     11  O5  SGN d1219      19.469  -9.329  -3.256  0.00  0.00    -0.350 OA
ATOM     12  O2S SGN d1219      24.639  -8.070  -4.556  0.00  0.00    -0.296 OA
ATOM     13  O1  SGN d1219      19.539  -8.513  -5.431  0.00  0.00    -0.369 OA
ATOM     14  N   SGN d1219      22.346  -8.420  -5.383  0.00  0.00    -0.210 NA
ATOM     15  O5S SGN d1219      16.822 -12.047  -0.200  0.00  0.00    -0.572 OA
ATOM     16  S2  SGN d1219      17.996 -11.200  -0.025  0.00  0.00     0.251 S 
ATOM     17  O3S SGN d1219      22.927  -6.447  -3.999  0.00  0.00    -0.296 OA
ATOM     18  C5  SGN d1219      19.285 -10.691  -3.612  0.00  0.00     0.091 C 
ATOM     19  O6S SGN d1219      17.760 -10.092   0.892  0.00  0.00    -0.572 OA
ATOM     20  C4  SGN d1219      20.628 -11.415  -3.752  0.00  0.00     0.095 C 
ATOM     21  H   SGN d1219      22.124  -8.970  -3.396  0.00  0.00     0.076 H 
ATOM     22  H   SGN d1219      17.460 -11.586  -2.964  0.00  0.00     0.080 H 
ATOM     23  H   SGN d1219      18.901 -12.306  -2.276  0.00  0.00     0.080 H 
ATOM     24  H   SGN d1219      21.343 -10.761  -5.625  0.00  0.00     0.089 H 
ATOM     25  H   SGN d1219      20.291  -7.552  -3.823  0.00  0.00     0.131 H 
ATOM     26  H   SGN d1219      23.176 -11.020  -3.451  0.00  0.00     0.210 HD
ATOM     27  H   SGN d1219      24.104  -7.218  -6.931  0.00  0.00     0.231 HD
ATOM     28  H   SGN d1219      24.970  -8.643  -5.266  0.00  0.00     0.231 HD
ATOM     29  H   SGN d1219      19.453  -9.413  -5.782  0.00  0.00     0.212 HD
ATOM     30  H   SGN d1219      21.643  -7.939  -5.944  0.00  0.00     0.140 HD
ATOM     31  H   SGN d1219      22.156  -5.975  -4.350  0.00  0.00     0.231 HD
ATOM     32  H   SGN d1219      18.789 -10.726  -4.559  0.00  0.00     0.090 H 
ATOM     33  H   SGN d1219      21.045 -11.508  -2.772  0.00  0.00     0.091 H 
ATOM     34  C4  IDU d1218      22.076 -16.023  -5.152  0.00  0.00    -0.005 C 
ATOM     35  O61 IDU d1218      24.095 -14.513  -7.262  0.00  0.00    -0.646 OA
ATOM     36  O5  IDU d1218      22.543 -13.827  -4.267  0.00  0.00    -0.343 OA
ATOM     37  C1  IDU d1218      21.249 -13.650  -3.665  0.00  0.00     0.161 C 
ATOM     38  O62 IDU d1218      24.913 -14.804  -5.216  0.00  0.00    -0.646 OA
ATOM     39  O1S IDU d1218      20.485 -15.364   0.350  0.00  0.00    -0.572 OA
ATOM     40  O3S IDU d1218      18.797 -14.424  -1.087  0.00  0.00    -0.572 OA
ATOM     41  O2  IDU d1218      20.851 -15.490  -2.170  0.00  0.00    -0.244 OA
ATOM     42  C6  IDU d1218      23.948 -14.644  -6.018  0.00  0.00     0.203 C 
ATOM     43  C5  IDU d1218      22.552 -14.605  -5.465  0.00  0.00     0.127 C 
ATOM     44  C2  IDU d1218      20.478 -14.959  -3.440  0.00  0.00     0.132 C 
ATOM     45  C3  IDU d1218      20.681 -16.031  -4.522  0.00  0.00     0.069 C 
ATOM     46  O3  IDU d1218      19.692 -15.876  -5.546  0.00  0.00    -0.393 OA
ATOM     47  S   IDU d1218      19.775 -15.524  -0.940  0.00  0.00     0.252 S 
ATOM     48  O2S IDU d1218      19.064 -16.822  -0.968  0.00  0.00    -0.572 OA
ATOM     49  H   IDU d1218      22.048 -16.587  -6.061  0.00  0.00     0.041 H 
ATOM     50  H   IDU d1218      22.760 -16.456  -4.451  0.00  0.00     0.041 H 
ATOM     51  H   IDU d1218      21.490 -13.249  -2.703  0.00  0.00     0.133 H 
ATOM     52  H   IDU d1218      21.898 -14.166  -6.189  0.00  0.00     0.100 H 
ATOM     53  H   IDU d1218      19.439 -14.707  -3.486  0.00  0.00     0.097 H 
ATOM     54  H   IDU d1218      20.578 -16.974  -4.029  0.00  0.00     0.087 H 
ATOM     55  H   IDU d1218      19.805 -15.014  -5.977  0.00  0.00     0.210 HD
ENDROOT
TORSDOF 16
ENDMDL
MODEL 35
REMARK VINA RESULT:      -5.8      2.885      6.698
REMARK  0 active torsions:
REMARK  status: ('A' for Active; 'I' for Inactive)
REMARK       I    between atoms: C2_1  and  N_18 
REMARK       I    between atoms: O4_5  and  C1_17 
REMARK       I    between atoms: O4_5  and  C4_30 
REMARK       I    between atoms: O6_6  and  C6_7 
REMARK       I    between atoms: O6_6  and  S2_22 
REMARK       I    between atoms: C6_7  and  C5_28 
REMARK       I    between atoms: C3_8  and  O3_10 
REMARK       I    between atoms: C1_9  and  O1_16 
REMARK       I    between atoms: S1_12  and  N_18 
REMARK       I    between atoms: S1_12  and  O1S_13 
REMARK       I    between atoms: S1_12  and  O2S_15 
REMARK       I    between atoms: S1_12  and  O3S_26 
REMARK       I    between atoms: O2_24  and  C2_31 
REMARK       I    between atoms: O2_24  and  S_34 
REMARK       I    between atoms: C6_25  and  C5_27 
REMARK       I    between atoms: C3_32  and  O3_33 
ROOT
ATOM      1  C2  SGN d1219      21.409  -7.960  -4.281  0.00  0.00     0.081 C 
ATOM      2  O4  SGN d1219      21.265 -11.651  -3.545  0.00  0.00    -0.348 OA
ATOM      3  O6  SGN d1219      18.026  -9.796  -1.665  0.00  0.00    -0.254 OA
ATOM      4  C6  SGN d1219      18.643 -10.741  -2.515  0.00  0.00     0.067 C 
ATOM      5  C3  SGN d1219      21.900  -9.408  -4.142  0.00  0.00     0.083 C 
ATOM      6  C1  SGN d1219      19.895  -7.868  -4.518  0.00  0.00     0.147 C 
ATOM      7  O3  SGN d1219      23.199  -9.416  -3.587  0.00  0.00    -0.391 OA
ATOM      8  O4S SGN d1219      18.798 -10.483   0.555  0.00  0.00    -0.572 OA
ATOM      9  S1  SGN d1219      22.791  -5.844  -5.119  0.00  0.00     0.156 S 
ATOM     10  O1S SGN d1219      23.137  -5.329  -6.442  0.00  0.00    -0.296 OA
ATOM     11  O5  SGN d1219      19.202  -8.639  -3.550  0.00  0.00    -0.350 OA
ATOM     12  O2S SGN d1219      23.974  -6.052  -4.284  0.00  0.00    -0.296 OA
ATOM     13  O1  SGN d1219      19.551  -8.296  -5.822  0.00  0.00    -0.369 OA
ATOM     14  N   SGN d1219      22.129  -7.286  -5.349  0.00  0.00    -0.210 NA
ATOM     15  O5S SGN d1219      16.776 -11.405  -0.356  0.00  0.00    -0.572 OA
ATOM     16  S2  SGN d1219      17.594 -10.205  -0.223  0.00  0.00     0.251 S 
ATOM     17  O3S SGN d1219      21.798  -4.998  -4.454  0.00  0.00    -0.296 OA
ATOM     18  C5  SGN d1219      19.493 -10.030  -3.562  0.00  0.00     0.091 C 
ATOM     19  O6S SGN d1219      16.852  -9.075   0.322  0.00  0.00    -0.572 OA
ATOM     20  C4  SGN d1219      20.977 -10.289  -3.290  0.00  0.00     0.095 C 
ATOM     21  H   SGN d1219      21.609  -7.472  -3.350  0.00  0.00     0.076 H 
ATOM     22  H   SGN d1219      17.889 -11.321  -3.005  0.00  0.00     0.080 H 
ATOM     23  H   SGN d1219      19.271 -11.381  -1.930  0.00  0.00     0.080 H 
ATOM     24  H   SGN d1219      21.901  -9.825  -5.128  0.00  0.00     0.089 H 
ATOM     25  H   SGN d1219      19.608  -6.842  -4.423  0.00  0.00     0.131 H 
ATOM     26  H   SGN d1219      23.172  -9.035  -2.696  0.00  0.00     0.210 HD
ATOM     27  H   SGN d1219      23.795  -5.911  -6.853  0.00  0.00     0.231 HD
ATOM     28  H   SGN d1219      24.608  -6.616  -4.756  0.00  0.00     0.231 HD
ATOM     29  H   SGN d1219      19.802  -9.226  -5.934  0.00  0.00     0.212 HD
ATOM     30  H   SGN d1219      21.471  -7.182  -6.121  0.00  0.00     0.140 HD
ATOM     31  H   SGN d1219      21.031  -4.883  -5.036  0.00  0.00     0.231 HD
ATOM     32  H   SGN d1219      19.261 -10.412  -4.534  0.00  0.00     0.090 H 
ATOM     33  H   SGN d1219      21.163 -10.044  -2.265  0.00  0.00     0.091 H 
ATOM     34  C4  IDU d1218      23.934 -14.356  -3.183  0.00  0.00    -0.005 C 
ATOM     35  O61 IDU d1218      25.889 -12.724  -5.261  0.00  0.00    -0.646 OA
ATOM     36  O5  IDU d1218      23.552 -11.999  -2.840  0.00  0.00    -0.343 OA
ATOM     37  C1  IDU d1218      22.157 -12.136  -2.522  0.00  0.00     0.161 C 
ATOM     38  O62 IDU d1218      26.254 -12.319  -3.106  0.00  0.00    -0.646 OA
ATOM     39  O1S IDU d1218      20.981 -13.169   1.625  0.00  0.00    -0.572 OA
ATOM     40  O3S IDU d1218      19.484 -13.136  -0.261  0.00  0.00    -0.572 OA
ATOM     41  O2  IDU d1218      21.947 -13.669  -0.682  0.00  0.00    -0.244 OA
ATOM     42  C6  IDU d1218      25.498 -12.645  -4.066  0.00  0.00     0.203 C 
ATOM     43  C5  IDU d1218      24.057 -12.953  -3.775  0.00  0.00     0.127 C 
ATOM     44  C2  IDU d1218      21.749 -13.552  -2.089  0.00  0.00     0.132 C 
ATOM     45  C3  IDU d1218      22.489 -14.692  -2.805  0.00  0.00     0.069 C 
ATOM     46  O3  IDU d1218      21.763 -15.075  -3.980  0.00  0.00    -0.393 OA
ATOM     47  S   IDU d1218      20.666 -13.805   0.325  0.00  0.00     0.252 S 
ATOM     48  O2S IDU d1218      20.370 -15.242   0.524  0.00  0.00    -0.572 OA
ATOM     49  H   IDU d1218      24.277 -15.068  -3.905  0.00  0.00     0.041 H 
ATOM     50  H   IDU d1218      24.527 -14.394  -2.292  0.00  0.00     0.041 H 
ATOM     51  H   IDU d1218      22.045 -11.495  -1.672  0.00  0.00     0.133 H 
ATOM     52  H   IDU d1218      23.495 -12.904  -4.684  0.00  0.00     0.100 H 
ATOM     53  H   IDU d1218      20.721 -13.666  -2.366  0.00  0.00     0.097 H 
ATOM     54  H   IDU d1218      22.539 -15.500  -2.106  0.00  0.00     0.087 H 
ATOM     55  H   IDU d1218      21.730 -14.327  -4.598  0.00  0.00     0.210 HD
ENDROOT
TORSDOF 16
ENDMDL
MODEL 36
REMARK VINA RESULT:      -5.8      2.816      6.894
REMARK  0 active torsions:
REMARK  status: ('A' for Active; 'I' for Inactive)
REMARK       I    between atoms: C2_1  and  N_18 
REMARK       I    between atoms: O4_5  and  C1_17 
REMARK       I    between atoms: O4_5  and  C4_30 
REMARK       I    between atoms: O6_6  and  C6_7 
REMARK       I    between atoms: O6_6  and  S2_22 
REMARK       I    between atoms: C6_7  and  C5_28 
REMARK       I    between atoms: C3_8  and  O3_10 
REMARK       I    between atoms: C1_9  and  O1_16 
REMARK       I    between atoms: S1_12  and  N_18 
REMARK       I    between atoms: S1_12  and  O1S_13 
REMARK       I    between atoms: S1_12  and  O2S_15 
REMARK       I    between atoms: S1_12  and  O3S_26 
REMARK       I    between atoms: O2_24  and  C2_31 
REMARK       I    between atoms: O2_24  and  S_34 
REMARK       I    between atoms: C6_25  and  C5_27 
REMARK       I    between atoms: C3_32  and  O3_33 
ROOT
ATOM      1  C2  SGN d1219      21.057  -9.452  -3.253  0.00  0.00     0.081 C 
ATOM      2  O4  SGN d1219      19.059 -12.584  -3.867  0.00  0.00    -0.348 OA
ATOM      3  O6  SGN d1219      17.297 -10.484  -0.713  0.00  0.00    -0.254 OA
ATOM      4  C6  SGN d1219      17.312 -11.134  -1.967  0.00  0.00     0.067 C 
ATOM      5  C3  SGN d1219      20.738 -10.863  -3.764  0.00  0.00     0.083 C 
ATOM      6  C1  SGN d1219      19.800  -8.593  -3.060  0.00  0.00     0.147 C 
ATOM      7  O3  SGN d1219      21.864 -11.697  -3.588  0.00  0.00    -0.391 OA
ATOM      8  O4S SGN d1219      17.676 -12.328   0.853  0.00  0.00    -0.572 OA
ATOM      9  S1  SGN d1219      23.304  -8.063  -3.597  0.00  0.00     0.156 S 
ATOM     10  O1S SGN d1219      23.823  -7.247  -4.691  0.00  0.00    -0.296 OA
ATOM     11  O5  SGN d1219      18.840  -9.299  -2.291  0.00  0.00    -0.350 OA
ATOM     12  O2S SGN d1219      24.237  -9.122  -3.211  0.00  0.00    -0.296 OA
ATOM     13  O1  SGN d1219      19.243  -8.207  -4.302  0.00  0.00    -0.369 OA
ATOM     14  N   SGN d1219      21.987  -8.790  -4.154  0.00  0.00    -0.210 NA
ATOM     15  O5S SGN d1219      15.440 -11.739   0.203  0.00  0.00    -0.572 OA
ATOM     16  S2  SGN d1219      16.762 -11.231   0.548  0.00  0.00     0.251 S 
ATOM     17  O3S SGN d1219      22.909  -7.242  -2.452  0.00  0.00    -0.296 OA
ATOM     18  C5  SGN d1219      18.373 -10.510  -2.868  0.00  0.00     0.091 C 
ATOM     19  O6S SGN d1219      16.725 -10.248   1.625  0.00  0.00    -0.572 OA
ATOM     20  C4  SGN d1219      19.521 -11.502  -3.082  0.00  0.00     0.095 C 
ATOM     21  H   SGN d1219      21.510  -9.564  -2.289  0.00  0.00     0.076 H 
ATOM     22  H   SGN d1219      16.353 -11.033  -2.430  0.00  0.00     0.080 H 
ATOM     23  H   SGN d1219      17.541 -12.169  -1.823  0.00  0.00     0.080 H 
ATOM     24  H   SGN d1219      20.493 -10.763  -4.802  0.00  0.00     0.089 H 
ATOM     25  H   SGN d1219      20.084  -7.703  -2.538  0.00  0.00     0.131 H 
ATOM     26  H   SGN d1219      22.066 -11.772  -2.642  0.00  0.00     0.210 HD
ATOM     27  H   SGN d1219      24.074  -7.821  -5.432  0.00  0.00     0.231 HD
ATOM     28  H   SGN d1219      24.475  -9.644  -3.993  0.00  0.00     0.231 HD
ATOM     29  H   SGN d1219      18.977  -8.998  -4.797  0.00  0.00     0.212 HD
ATOM     30  H   SGN d1219      21.452  -8.078  -4.650  0.00  0.00     0.140 HD
ATOM     31  H   SGN d1219      22.292  -6.553  -2.746  0.00  0.00     0.231 HD
ATOM     32  H   SGN d1219      17.948 -10.284  -3.823  0.00  0.00     0.090 H 
ATOM     33  H   SGN d1219      19.839 -11.837  -2.117  0.00  0.00     0.091 H 
ATOM     34  C4  IDU d1218      19.966 -16.059  -5.163  0.00  0.00    -0.005 C 
ATOM     35  O61 IDU d1218      22.416 -14.771  -6.938  0.00  0.00    -0.646 OA
ATOM     36  O5  IDU d1218      20.862 -14.194  -3.921  0.00  0.00    -0.343 OA
ATOM     37  C1  IDU d1218      19.606 -13.808  -3.338  0.00  0.00     0.161 C 
ATOM     38  O62 IDU d1218      23.005 -15.552  -4.942  0.00  0.00    -0.646 OA
ATOM     39  O1S IDU d1218      18.199 -15.874   0.322  0.00  0.00    -0.572 OA
ATOM     40  O3S IDU d1218      16.873 -14.356  -0.996  0.00  0.00    -0.572 OA
ATOM     41  O2  IDU d1218      18.697 -15.704  -2.173  0.00  0.00    -0.244 OA
ATOM     42  C6  IDU d1218      22.158 -15.049  -5.737  0.00  0.00     0.203 C 
ATOM     43  C5  IDU d1218      20.775 -14.764  -5.228  0.00  0.00     0.127 C 
ATOM     44  C2  IDU d1218      18.542 -14.915  -3.351  0.00  0.00     0.132 C 
ATOM     45  C3  IDU d1218      18.567 -15.830  -4.585  0.00  0.00     0.069 C 
ATOM     46  O3  IDU d1218      17.711 -15.293  -5.601  0.00  0.00    -0.393 OA
ATOM     47  S   IDU d1218      17.560 -15.666  -0.998  0.00  0.00     0.252 S 
ATOM     48  O2S IDU d1218      16.575 -16.739  -1.257  0.00  0.00    -0.572 OA
ATOM     49  H   IDU d1218      19.871 -16.457  -6.151  0.00  0.00     0.041 H 
ATOM     50  H   IDU d1218      20.483 -16.741  -4.520  0.00  0.00     0.041 H 
ATOM     51  H   IDU d1218      19.867 -13.624  -2.317  0.00  0.00     0.133 H 
ATOM     52  H   IDU d1218      20.289 -14.079  -5.891  0.00  0.00     0.100 H 
ATOM     53  H   IDU d1218      17.594 -14.420  -3.388  0.00  0.00     0.097 H 
ATOM     54  H   IDU d1218      18.217 -16.785  -4.255  0.00  0.00     0.087 H 
ATOM     55  H   IDU d1218      18.048 -14.428  -5.883  0.00  0.00     0.210 HD
ENDROOT
TORSDOF 16
ENDMDL
MODEL 37
REMARK VINA RESULT:      -5.8      3.805      7.430
REMARK  0 active torsions:
REMARK  status: ('A' for Active; 'I' for Inactive)
REMARK       I    between atoms: C2_1  and  N_18 
REMARK       I    between atoms: O4_5  and  C1_17 
REMARK       I    between atoms: O4_5  and  C4_30 
REMARK       I    between atoms: O6_6  and  C6_7 
REMARK       I    between atoms: O6_6  and  S2_22 
REMARK       I    between atoms: C6_7  and  C5_28 
REMARK       I    between atoms: C3_8  and  O3_10 
REMARK       I    between atoms: C1_9  and  O1_16 
REMARK       I    between atoms: S1_12  and  N_18 
REMARK       I    between atoms: S1_12  and  O1S_13 
REMARK       I    between atoms: S1_12  and  O2S_15 
REMARK       I    between atoms: S1_12  and  O3S_26 
REMARK       I    between atoms: O2_24  and  C2_31 
REMARK       I    between atoms: O2_24  and  S_34 
REMARK       I    between atoms: C6_25  and  C5_27 
REMARK       I    between atoms: C3_32  and  O3_33 
ROOT
ATOM      1  C2  SGN d1219      25.926 -12.530  -6.578  0.00  0.00     0.081 C 
ATOM      2  O4  SGN d1219      24.711  -9.397  -4.878  0.00  0.00    -0.348 OA
ATOM      3  O6  SGN d1219      22.325 -12.593  -3.631  0.00  0.00    -0.254 OA
ATOM      4  C6  SGN d1219      23.175 -11.480  -3.442  0.00  0.00     0.067 C 
ATOM      5  C3  SGN d1219      25.732 -11.030  -6.322  0.00  0.00     0.083 C 
ATOM      6  C1  SGN d1219      25.781 -13.373  -5.303  0.00  0.00     0.147 C 
ATOM      7  O3  SGN d1219      25.527 -10.362  -7.550  0.00  0.00    -0.391 OA
ATOM      8  O4S SGN d1219      20.304 -11.574  -4.566  0.00  0.00    -0.572 OA
ATOM      9  S1  SGN d1219      27.351 -13.683  -8.510  0.00  0.00     0.156 S 
ATOM     10  O1S SGN d1219      28.773 -13.977  -8.671  0.00  0.00    -0.296 OA
ATOM     11  O5  SGN d1219      24.578 -13.036  -4.631  0.00  0.00    -0.350 OA
ATOM     12  O2S SGN d1219      26.823 -12.896  -9.624  0.00  0.00    -0.296 OA
ATOM     13  O1  SGN d1219      26.889 -13.197  -4.441  0.00  0.00    -0.369 OA
ATOM     14  N   SGN d1219      27.218 -12.771  -7.198  0.00  0.00    -0.210 NA
ATOM     15  O5S SGN d1219      20.547 -11.805  -2.188  0.00  0.00    -0.572 OA
ATOM     16  S2  SGN d1219      20.780 -12.431  -3.484  0.00  0.00     0.251 S 
ATOM     17  O3S SGN d1219      26.570 -14.901  -8.287  0.00  0.00    -0.296 OA
ATOM     18  C5  SGN d1219      24.485 -11.688  -4.193  0.00  0.00     0.091 C 
ATOM     19  O6S SGN d1219      20.214 -13.772  -3.572  0.00  0.00    -0.572 OA
ATOM     20  C4  SGN d1219      24.567 -10.715  -5.373  0.00  0.00     0.095 C 
ATOM     21  H   SGN d1219      25.146 -12.837  -7.245  0.00  0.00     0.076 H 
ATOM     22  H   SGN d1219      23.379 -11.364  -2.398  0.00  0.00     0.080 H 
ATOM     23  H   SGN d1219      22.691 -10.603  -3.818  0.00  0.00     0.080 H 
ATOM     24  H   SGN d1219      26.624 -10.685  -5.841  0.00  0.00     0.089 H 
ATOM     25  H   SGN d1219      25.748 -14.403  -5.589  0.00  0.00     0.131 H 
ATOM     26  H   SGN d1219      24.715 -10.691  -7.965  0.00  0.00     0.210 HD
ATOM     27  H   SGN d1219      29.260 -13.151  -8.816  0.00  0.00     0.231 HD
ATOM     28  H   SGN d1219      27.364 -12.099  -9.742  0.00  0.00     0.231 HD
ATOM     29  H   SGN d1219      26.942 -12.269  -4.166  0.00  0.00     0.212 HD
ATOM     30  H   SGN d1219      27.806 -13.203  -6.485  0.00  0.00     0.140 HD
ATOM     31  H   SGN d1219      26.948 -15.395  -7.543  0.00  0.00     0.231 HD
ATOM     32  H   SGN d1219      25.310 -11.490  -3.541  0.00  0.00     0.090 H 
ATOM     33  H   SGN d1219      23.664 -10.817  -5.936  0.00  0.00     0.091 H 
ATOM     34  C4  IDU d1218      24.693  -5.712  -5.879  0.00  0.00    -0.005 C 
ATOM     35  O61 IDU d1218      27.391  -6.180  -7.699  0.00  0.00    -0.646 OA
ATOM     36  O5  IDU d1218      24.570  -7.938  -6.803  0.00  0.00    -0.343 OA
ATOM     37  C1  IDU d1218      23.893  -8.513  -5.672  0.00  0.00     0.161 C 
ATOM     38  O62 IDU d1218      25.469  -6.311  -8.807  0.00  0.00    -0.646 OA
ATOM     39  O1S IDU d1218      19.487  -8.139  -5.374  0.00  0.00    -0.572 OA
ATOM     40  O3S IDU d1218      20.920  -8.949  -3.616  0.00  0.00    -0.572 OA
ATOM     41  O2  IDU d1218      21.880  -7.261  -5.277  0.00  0.00    -0.244 OA
ATOM     42  C6  IDU d1218      26.156  -6.424  -7.751  0.00  0.00     0.203 C 
ATOM     43  C5  IDU d1218      25.472  -6.875  -6.493  0.00  0.00     0.127 C 
ATOM     44  C2  IDU d1218      23.194  -7.485  -4.771  0.00  0.00     0.132 C 
ATOM     45  C3  IDU d1218      23.922  -6.140  -4.627  0.00  0.00     0.069 C 
ATOM     46  O3  IDU d1218      24.816  -6.192  -3.508  0.00  0.00    -0.393 OA
ATOM     47  S   IDU d1218      20.572  -7.768  -4.436  0.00  0.00     0.252 S 
ATOM     48  O2S IDU d1218      20.123  -6.670  -3.551  0.00  0.00    -0.572 OA
ATOM     49  H   IDU d1218      25.381  -4.937  -5.613  0.00  0.00     0.041 H 
ATOM     50  H   IDU d1218      23.985  -5.368  -6.603  0.00  0.00     0.041 H 
ATOM     51  H   IDU d1218      23.133  -9.110  -6.130  0.00  0.00     0.133 H 
ATOM     52  H   IDU d1218      26.207  -7.214  -5.793  0.00  0.00     0.100 H 
ATOM     53  H   IDU d1218      23.184  -7.906  -3.787  0.00  0.00     0.097 H 
ATOM     54  H   IDU d1218      23.161  -5.404  -4.476  0.00  0.00     0.087 H 
ATOM     55  H   IDU d1218      25.495  -6.866  -3.668  0.00  0.00     0.210 HD
ENDROOT
TORSDOF 16
ENDMDL
MODEL 38
REMARK VINA RESULT:      -5.8      5.145      7.978
REMARK  0 active torsions:
REMARK  status: ('A' for Active; 'I' for Inactive)
REMARK       I    between atoms: C2_1  and  N_18 
REMARK       I    between atoms: O4_5  and  C1_17 
REMARK       I    between atoms: O4_5  and  C4_30 
REMARK       I    between atoms: O6_6  and  C6_7 
REMARK       I    between atoms: O6_6  and  S2_22 
REMARK       I    between atoms: C6_7  and  C5_28 
REMARK       I    between atoms: C3_8  and  O3_10 
REMARK       I    between atoms: C1_9  and  O1_16 
REMARK       I    between atoms: S1_12  and  N_18 
REMARK       I    between atoms: S1_12  and  O1S_13 
REMARK       I    between atoms: S1_12  and  O2S_15 
REMARK       I    between atoms: S1_12  and  O3S_26 
REMARK       I    between atoms: O2_24  and  C2_31 
REMARK       I    between atoms: O2_24  and  S_34 
REMARK       I    between atoms: C6_25  and  C5_27 
REMARK       I    between atoms: C3_32  and  O3_33 
ROOT
ATOM      1  C2  SGN d1219      25.883  -6.594  -6.672  0.00  0.00     0.081 C 
ATOM      2  O4  SGN d1219      25.668  -8.281  -3.312  0.00  0.00    -0.348 OA
ATOM      3  O6  SGN d1219      22.009  -8.759  -5.273  0.00  0.00    -0.254 OA
ATOM      4  C6  SGN d1219      23.167  -9.205  -4.596  0.00  0.00     0.067 C 
ATOM      5  C3  SGN d1219      26.246  -6.933  -5.220  0.00  0.00     0.083 C 
ATOM      6  C1  SGN d1219      25.149  -7.740  -7.382  0.00  0.00     0.147 C 
ATOM      7  O3  SGN d1219      26.590  -5.750  -4.529  0.00  0.00    -0.391 OA
ATOM      8  O4S SGN d1219      20.805  -7.534  -3.527  0.00  0.00    -0.572 OA
ATOM      9  S1  SGN d1219      27.117  -4.890  -8.306  0.00  0.00     0.156 S 
ATOM     10  O1S SGN d1219      28.305  -4.988  -9.149  0.00  0.00    -0.296 OA
ATOM     11  O5  SGN d1219      24.063  -8.189  -6.588  0.00  0.00    -0.350 OA
ATOM     12  O2S SGN d1219      27.194  -3.764  -7.375  0.00  0.00    -0.296 OA
ATOM     13  O1  SGN d1219      26.023  -8.815  -7.667  0.00  0.00    -0.369 OA
ATOM     14  N   SGN d1219      27.076  -6.223  -7.415  0.00  0.00    -0.210 NA
ATOM     15  O5S SGN d1219      20.422  -9.885  -3.832  0.00  0.00    -0.572 OA
ATOM     16  S2  SGN d1219      20.661  -8.612  -4.501  0.00  0.00     0.251 S 
ATOM     17  O3S SGN d1219      25.891  -4.852  -9.105  0.00  0.00    -0.296 OA
ATOM     18  C5  SGN d1219      24.417  -8.711  -5.316  0.00  0.00     0.091 C 
ATOM     19  O6S SGN d1219      19.645  -8.301  -5.500  0.00  0.00    -0.572 OA
ATOM     20  C4  SGN d1219      25.127  -7.657  -4.461  0.00  0.00     0.095 C 
ATOM     21  H   SGN d1219      25.208  -5.764  -6.640  0.00  0.00     0.076 H 
ATOM     22  H   SGN d1219      23.172 -10.274  -4.571  0.00  0.00     0.080 H 
ATOM     23  H   SGN d1219      23.161  -8.817  -3.599  0.00  0.00     0.080 H 
ATOM     24  H   SGN d1219      27.077  -7.608  -5.264  0.00  0.00     0.089 H 
ATOM     25  H   SGN d1219      24.775  -7.367  -8.312  0.00  0.00     0.131 H 
ATOM     26  H   SGN d1219      25.824  -5.157  -4.503  0.00  0.00     0.210 HD
ATOM     27  H   SGN d1219      29.098  -5.012  -8.589  0.00  0.00     0.231 HD
ATOM     28  H   SGN d1219      28.017  -3.824  -6.864  0.00  0.00     0.231 HD
ATOM     29  H   SGN d1219      26.378  -9.172  -6.838  0.00  0.00     0.212 HD
ATOM     30  H   SGN d1219      27.278  -6.999  -8.046  0.00  0.00     0.140 HD
ATOM     31  H   SGN d1219      25.875  -5.611  -9.708  0.00  0.00     0.231 HD
ATOM     32  H   SGN d1219      25.092  -9.528  -5.466  0.00  0.00     0.090 H 
ATOM     33  H   SGN d1219      24.400  -6.921  -4.191  0.00  0.00     0.091 H 
ATOM     34  C4  IDU d1218      27.320  -7.612   0.065  0.00  0.00    -0.005 C 
ATOM     35  O61 IDU d1218      29.936  -6.326  -1.454  0.00  0.00    -0.646 OA
ATOM     36  O5  IDU d1218      26.530  -6.497  -1.924  0.00  0.00    -0.343 OA
ATOM     37  C1  IDU d1218      25.457  -7.419  -2.175  0.00  0.00     0.161 C 
ATOM     38  O62 IDU d1218      28.404  -4.853  -0.801  0.00  0.00    -0.646 OA
ATOM     39  O1S IDU d1218      21.602  -6.875  -0.055  0.00  0.00    -0.572 OA
ATOM     40  O3S IDU d1218      22.187  -8.805  -1.371  0.00  0.00    -0.572 OA
ATOM     41  O2  IDU d1218      24.066  -7.515  -0.217  0.00  0.00    -0.244 OA
ATOM     42  C6  IDU d1218      28.748  -6.011  -1.180  0.00  0.00     0.203 C 
ATOM     43  C5  IDU d1218      27.689  -7.067  -1.314  0.00  0.00     0.127 C 
ATOM     44  C2  IDU d1218      25.043  -8.249  -0.950  0.00  0.00     0.132 C 
ATOM     45  C3  IDU d1218      26.194  -8.646  -0.013  0.00  0.00     0.069 C 
ATOM     46  O3  IDU d1218      26.732  -9.911  -0.419  0.00  0.00    -0.393 OA
ATOM     47  S   IDU d1218      22.517  -8.036  -0.152  0.00  0.00     0.252 S 
ATOM     48  O2S IDU d1218      22.359  -8.904   1.036  0.00  0.00    -0.572 OA
ATOM     49  H   IDU d1218      28.183  -8.073   0.498  0.00  0.00     0.041 H 
ATOM     50  H   IDU d1218      26.978  -6.794   0.665  0.00  0.00     0.041 H 
ATOM     51  H   IDU d1218      24.640  -6.771  -2.415  0.00  0.00     0.133 H 
ATOM     52  H   IDU d1218      28.063  -7.866  -1.919  0.00  0.00     0.100 H 
ATOM     53  H   IDU d1218      24.658  -9.173  -1.330  0.00  0.00     0.097 H 
ATOM     54  H   IDU d1218      25.771  -8.707   0.968  0.00  0.00     0.087 H 
ATOM     55  H   IDU d1218      27.108  -9.831  -1.309  0.00  0.00     0.210 HD
ENDROOT
TORSDOF 16
ENDMDL
MODEL 39
REMARK VINA RESULT:      -5.7      2.902      6.370
REMARK  0 active torsions:
REMARK  status: ('A' for Active; 'I' for Inactive)
REMARK       I    between atoms: C2_1  and  N_18 
REMARK       I    between atoms: O4_5  and  C1_17 
REMARK       I    between atoms: O4_5  and  C4_30 
REMARK       I    between atoms: O6_6  and  C6_7 
REMARK       I    between atoms: O6_6  and  S2_22 
REMARK       I    between atoms: C6_7  and  C5_28 
REMARK       I    between atoms: C3_8  and  O3_10 
REMARK       I    between atoms: C1_9  and  O1_16 
REMARK       I    between atoms: S1_12  and  N_18 
REMARK       I    between atoms: S1_12  and  O1S_13 
REMARK       I    between atoms: S1_12  and  O2S_15 
REMARK       I    between atoms: S1_12  and  O3S_26 
REMARK       I    between atoms: O2_24  and  C2_31 
REMARK       I    between atoms: O2_24  and  S_34 
REMARK       I    between atoms: C6_25  and  C5_27 
REMARK       I    between atoms: C3_32  and  O3_33 
ROOT
ATOM      1  C2  SGN d1219      24.040 -11.771  -6.071  0.00  0.00     0.081 C 
ATOM      2  O4  SGN d1219      21.720 -11.222  -3.156  0.00  0.00    -0.348 OA
ATOM      3  O6  SGN d1219      22.243 -15.335  -3.679  0.00  0.00    -0.254 OA
ATOM      4  C6  SGN d1219      22.252 -14.126  -2.947  0.00  0.00     0.067 C 
ATOM      5  C3  SGN d1219      23.058 -11.037  -5.147  0.00  0.00     0.083 C 
ATOM      6  C1  SGN d1219      24.806 -12.890  -5.352  0.00  0.00     0.147 C 
ATOM      7  O3  SGN d1219      22.153 -10.281  -5.924  0.00  0.00    -0.391 OA
ATOM      8  O4S SGN d1219      19.858 -15.678  -4.119  0.00  0.00    -0.572 OA
ATOM      9  S1  SGN d1219      25.248 -10.824  -8.247  0.00  0.00     0.156 S 
ATOM     10  O1S SGN d1219      26.437 -10.001  -8.459  0.00  0.00    -0.296 OA
ATOM     11  O5  SGN d1219      23.900 -13.734  -4.659  0.00  0.00    -0.350 OA
ATOM     12  O2S SGN d1219      24.063 -10.250  -8.883  0.00  0.00    -0.296 OA
ATOM     13  O1  SGN d1219      25.767 -12.365  -4.457  0.00  0.00    -0.369 OA
ATOM     14  N   SGN d1219      24.970 -10.826  -6.668  0.00  0.00    -0.210 NA
ATOM     15  O5S SGN d1219      20.854 -16.566  -2.122  0.00  0.00    -0.572 OA
ATOM     16  S2  SGN d1219      21.039 -16.319  -3.547  0.00  0.00     0.251 S 
ATOM     17  O3S SGN d1219      25.471 -12.210  -8.662  0.00  0.00    -0.296 OA
ATOM     18  C5  SGN d1219      23.137 -13.099  -3.643  0.00  0.00     0.091 C 
ATOM     19  O6S SGN d1219      21.407 -17.522  -4.284  0.00  0.00    -0.572 OA
ATOM     20  C4  SGN d1219      22.272 -11.973  -4.220  0.00  0.00     0.095 C 
ATOM     21  H   SGN d1219      23.458 -12.235  -6.840  0.00  0.00     0.076 H 
ATOM     22  H   SGN d1219      22.630 -14.311  -1.963  0.00  0.00     0.080 H 
ATOM     23  H   SGN d1219      21.253 -13.745  -2.887  0.00  0.00     0.080 H 
ATOM     24  H   SGN d1219      23.648 -10.403  -4.518  0.00  0.00     0.089 H 
ATOM     25  H   SGN d1219      25.325 -13.463  -6.092  0.00  0.00     0.131 H 
ATOM     26  H   SGN d1219      21.631 -10.876  -6.484  0.00  0.00     0.210 HD
ATOM     27  H   SGN d1219      26.256  -9.092  -8.174  0.00  0.00     0.231 HD
ATOM     28  H   SGN d1219      23.947  -9.334  -8.584  0.00  0.00     0.231 HD
ATOM     29  H   SGN d1219      25.321 -11.839  -3.775  0.00  0.00     0.212 HD
ATOM     30  H   SGN d1219      25.871 -10.981  -6.215  0.00  0.00     0.140 HD
ATOM     31  H   SGN d1219      26.263 -12.556  -8.222  0.00  0.00     0.231 HD
ATOM     32  H   SGN d1219      23.814 -12.668  -2.936  0.00  0.00     0.090 H 
ATOM     33  H   SGN d1219      21.503 -12.429  -4.807  0.00  0.00     0.091 H 
ATOM     34  C4  IDU d1218      19.188  -8.495  -2.300  0.00  0.00    -0.005 C 
ATOM     35  O61 IDU d1218      20.957  -6.302  -3.994  0.00  0.00    -0.646 OA
ATOM     36  O5  IDU d1218      20.184  -9.652  -4.169  0.00  0.00    -0.343 OA
ATOM     37  C1  IDU d1218      20.351 -10.901  -3.477  0.00  0.00     0.161 C 
ATOM     38  O62 IDU d1218      19.294  -7.250  -5.124  0.00  0.00    -0.646 OA
ATOM     39  O1S IDU d1218      16.938 -13.719  -3.250  0.00  0.00    -0.572 OA
ATOM     40  O3S IDU d1218      18.992 -13.946  -2.016  0.00  0.00    -0.572 OA
ATOM     41  O2  IDU d1218      18.209 -11.595  -2.636  0.00  0.00    -0.244 OA
ATOM     42  C6  IDU d1218      20.173  -7.264  -4.214  0.00  0.00     0.203 C 
ATOM     43  C5  IDU d1218      20.297  -8.486  -3.352  0.00  0.00     0.127 C 
ATOM     44  C2  IDU d1218      19.464 -11.052  -2.232  0.00  0.00     0.132 C 
ATOM     45  C3  IDU d1218      19.230  -9.759  -1.437  0.00  0.00     0.069 C 
ATOM     46  O3  IDU d1218      20.243  -9.620  -0.433  0.00  0.00    -0.393 OA
ATOM     47  S   IDU d1218      17.785 -13.112  -2.197  0.00  0.00     0.252 S 
ATOM     48  O2S IDU d1218      17.036 -13.045  -0.923  0.00  0.00    -0.572 OA
ATOM     49  H   IDU d1218      19.303  -7.641  -1.667  0.00  0.00     0.041 H 
ATOM     50  H   IDU d1218      18.247  -8.473  -2.810  0.00  0.00     0.041 H 
ATOM     51  H   IDU d1218      20.018 -11.617  -4.199  0.00  0.00     0.133 H 
ATOM     52  H   IDU d1218      21.247  -8.478  -2.860  0.00  0.00     0.100 H 
ATOM     53  H   IDU d1218      19.993 -11.701  -1.565  0.00  0.00     0.097 H 
ATOM     54  H   IDU d1218      18.262  -9.854  -0.993  0.00  0.00     0.087 H 
ATOM     55  H   IDU d1218      21.110  -9.536  -0.859  0.00  0.00     0.210 HD
ENDROOT
TORSDOF 16
ENDMDL
MODEL 40
REMARK VINA RESULT:      -5.7      3.118      6.257
REMARK  0 active torsions:
REMARK  status: ('A' for Active; 'I' for Inactive)
REMARK       I    between atoms: C2_1  and  N_18 
REMARK       I    between atoms: O4_5  and  C1_17 
REMARK       I    between atoms: O4_5  and  C4_30 
REMARK       I    between atoms: O6_6  and  C6_7 
REMARK       I    between atoms: O6_6  and  S2_22 
REMARK       I    between atoms: C6_7  and  C5_28 
REMARK       I    between atoms: C3_8  and  O3_10 
REMARK       I    between atoms: C1_9  and  O1_16 
REMARK       I    between atoms: S1_12  and  N_18 
REMARK       I    between atoms: S1_12  and  O1S_13 
REMARK       I    between atoms: S1_12  and  O2S_15 
REMARK       I    between atoms: S1_12  and  O3S_26 
REMARK       I    between atoms: O2_24  and  C2_31 
REMARK       I    between atoms: O2_24  and  S_34 
REMARK       I    between atoms: C6_25  and  C5_27 
REMARK       I    between atoms: C3_32  and  O3_33 
ROOT
ATOM      1  C2  SGN d1219      19.902 -13.681  -3.637  0.00  0.00     0.081 C 
ATOM      2  O4  SGN d1219      22.296 -10.892  -4.457  0.00  0.00    -0.348 OA
ATOM      3  O6  SGN d1219      24.507 -14.351  -3.673  0.00  0.00    -0.254 OA
ATOM      4  C6  SGN d1219      24.104 -13.236  -4.442  0.00  0.00     0.067 C 
ATOM      5  C3  SGN d1219      20.405 -12.246  -3.839  0.00  0.00     0.083 C 
ATOM      6  C1  SGN d1219      20.687 -14.706  -4.468  0.00  0.00     0.147 C 
ATOM      7  O3  SGN d1219      19.897 -11.418  -2.812  0.00  0.00    -0.391 OA
ATOM      8  O4S SGN d1219      25.641 -13.309  -1.768  0.00  0.00    -0.572 OA
ATOM      9  S1  SGN d1219      17.458 -14.469  -2.932  0.00  0.00     0.156 S 
ATOM     10  O1S SGN d1219      16.213 -14.666  -3.671  0.00  0.00    -0.296 OA
ATOM     11  O5  SGN d1219      22.081 -14.531  -4.267  0.00  0.00    -0.350 OA
ATOM     12  O2S SGN d1219      17.288 -13.556  -1.802  0.00  0.00    -0.296 OA
ATOM     13  O1  SGN d1219      20.375 -14.603  -5.844  0.00  0.00    -0.369 OA
ATOM     14  N   SGN d1219      18.484 -13.765  -3.944  0.00  0.00    -0.210 NA
ATOM     15  O5S SGN d1219      26.879 -13.870  -3.748  0.00  0.00    -0.572 OA
ATOM     16  S2  SGN d1219      25.822 -14.289  -2.835  0.00  0.00     0.251 S 
ATOM     17  O3S SGN d1219      18.046 -15.744  -2.517  0.00  0.00    -0.296 OA
ATOM     18  C5  SGN d1219      22.596 -13.267  -4.659  0.00  0.00     0.091 C 
ATOM     19  O6S SGN d1219      26.036 -15.630  -2.303  0.00  0.00    -0.572 OA
ATOM     20  C4  SGN d1219      21.934 -12.130  -3.874  0.00  0.00     0.095 C 
ATOM     21  H   SGN d1219      20.062 -13.927  -2.608  0.00  0.00     0.076 H 
ATOM     22  H   SGN d1219      24.600 -13.263  -5.390  0.00  0.00     0.080 H 
ATOM     23  H   SGN d1219      24.365 -12.338  -3.920  0.00  0.00     0.080 H 
ATOM     24  H   SGN d1219      20.048 -11.930  -4.798  0.00  0.00     0.089 H 
ATOM     25  H   SGN d1219      20.404 -15.684  -4.140  0.00  0.00     0.131 H 
ATOM     26  H   SGN d1219      20.233 -11.723  -1.956  0.00  0.00     0.210 HD
ATOM     27  H   SGN d1219      15.851 -13.804  -3.930  0.00  0.00     0.231 HD
ATOM     28  H   SGN d1219      16.897 -12.725  -2.114  0.00  0.00     0.231 HD
ATOM     29  H   SGN d1219      20.622 -13.722  -6.167  0.00  0.00     0.212 HD
ATOM     30  H   SGN d1219      18.407 -14.266  -4.829  0.00  0.00     0.140 HD
ATOM     31  H   SGN d1219      18.143 -16.322  -3.291  0.00  0.00     0.231 HD
ATOM     32  H   SGN d1219      22.378 -13.124  -5.697  0.00  0.00     0.090 H 
ATOM     33  H   SGN d1219      22.280 -12.194  -2.865  0.00  0.00     0.091 H 
ATOM     34  C4  IDU d1218      22.173  -7.107  -3.973  0.00  0.00    -0.005 C 
ATOM     35  O61 IDU d1218      18.894  -7.171  -4.205  0.00  0.00    -0.646 OA
ATOM     36  O5  IDU d1218      21.415  -9.179  -2.995  0.00  0.00    -0.343 OA
ATOM     37  C1  IDU d1218      22.561  -9.944  -3.403  0.00  0.00     0.161 C 
ATOM     38  O62 IDU d1218      19.696  -7.236  -2.133  0.00  0.00    -0.646 OA
ATOM     39  O1S IDU d1218      26.227  -9.838  -0.914  0.00  0.00    -0.572 OA
ATOM     40  O3S IDU d1218      26.082 -10.822  -3.107  0.00  0.00    -0.572 OA
ATOM     41  O2  IDU d1218      24.535  -8.865  -2.556  0.00  0.00    -0.244 OA
ATOM     42  C6  IDU d1218      19.793  -7.466  -3.373  0.00  0.00     0.203 C 
ATOM     43  C5  IDU d1218      21.039  -8.128  -3.886  0.00  0.00     0.127 C 
ATOM     44  C2  IDU d1218      23.792  -9.094  -3.751  0.00  0.00     0.132 C 
ATOM     45  C3  IDU d1218      23.486  -7.750  -4.428  0.00  0.00     0.069 C 
ATOM     46  O3  IDU d1218      23.469  -7.919  -5.851  0.00  0.00    -0.393 OA
ATOM     47  S   IDU d1218      26.004  -9.553  -2.350  0.00  0.00     0.252 S 
ATOM     48  O2S IDU d1218      27.038  -8.619  -2.847  0.00  0.00    -0.572 OA
ATOM     49  H   IDU d1218      21.900  -6.345  -4.673  0.00  0.00     0.041 H 
ATOM     50  H   IDU d1218      22.326  -6.697  -2.996  0.00  0.00     0.041 H 
ATOM     51  H   IDU d1218      22.796 -10.506  -2.523  0.00  0.00     0.133 H 
ATOM     52  H   IDU d1218      20.851  -8.528  -4.861  0.00  0.00     0.100 H 
ATOM     53  H   IDU d1218      24.348  -9.654  -4.475  0.00  0.00     0.097 H 
ATOM     54  H   IDU d1218      24.267  -7.082  -4.131  0.00  0.00     0.087 H 
ATOM     55  H   IDU d1218      22.754  -8.527  -6.095  0.00  0.00     0.210 HD
ENDROOT
TORSDOF 16
ENDMDL
MODEL 41
REMARK VINA RESULT:      -5.7      3.507      5.678
REMARK  0 active torsions:
REMARK  status: ('A' for Active; 'I' for Inactive)
REMARK       I    between atoms: C2_1  and  N_18 
REMARK       I    between atoms: O4_5  and  C1_17 
REMARK       I    between atoms: O4_5  and  C4_30 
REMARK       I    between atoms: O6_6  and  C6_7 
REMARK       I    between atoms: O6_6  and  S2_22 
REMARK       I    between atoms: C6_7  and  C5_28 
REMARK       I    between atoms: C3_8  and  O3_10 
REMARK       I    between atoms: C1_9  and  O1_16 
REMARK       I    between atoms: S1_12  and  N_18 
REMARK       I    between atoms: S1_12  and  O1S_13 
REMARK       I    between atoms: S1_12  and  O2S_15 
REMARK       I    between atoms: S1_12  and  O3S_26 
REMARK       I    between atoms: O2_24  and  C2_31 
REMARK       I    between atoms: O2_24  and  S_34 
REMARK       I    between atoms: C6_25  and  C5_27 
REMARK       I    between atoms: C3_32  and  O3_33 
ROOT
ATOM      1  C2  SGN d1219      24.458 -11.833  -1.559  0.00  0.00     0.081 C 
ATOM      2  O4  SGN d1219      22.396  -9.765  -3.937  0.00  0.00    -0.348 OA
ATOM      3  O6  SGN d1219      26.200 -10.288  -5.589  0.00  0.00    -0.254 OA
ATOM      4  C6  SGN d1219      24.788 -10.346  -5.582  0.00  0.00     0.067 C 
ATOM      5  C3  SGN d1219      23.318 -10.926  -2.041  0.00  0.00     0.083 C 
ATOM      6  C1  SGN d1219      25.068 -12.670  -2.692  0.00  0.00     0.147 C 
ATOM      7  O3  SGN d1219      23.043  -9.948  -1.059  0.00  0.00    -0.391 OA
ATOM      8  O4S SGN d1219      26.639  -7.879  -5.581  0.00  0.00    -0.572 OA
ATOM      9  S1  SGN d1219      24.820 -12.840   0.880  0.00  0.00     0.156 S 
ATOM     10  O1S SGN d1219      24.269 -13.996   1.582  0.00  0.00    -0.296 OA
ATOM     11  O5  SGN d1219      25.398 -11.837  -3.791  0.00  0.00    -0.350 OA
ATOM     12  O2S SGN d1219      24.618 -11.597   1.625  0.00  0.00    -0.296 OA
ATOM     13  O1  SGN d1219      24.189 -13.699  -3.104  0.00  0.00    -0.369 OA
ATOM     14  N   SGN d1219      23.993 -12.697  -0.487  0.00  0.00    -0.210 NA
ATOM     15  O5S SGN d1219      26.395  -9.053  -7.662  0.00  0.00    -0.572 OA
ATOM     16  S2  SGN d1219      26.930  -9.112  -6.307  0.00  0.00     0.251 S 
ATOM     17  O3S SGN d1219      26.227 -13.041   0.530  0.00  0.00    -0.296 OA
ATOM     18  C5  SGN d1219      24.302 -11.157  -4.386  0.00  0.00     0.091 C 
ATOM     19  O6S SGN d1219      28.353  -9.429  -6.276  0.00  0.00    -0.572 OA
ATOM     20  C4  SGN d1219      23.610 -10.233  -3.379  0.00  0.00     0.095 C 
ATOM     21  H   SGN d1219      25.234 -11.192  -1.193  0.00  0.00     0.076 H 
ATOM     22  H   SGN d1219      24.449 -10.809  -6.485  0.00  0.00     0.080 H 
ATOM     23  H   SGN d1219      24.397  -9.352  -5.514  0.00  0.00     0.080 H 
ATOM     24  H   SGN d1219      22.471 -11.560  -2.200  0.00  0.00     0.089 H 
ATOM     25  H   SGN d1219      25.959 -13.131  -2.319  0.00  0.00     0.131 H 
ATOM     26  H   SGN d1219      23.824  -9.387  -0.934  0.00  0.00     0.210 HD
ATOM     27  H   SGN d1219      23.337 -13.829   1.797  0.00  0.00     0.231 HD
ATOM     28  H   SGN d1219      23.677 -11.497   1.838  0.00  0.00     0.231 HD
ATOM     29  H   SGN d1219      23.370 -13.307  -3.446  0.00  0.00     0.212 HD
ATOM     30  H   SGN d1219      23.922 -13.635  -0.881  0.00  0.00     0.140 HD
ATOM     31  H   SGN d1219      26.322 -13.872   0.039  0.00  0.00     0.231 HD
ATOM     32  H   SGN d1219      23.591 -11.887  -4.710  0.00  0.00     0.090 H 
ATOM     33  H   SGN d1219      24.276  -9.422  -3.177  0.00  0.00     0.091 H 
ATOM     34  C4  IDU d1218      19.536  -7.284  -3.449  0.00  0.00    -0.005 C 
ATOM     35  O61 IDU d1218      18.602  -8.877  -0.728  0.00  0.00    -0.646 OA
ATOM     36  O5  IDU d1218      21.528  -8.130  -2.381  0.00  0.00    -0.343 OA
ATOM     37  C1  IDU d1218      22.241  -8.371  -3.606  0.00  0.00     0.161 C 
ATOM     38  O62 IDU d1218      19.940  -7.134  -0.391  0.00  0.00    -0.646 OA
ATOM     39  O1S IDU d1218      24.412  -5.021  -5.533  0.00  0.00    -0.572 OA
ATOM     40  O3S IDU d1218      24.038  -7.177  -6.539  0.00  0.00    -0.572 OA
ATOM     41  O2  IDU d1218      22.323  -6.316  -4.851  0.00  0.00    -0.244 OA
ATOM     42  C6  IDU d1218      19.510  -8.088  -1.102  0.00  0.00     0.203 C 
ATOM     43  C5  IDU d1218      20.111  -8.299  -2.462  0.00  0.00     0.127 C 
ATOM     44  C2  IDU d1218      21.694  -7.595  -4.813  0.00  0.00     0.132 C 
ATOM     45  C3  IDU d1218      20.169  -7.415  -4.837  0.00  0.00     0.069 C 
ATOM     46  O3  IDU d1218      19.564  -8.509  -5.538  0.00  0.00    -0.393 OA
ATOM     47  S   IDU d1218      23.377  -5.949  -6.047  0.00  0.00     0.252 S 
ATOM     48  O2S IDU d1218      22.633  -5.312  -7.155  0.00  0.00    -0.572 OA
ATOM     49  H   IDU d1218      18.481  -7.444  -3.534  0.00  0.00     0.041 H 
ATOM     50  H   IDU d1218      19.748  -6.303  -3.078  0.00  0.00     0.041 H 
ATOM     51  H   IDU d1218      23.216  -7.985  -3.390  0.00  0.00     0.133 H 
ATOM     52  H   IDU d1218      19.882  -9.288  -2.800  0.00  0.00     0.100 H 
ATOM     53  H   IDU d1218      21.921  -8.186  -5.677  0.00  0.00     0.097 H 
ATOM     54  H   IDU d1218      19.986  -6.490  -5.340  0.00  0.00     0.087 H 
ATOM     55  H   IDU d1218      19.744  -9.336  -5.064  0.00  0.00     0.210 HD
ENDROOT
TORSDOF 16
ENDMDL
MODEL 42
REMARK VINA RESULT:      -5.7      3.592      8.546
REMARK  0 active torsions:
REMARK  status: ('A' for Active; 'I' for Inactive)
REMARK       I    between atoms: C2_1  and  N_18 
REMARK       I    between atoms: O4_5  and  C1_17 
REMARK       I    between atoms: O4_5  and  C4_30 
REMARK       I    between atoms: O6_6  and  C6_7 
REMARK       I    between atoms: O6_6  and  S2_22 
REMARK       I    between atoms: C6_7  and  C5_28 
REMARK       I    between atoms: C3_8  and  O3_10 
REMARK       I    between atoms: C1_9  and  O1_16 
REMARK       I    between atoms: S1_12  and  N_18 
REMARK       I    between atoms: S1_12  and  O1S_13 
REMARK       I    between atoms: S1_12  and  O2S_15 
REMARK       I    between atoms: S1_12  and  O3S_26 
REMARK       I    between atoms: O2_24  and  C2_31 
REMARK       I    between atoms: O2_24  and  S_34 
REMARK       I    between atoms: C6_25  and  C5_27 
REMARK       I    between atoms: C3_32  and  O3_33 
ROOT
ATOM      1  C2  SGN d1219      21.825  -8.023  -1.399  0.00  0.00     0.081 C 
ATOM      2  O4  SGN d1219      23.302  -8.541  -4.825  0.00  0.00    -0.348 OA
ATOM      3  O6  SGN d1219      20.136 -11.223  -4.325  0.00  0.00    -0.254 OA
ATOM      4  C6  SGN d1219      20.854 -10.199  -4.981  0.00  0.00     0.067 C 
ATOM      5  C3  SGN d1219      22.857  -7.955  -2.533  0.00  0.00     0.083 C 
ATOM      6  C1  SGN d1219      20.385  -8.144  -1.915  0.00  0.00     0.147 C 
ATOM      7  O3  SGN d1219      24.148  -8.197  -2.014  0.00  0.00    -0.391 OA
ATOM      8  O4S SGN d1219      21.612 -13.161  -4.580  0.00  0.00    -0.572 OA
ATOM      9  S1  SGN d1219      22.039  -7.024   1.060  0.00  0.00     0.156 S 
ATOM     10  O1S SGN d1219      21.837  -5.692   1.625  0.00  0.00    -0.296 OA
ATOM     11  O5  SGN d1219      20.294  -9.195  -2.863  0.00  0.00    -0.350 OA
ATOM     12  O2S SGN d1219      23.370  -7.552   1.360  0.00  0.00    -0.296 OA
ATOM     13  O1  SGN d1219      19.938  -6.930  -2.487  0.00  0.00    -0.369 OA
ATOM     14  N   SGN d1219      21.954  -6.863  -0.533  0.00  0.00    -0.210 NA
ATOM     15  O5S SGN d1219      19.954 -12.681  -6.250  0.00  0.00    -0.572 OA
ATOM     16  S2  SGN d1219      20.248 -12.698  -4.822  0.00  0.00     0.251 S 
ATOM     17  O3S SGN d1219      20.982  -7.949   1.471  0.00  0.00    -0.296 OA
ATOM     18  C5  SGN d1219      21.089  -9.031  -4.029  0.00  0.00     0.091 C 
ATOM     19  O6S SGN d1219      19.276 -13.467  -4.055  0.00  0.00    -0.572 OA
ATOM     20  C4  SGN d1219      22.577  -8.940  -3.676  0.00  0.00     0.095 C 
ATOM     21  H   SGN d1219      22.032  -8.912  -0.841  0.00  0.00     0.076 H 
ATOM     22  H   SGN d1219      20.292  -9.858  -5.826  0.00  0.00     0.080 H 
ATOM     23  H   SGN d1219      21.799 -10.583  -5.303  0.00  0.00     0.080 H 
ATOM     24  H   SGN d1219      22.789  -6.971  -2.949  0.00  0.00     0.089 H 
ATOM     25  H   SGN d1219      19.752  -8.366  -1.081  0.00  0.00     0.131 H 
ATOM     26  H   SGN d1219      24.185  -9.093  -1.644  0.00  0.00     0.210 HD
ATOM     27  H   SGN d1219      22.553  -5.105   1.333  0.00  0.00     0.231 HD
ATOM     28  H   SGN d1219      24.042  -6.913   1.074  0.00  0.00     0.231 HD
ATOM     29  H   SGN d1219      20.496  -6.705  -3.247  0.00  0.00     0.212 HD
ATOM     30  H   SGN d1219      21.146  -6.269  -0.721  0.00  0.00     0.140 HD
ATOM     31  H   SGN d1219      20.116  -7.566   1.257  0.00  0.00     0.231 HD
ATOM     32  H   SGN d1219      20.803  -8.116  -4.503  0.00  0.00     0.090 H 
ATOM     33  H   SGN d1219      22.888  -9.908  -3.344  0.00  0.00     0.091 H 
ATOM     34  C4  IDU d1218      26.816  -8.115  -6.254  0.00  0.00    -0.005 C 
ATOM     35  O61 IDU d1218      27.437  -5.750  -4.057  0.00  0.00    -0.646 OA
ATOM     36  O5  IDU d1218      25.641  -8.682  -4.225  0.00  0.00    -0.343 OA
ATOM     37  C1  IDU d1218      24.526  -9.302  -4.887  0.00  0.00     0.161 C 
ATOM     38  O62 IDU d1218      28.111  -7.786  -3.470  0.00  0.00    -0.646 OA
ATOM     39  O1S IDU d1218      24.851 -13.535  -6.159  0.00  0.00    -0.572 OA
ATOM     40  O3S IDU d1218      23.062 -12.047  -6.778  0.00  0.00    -0.572 OA
ATOM     41  O2  IDU d1218      25.365 -11.042  -6.317  0.00  0.00    -0.244 OA
ATOM     42  C6  IDU d1218      27.338  -7.005  -4.098  0.00  0.00     0.203 C 
ATOM     43  C5  IDU d1218      26.242  -7.598  -4.936  0.00  0.00     0.127 C 
ATOM     44  C2  IDU d1218      24.813  -9.727  -6.334  0.00  0.00     0.132 C 
ATOM     45  C3  IDU d1218      25.747  -8.791  -7.116  0.00  0.00     0.069 C 
ATOM     46  O3  IDU d1218      24.973  -7.792  -7.792  0.00  0.00    -0.393 OA
ATOM     47  S   IDU d1218      24.512 -12.304  -6.911  0.00  0.00     0.252 S 
ATOM     48  O2S IDU d1218      24.853 -12.476  -8.340  0.00  0.00    -0.572 OA
ATOM     49  H   IDU d1218      27.229  -7.291  -6.798  0.00  0.00     0.041 H 
ATOM     50  H   IDU d1218      27.568  -8.842  -6.027  0.00  0.00     0.041 H 
ATOM     51  H   IDU d1218      24.376 -10.192  -4.313  0.00  0.00     0.133 H 
ATOM     52  H   IDU d1218      25.509  -6.847  -5.142  0.00  0.00     0.100 H 
ATOM     53  H   IDU d1218      23.876  -9.686  -6.851  0.00  0.00     0.097 H 
ATOM     54  H   IDU d1218      26.270  -9.409  -7.816  0.00  0.00     0.087 H 
ATOM     55  H   IDU d1218      24.509  -7.246  -7.138  0.00  0.00     0.210 HD
ENDROOT
TORSDOF 16
ENDMDL
MODEL 43
REMARK VINA RESULT:      -5.7      3.278      7.237
REMARK  0 active torsions:
REMARK  status: ('A' for Active; 'I' for Inactive)
REMARK       I    between atoms: C2_1  and  N_18 
REMARK       I    between atoms: O4_5  and  C1_17 
REMARK       I    between atoms: O4_5  and  C4_30 
REMARK       I    between atoms: O6_6  and  C6_7 
REMARK       I    between atoms: O6_6  and  S2_22 
REMARK       I    between atoms: C6_7  and  C5_28 
REMARK       I    between atoms: C3_8  and  O3_10 
REMARK       I    between atoms: C1_9  and  O1_16 
REMARK       I    between atoms: S1_12  and  N_18 
REMARK       I    between atoms: S1_12  and  O1S_13 
REMARK       I    between atoms: S1_12  and  O2S_15 
REMARK       I    between atoms: S1_12  and  O3S_26 
REMARK       I    between atoms: O2_24  and  C2_31 
REMARK       I    between atoms: O2_24  and  S_34 
REMARK       I    between atoms: C6_25  and  C5_27 
REMARK       I    between atoms: C3_32  and  O3_33 
ROOT
ATOM      1  C2  SGN d1219      21.575  -8.909  -2.105  0.00  0.00     0.081 C 
ATOM      2  O4  SGN d1219      23.800 -11.137  -4.171  0.00  0.00    -0.348 OA
ATOM      3  O6  SGN d1219      24.965  -7.170  -4.776  0.00  0.00    -0.254 OA
ATOM      4  C6  SGN d1219      25.169  -8.526  -4.437  0.00  0.00     0.067 C 
ATOM      5  C3  SGN d1219      22.038 -10.170  -2.847  0.00  0.00     0.083 C 
ATOM      6  C1  SGN d1219      22.744  -8.019  -1.662  0.00  0.00     0.147 C 
ATOM      7  O3  SGN d1219      20.942 -10.752  -3.522  0.00  0.00    -0.391 OA
ATOM      8  O4S SGN d1219      24.454  -7.284  -7.169  0.00  0.00    -0.572 OA
ATOM      9  S1  SGN d1219      19.336  -8.573  -0.702  0.00  0.00     0.156 S 
ATOM     10  O1S SGN d1219      18.944  -8.918   0.662  0.00  0.00    -0.296 OA
ATOM     11  O5  SGN d1219      23.614  -7.777  -2.756  0.00  0.00    -0.350 OA
ATOM     12  O2S SGN d1219      18.411  -9.120  -1.695  0.00  0.00    -0.296 OA
ATOM     13  O1  SGN d1219      23.458  -8.601  -0.589  0.00  0.00    -0.369 OA
ATOM     14  N   SGN d1219      20.756  -9.272  -0.960  0.00  0.00    -0.210 NA
ATOM     15  O5S SGN d1219      26.728  -7.052  -6.432  0.00  0.00    -0.572 OA
ATOM     16  S2  SGN d1219      25.345  -6.654  -6.199  0.00  0.00     0.251 S 
ATOM     17  O3S SGN d1219      19.515  -7.129  -0.863  0.00  0.00    -0.296 OA
ATOM     18  C5  SGN d1219      24.223  -8.934  -3.314  0.00  0.00     0.091 C 
ATOM     19  O6S SGN d1219      25.173  -5.206  -6.172  0.00  0.00    -0.572 OA
ATOM     20  C4  SGN d1219      23.171  -9.911  -3.849  0.00  0.00     0.095 C 
ATOM     21  H   SGN d1219      20.991  -8.337  -2.796  0.00  0.00     0.076 H 
ATOM     22  H   SGN d1219      26.180  -8.663  -4.116  0.00  0.00     0.080 H 
ATOM     23  H   SGN d1219      24.975  -9.135  -5.296  0.00  0.00     0.080 H 
ATOM     24  H   SGN d1219      22.429 -10.835  -2.104  0.00  0.00     0.089 H 
ATOM     25  H   SGN d1219      22.341  -7.088  -1.322  0.00  0.00     0.131 H 
ATOM     26  H   SGN d1219      20.607 -10.133  -4.188  0.00  0.00     0.210 HD
ATOM     27  H   SGN d1219      18.835  -9.880   0.733  0.00  0.00     0.231 HD
ATOM     28  H   SGN d1219      18.318 -10.076  -1.558  0.00  0.00     0.231 HD
ATOM     29  H   SGN d1219      23.835  -9.449  -0.873  0.00  0.00     0.212 HD
ATOM     30  H   SGN d1219      21.322  -9.092  -0.131  0.00  0.00     0.140 HD
ATOM     31  H   SGN d1219      20.132  -6.803  -0.190  0.00  0.00     0.231 HD
ATOM     32  H   SGN d1219      24.773  -9.428  -2.541  0.00  0.00     0.090 H 
ATOM     33  H   SGN d1219      22.732  -9.466  -4.716  0.00  0.00     0.091 H 
ATOM     34  C4  IDU d1218      23.272 -14.514  -5.873  0.00  0.00    -0.005 C 
ATOM     35  O61 IDU d1218      21.050 -15.331  -3.591  0.00  0.00    -0.646 OA
ATOM     36  O5  IDU d1218      22.108 -12.498  -5.237  0.00  0.00    -0.343 OA
ATOM     37  C1  IDU d1218      23.243 -11.632  -5.406  0.00  0.00     0.161 C 
ATOM     38  O62 IDU d1218      20.213 -14.456  -5.456  0.00  0.00    -0.646 OA
ATOM     39  O1S IDU d1218      24.196 -10.087  -9.449  0.00  0.00    -0.572 OA
ATOM     40  O3S IDU d1218      25.623  -9.869  -7.522  0.00  0.00    -0.572 OA
ATOM     41  O2  IDU d1218      24.065 -11.889  -7.650  0.00  0.00    -0.244 OA
ATOM     42  C6  IDU d1218      21.141 -14.590  -4.606  0.00  0.00     0.203 C 
ATOM     43  C5  IDU d1218      22.417 -13.826  -4.809  0.00  0.00     0.127 C 
ATOM     44  C2  IDU d1218      24.352 -12.217  -6.292  0.00  0.00     0.132 C 
ATOM     45  C3  IDU d1218      24.557 -13.734  -6.165  0.00  0.00     0.069 C 
ATOM     46  O3  IDU d1218      25.525 -14.007  -5.144  0.00  0.00    -0.393 OA
ATOM     47  S   IDU d1218      25.012 -10.832  -8.462  0.00  0.00     0.252 S 
ATOM     48  O2S IDU d1218      26.079 -11.588  -9.156  0.00  0.00    -0.572 OA
ATOM     49  H   IDU d1218      23.533 -15.493  -5.527  0.00  0.00     0.041 H 
ATOM     50  H   IDU d1218      22.701 -14.564  -6.777  0.00  0.00     0.041 H 
ATOM     51  H   IDU d1218      22.825 -10.794  -5.924  0.00  0.00     0.133 H 
ATOM     52  H   IDU d1218      22.960 -13.794  -3.888  0.00  0.00     0.100 H 
ATOM     53  H   IDU d1218      25.269 -11.780  -5.952  0.00  0.00     0.097 H 
ATOM     54  H   IDU d1218      24.902 -14.069  -7.120  0.00  0.00     0.087 H 
ATOM     55  H   IDU d1218      25.190 -13.694  -4.289  0.00  0.00     0.210 HD
ENDROOT
TORSDOF 16
ENDMDL
MODEL 44
REMARK VINA RESULT:      -5.6      2.773      6.682
REMARK  0 active torsions:
REMARK  status: ('A' for Active; 'I' for Inactive)
REMARK       I    between atoms: C2_1  and  N_18 
REMARK       I    between atoms: O4_5  and  C1_17 
REMARK       I    between atoms: O4_5  and  C4_30 
REMARK       I    between atoms: O6_6  and  C6_7 
REMARK       I    between atoms: O6_6  and  S2_22 
REMARK       I    between atoms: C6_7  and  C5_28 
REMARK       I    between atoms: C3_8  and  O3_10 
REMARK       I    between atoms: C1_9  and  O1_16 
REMARK       I    between atoms: S1_12  and  N_18 
REMARK       I    between atoms: S1_12  and  O1S_13 
REMARK       I    between atoms: S1_12  and  O2S_15 
REMARK       I    between atoms: S1_12  and  O3S_26 
REMARK       I    between atoms: O2_24  and  C2_31 
REMARK       I    between atoms: O2_24  and  S_34 
REMARK       I    between atoms: C6_25  and  C5_27 
REMARK       I    between atoms: C3_32  and  O3_33 
ROOT
ATOM      1  C2  SGN d1219      20.078  -9.883  -1.188  0.00  0.00     0.081 C 
ATOM      2  O4  SGN d1219      22.782 -11.797  -2.980  0.00  0.00    -0.348 OA
ATOM      3  O6  SGN d1219      23.523  -7.709  -3.439  0.00  0.00    -0.254 OA
ATOM      4  C6  SGN d1219      23.848  -9.037  -3.080  0.00  0.00     0.067 C 
ATOM      5  C3  SGN d1219      20.774 -11.068  -1.871  0.00  0.00     0.083 C 
ATOM      6  C1  SGN d1219      21.072  -8.866  -0.609  0.00  0.00     0.147 C 
ATOM      7  O3  SGN d1219      19.842 -11.767  -2.671  0.00  0.00    -0.391 OA
ATOM      8  O4S SGN d1219      23.311  -7.847  -5.875  0.00  0.00    -0.572 OA
ATOM      9  S1  SGN d1219      17.667  -9.840  -0.058  0.00  0.00     0.156 S 
ATOM     10  O1S SGN d1219      17.163 -10.250   1.250  0.00  0.00    -0.296 OA
ATOM     11  O5  SGN d1219      22.028  -8.505  -1.593  0.00  0.00    -0.350 OA
ATOM     12  O2S SGN d1219      16.937 -10.478  -1.153  0.00  0.00    -0.296 OA
ATOM     13  O1  SGN d1219      21.721  -9.375   0.540  0.00  0.00    -0.369 OA
ATOM     14  N   SGN d1219      19.181 -10.359  -0.148  0.00  0.00    -0.210 NA
ATOM     15  O5S SGN d1219      25.439  -7.356  -4.876  0.00  0.00    -0.572 OA
ATOM     16  S2  SGN d1219      24.001  -7.129  -4.806  0.00  0.00     0.251 S 
ATOM     17  O3S SGN d1219      17.687  -8.382  -0.195  0.00  0.00    -0.296 OA
ATOM     18  C5  SGN d1219      22.833  -9.572  -2.076  0.00  0.00     0.091 C 
ATOM     19  O6S SGN d1219      23.653  -5.714  -4.798  0.00  0.00    -0.572 OA
ATOM     20  C4  SGN d1219      21.977 -10.660  -2.732  0.00  0.00     0.095 C 
ATOM     21  H   SGN d1219      19.515  -9.374  -1.942  0.00  0.00     0.076 H 
ATOM     22  H   SGN d1219      24.823  -9.056  -2.642  0.00  0.00     0.080 H 
ATOM     23  H   SGN d1219      23.830  -9.651  -3.957  0.00  0.00     0.080 H 
ATOM     24  H   SGN d1219      21.152 -11.692  -1.089  0.00  0.00     0.089 H 
ATOM     25  H   SGN d1219      20.522  -7.996  -0.317  0.00  0.00     0.131 H 
ATOM     26  H   SGN d1219      19.515 -11.182  -3.372  0.00  0.00     0.210 HD
ATOM     27  H   SGN d1219      17.163 -11.218   1.307  0.00  0.00     0.231 HD
ATOM     28  H   SGN d1219      16.945 -11.440  -1.029  0.00  0.00     0.231 HD
ATOM     29  H   SGN d1219      22.228 -10.167   0.301  0.00  0.00     0.212 HD
ATOM     30  H   SGN d1219      19.621 -10.126   0.743  0.00  0.00     0.140 HD
ATOM     31  H   SGN d1219      18.178  -7.995   0.547  0.00  0.00     0.231 HD
ATOM     32  H   SGN d1219      23.344 -10.009  -1.244  0.00  0.00     0.090 H 
ATOM     33  H   SGN d1219      21.591 -10.257  -3.645  0.00  0.00     0.091 H 
ATOM     34  C4  IDU d1218      22.868 -15.186  -4.736  0.00  0.00    -0.005 C 
ATOM     35  O61 IDU d1218      20.510 -16.298  -2.733  0.00  0.00    -0.646 OA
ATOM     36  O5  IDU d1218      21.403 -13.334  -4.240  0.00  0.00    -0.343 OA
ATOM     37  C1  IDU d1218      22.437 -12.335  -4.273  0.00  0.00     0.161 C 
ATOM     38  O62 IDU d1218      19.796 -15.501  -4.682  0.00  0.00    -0.646 OA
ATOM     39  O1S IDU d1218      23.662 -10.625  -8.173  0.00  0.00    -0.572 OA
ATOM     40  O3S IDU d1218      24.818 -10.267  -6.091  0.00  0.00    -0.572 OA
ATOM     41  O2  IDU d1218      23.541 -12.458  -6.404  0.00  0.00    -0.244 OA
ATOM     42  C6  IDU d1218      20.628 -15.535  -3.729  0.00  0.00     0.203 C 
ATOM     43  C5  IDU d1218      21.818 -14.621  -3.780  0.00  0.00     0.127 C 
ATOM     44  C2  IDU d1218      23.704 -12.770  -5.022  0.00  0.00     0.132 C 
ATOM     45  C3  IDU d1218      24.075 -14.253  -4.874  0.00  0.00     0.069 C 
ATOM     46  O3  IDU d1218      24.943 -14.424  -3.747  0.00  0.00    -0.393 OA
ATOM     47  S   IDU d1218      24.441 -11.282  -7.098  0.00  0.00     0.252 S 
ATOM     48  O2S IDU d1218      25.665 -11.894  -7.663  0.00  0.00    -0.572 OA
ATOM     49  H   IDU d1218      23.203 -16.131  -4.363  0.00  0.00     0.041 H 
ATOM     50  H   IDU d1218      22.417 -15.290  -5.701  0.00  0.00     0.041 H 
ATOM     51  H   IDU d1218      21.984 -11.546  -4.835  0.00  0.00     0.133 H 
ATOM     52  H   IDU d1218      22.242 -14.538  -2.801  0.00  0.00     0.100 H 
ATOM     53  H   IDU d1218      24.515 -12.232  -4.577  0.00  0.00     0.097 H 
ATOM     54  H   IDU d1218      24.567 -14.530  -5.782  0.00  0.00     0.087 H 
ATOM     55  H   IDU d1218      24.475 -14.167  -2.937  0.00  0.00     0.210 HD
ENDROOT
TORSDOF 16
ENDMDL
MODEL 45
REMARK VINA RESULT:      -5.6      4.540      7.608
REMARK  0 active torsions:
REMARK  status: ('A' for Active; 'I' for Inactive)
REMARK       I    between atoms: C2_1  and  N_18 
REMARK       I    between atoms: O4_5  and  C1_17 
REMARK       I    between atoms: O4_5  and  C4_30 
REMARK       I    between atoms: O6_6  and  C6_7 
REMARK       I    between atoms: O6_6  and  S2_22 
REMARK       I    between atoms: C6_7  and  C5_28 
REMARK       I    between atoms: C3_8  and  O3_10 
REMARK       I    between atoms: C1_9  and  O1_16 
REMARK       I    between atoms: S1_12  and  N_18 
REMARK       I    between atoms: S1_12  and  O1S_13 
REMARK       I    between atoms: S1_12  and  O2S_15 
REMARK       I    between atoms: S1_12  and  O3S_26 
REMARK       I    between atoms: O2_24  and  C2_31 
REMARK       I    between atoms: O2_24  and  S_34 
REMARK       I    between atoms: C6_25  and  C5_27 
REMARK       I    between atoms: C3_32  and  O3_33 
ROOT
ATOM      1  C2  SGN d1219      26.503  -9.707  -1.393  0.00  0.00     0.081 C 
ATOM      2  O4  SGN d1219      24.172  -7.273  -3.074  0.00  0.00    -0.348 OA
ATOM      3  O6  SGN d1219      22.373  -8.613   0.452  0.00  0.00    -0.254 OA
ATOM      4  C6  SGN d1219      22.852  -7.636  -0.450  0.00  0.00     0.067 C 
ATOM      5  C3  SGN d1219      25.897  -8.857  -2.517  0.00  0.00     0.083 C 
ATOM      6  C1  SGN d1219      26.231  -9.126   0.002  0.00  0.00     0.147 C 
ATOM      7  O3  SGN d1219      25.872  -9.605  -3.715  0.00  0.00    -0.391 OA
ATOM      8  O4S SGN d1219      20.489  -9.593  -0.769  0.00  0.00    -0.572 OA
ATOM      9  S1  SGN d1219      28.621 -11.316  -1.526  0.00  0.00     0.156 S 
ATOM     10  O1S SGN d1219      30.062 -11.088  -1.456  0.00  0.00    -0.296 OA
ATOM     11  O5  SGN d1219      24.849  -8.843   0.151  0.00  0.00    -0.350 OA
ATOM     12  O2S SGN d1219      28.236 -12.029  -2.744  0.00  0.00    -0.296 OA
ATOM     13  O1  SGN d1219      26.996  -7.958   0.233  0.00  0.00    -0.369 OA
ATOM     14  N   SGN d1219      27.932  -9.870  -1.601  0.00  0.00    -0.210 NA
ATOM     15  O5S SGN d1219      20.142  -7.695   0.661  0.00  0.00    -0.572 OA
ATOM     16  S2  SGN d1219      20.852  -8.958   0.495  0.00  0.00     0.251 S 
ATOM     17  O3S SGN d1219      28.122 -11.985  -0.324  0.00  0.00    -0.296 OA
ATOM     18  C5  SGN d1219      24.325  -7.884  -0.756  0.00  0.00     0.091 C 
ATOM     19  O6S SGN d1219      20.665  -9.862   1.623  0.00  0.00    -0.572 OA
ATOM     20  C4  SGN d1219      24.483  -8.348  -2.207  0.00  0.00     0.095 C 
ATOM     21  H   SGN d1219      26.024 -10.663  -1.431  0.00  0.00     0.076 H 
ATOM     22  H   SGN d1219      22.739  -6.666  -0.013  0.00  0.00     0.080 H 
ATOM     23  H   SGN d1219      22.291  -7.693  -1.359  0.00  0.00     0.080 H 
ATOM     24  H   SGN d1219      26.521  -7.993  -2.616  0.00  0.00     0.089 H 
ATOM     25  H   SGN d1219      26.521  -9.857   0.727  0.00  0.00     0.131 H 
ATOM     26  H   SGN d1219      25.301 -10.380  -3.601  0.00  0.00     0.210 HD
ATOM     27  H   SGN d1219      30.359 -10.644  -2.266  0.00  0.00     0.231 HD
ATOM     28  H   SGN d1219      28.583 -11.557  -3.518  0.00  0.00     0.231 HD
ATOM     29  H   SGN d1219      26.751  -7.278  -0.414  0.00  0.00     0.212 HD
ATOM     30  H   SGN d1219      28.395  -9.293  -0.898  0.00  0.00     0.140 HD
ATOM     31  H   SGN d1219      28.396 -11.486   0.461  0.00  0.00     0.231 HD
ATOM     32  H   SGN d1219      24.876  -6.974  -0.637  0.00  0.00     0.090 H 
ATOM     33  H   SGN d1219      23.812  -9.167  -2.356  0.00  0.00     0.091 H 
ATOM     34  C4  IDU d1218      23.544  -6.343  -6.723  0.00  0.00    -0.005 C 
ATOM     35  O61 IDU d1218      26.658  -7.092  -7.464  0.00  0.00    -0.646 OA
ATOM     36  O5  IDU d1218      24.203  -8.187  -5.314  0.00  0.00    -0.343 OA
ATOM     37  C1  IDU d1218      23.408  -7.782  -4.186  0.00  0.00     0.161 C 
ATOM     38  O62 IDU d1218      25.187  -8.723  -7.808  0.00  0.00    -0.646 OA
ATOM     39  O1S IDU d1218      19.122  -8.904  -4.052  0.00  0.00    -0.572 OA
ATOM     40  O3S IDU d1218      20.189  -7.367  -2.537  0.00  0.00    -0.572 OA
ATOM     41  O2  IDU d1218      21.124  -7.574  -4.906  0.00  0.00    -0.244 OA
ATOM     42  C6  IDU d1218      25.576  -7.682  -7.202  0.00  0.00     0.203 C 
ATOM     43  C5  IDU d1218      24.711  -7.117  -6.113  0.00  0.00     0.127 C 
ATOM     44  C2  IDU d1218      22.271  -6.811  -4.537  0.00  0.00     0.132 C 
ATOM     45  C3  IDU d1218      22.594  -5.803  -5.651  0.00  0.00     0.069 C 
ATOM     46  O3  IDU d1218      23.145  -4.611  -5.078  0.00  0.00    -0.393 OA
ATOM     47  S   IDU d1218      19.800  -7.591  -3.946  0.00  0.00     0.252 S 
ATOM     48  O2S IDU d1218      18.884  -6.513  -4.382  0.00  0.00    -0.572 OA
ATOM     49  H   IDU d1218      23.932  -5.520  -7.287  0.00  0.00     0.041 H 
ATOM     50  H   IDU d1218      22.992  -7.013  -7.349  0.00  0.00     0.041 H 
ATOM     51  H   IDU d1218      22.961  -8.701  -3.871  0.00  0.00     0.133 H 
ATOM     52  H   IDU d1218      25.293  -6.456  -5.506  0.00  0.00     0.100 H 
ATOM     53  H   IDU d1218      22.102  -6.218  -3.662  0.00  0.00     0.097 H 
ATOM     54  H   IDU d1218      21.667  -5.598  -6.145  0.00  0.00     0.087 H 
ATOM     55  H   IDU d1218      23.982  -4.822  -4.637  0.00  0.00     0.210 HD
ENDROOT
TORSDOF 16
ENDMDL
MODEL 46
REMARK VINA RESULT:      -5.6      3.086      7.313
REMARK  0 active torsions:
REMARK  status: ('A' for Active; 'I' for Inactive)
REMARK       I    between atoms: C2_1  and  N_18 
REMARK       I    between atoms: O4_5  and  C1_17 
REMARK       I    between atoms: O4_5  and  C4_30 
REMARK       I    between atoms: O6_6  and  C6_7 
REMARK       I    between atoms: O6_6  and  S2_22 
REMARK       I    between atoms: C6_7  and  C5_28 
REMARK       I    between atoms: C3_8  and  O3_10 
REMARK       I    between atoms: C1_9  and  O1_16 
REMARK       I    between atoms: S1_12  and  N_18 
REMARK       I    between atoms: S1_12  and  O1S_13 
REMARK       I    between atoms: S1_12  and  O2S_15 
REMARK       I    between atoms: S1_12  and  O3S_26 
REMARK       I    between atoms: O2_24  and  C2_31 
REMARK       I    between atoms: O2_24  and  S_34 
REMARK       I    between atoms: C6_25  and  C5_27 
REMARK       I    between atoms: C3_32  and  O3_33 
ROOT
ATOM      1  C2  SGN d1219      22.979  -8.180  -1.605  0.00  0.00     0.081 C 
ATOM      2  O4  SGN d1219      21.839 -10.768  -4.093  0.00  0.00    -0.348 OA
ATOM      3  O6  SGN d1219      18.528  -9.512  -1.873  0.00  0.00    -0.254 OA
ATOM      4  C6  SGN d1219      19.253  -9.764  -3.059  0.00  0.00     0.067 C 
ATOM      5  C3  SGN d1219      23.080  -9.338  -2.608  0.00  0.00     0.083 C 
ATOM      6  C1  SGN d1219      21.754  -7.289  -1.852  0.00  0.00     0.147 C 
ATOM      7  O3  SGN d1219      23.997 -10.300  -2.128  0.00  0.00    -0.391 OA
ATOM      8  O4S SGN d1219      18.148 -11.764  -0.987  0.00  0.00    -0.572 OA
ATOM      9  S1  SGN d1219      24.961  -6.994  -0.279  0.00  0.00     0.156 S 
ATOM     10  O1S SGN d1219      25.922  -5.952  -0.629  0.00  0.00    -0.296 OA
ATOM     11  O5  SGN d1219      20.585  -8.085  -1.958  0.00  0.00    -0.350 OA
ATOM     12  O2S SGN d1219      25.618  -8.211   0.198  0.00  0.00    -0.296 OA
ATOM     13  O1  SGN d1219      21.915  -6.500  -3.015  0.00  0.00    -0.369 OA
ATOM     14  N   SGN d1219      24.195  -7.384  -1.633  0.00  0.00    -0.210 NA
ATOM     15  O5S SGN d1219      16.563 -10.780  -2.500  0.00  0.00    -0.572 OA
ATOM     16  S2  SGN d1219      17.460 -10.536  -1.377  0.00  0.00     0.251 S 
ATOM     17  O3S SGN d1219      23.961  -6.508   0.674  0.00  0.00    -0.296 OA
ATOM     18  C5  SGN d1219      20.583  -9.018  -3.029  0.00  0.00     0.091 C 
ATOM     19  O6S SGN d1219      16.788  -9.914  -0.243  0.00  0.00    -0.572 OA
ATOM     20  C4  SGN d1219      21.736 -10.018  -2.897  0.00  0.00     0.095 C 
ATOM     21  H   SGN d1219      22.857  -8.616  -0.635  0.00  0.00     0.076 H 
ATOM     22  H   SGN d1219      18.681  -9.433  -3.900  0.00  0.00     0.080 H 
ATOM     23  H   SGN d1219      19.442 -10.814  -3.138  0.00  0.00     0.080 H 
ATOM     24  H   SGN d1219      23.417  -8.913  -3.531  0.00  0.00     0.089 H 
ATOM     25  H   SGN d1219      21.654  -6.626  -1.018  0.00  0.00     0.131 H 
ATOM     26  H   SGN d1219      23.671 -10.670  -1.293  0.00  0.00     0.210 HD
ATOM     27  H   SGN d1219      26.568  -6.307  -1.260  0.00  0.00     0.231 HD
ATOM     28  H   SGN d1219      26.272  -8.503  -0.457  0.00  0.00     0.231 HD
ATOM     29  H   SGN d1219      22.009  -7.079  -3.788  0.00  0.00     0.212 HD
ATOM     30  H   SGN d1219      23.956  -6.506  -2.093  0.00  0.00     0.140 HD
ATOM     31  H   SGN d1219      23.547  -5.703   0.325  0.00  0.00     0.231 HD
ATOM     32  H   SGN d1219      20.714  -8.478  -3.943  0.00  0.00     0.090 H 
ATOM     33  H   SGN d1219      21.516 -10.652  -2.065  0.00  0.00     0.091 H 
ATOM     34  C4  IDU d1218      23.539 -13.785  -5.700  0.00  0.00    -0.005 C 
ATOM     35  O61 IDU d1218      26.459 -12.297  -5.435  0.00  0.00    -0.646 OA
ATOM     36  O5  IDU d1218      23.504 -12.471  -3.676  0.00  0.00    -0.343 OA
ATOM     37  C1  IDU d1218      22.107 -12.143  -3.755  0.00  0.00     0.161 C 
ATOM     38  O62 IDU d1218      25.952 -13.686  -3.775  0.00  0.00    -0.646 OA
ATOM     39  O1S IDU d1218      19.122 -15.032  -2.209  0.00  0.00    -0.572 OA
ATOM     40  O3S IDU d1218      18.594 -13.065  -3.494  0.00  0.00    -0.572 OA
ATOM     41  O2  IDU d1218      20.855 -14.191  -3.881  0.00  0.00    -0.244 OA
ATOM     42  C6  IDU d1218      25.623 -12.886  -4.699  0.00  0.00     0.203 C 
ATOM     43  C5  IDU d1218      24.165 -12.620  -4.934  0.00  0.00     0.127 C 
ATOM     44  C2  IDU d1218      21.294 -13.080  -4.660  0.00  0.00     0.132 C 
ATOM     45  C3  IDU d1218      22.034 -13.590  -5.905  0.00  0.00     0.069 C 
ATOM     46  O3  IDU d1218      21.813 -12.693  -7.000  0.00  0.00    -0.393 OA
ATOM     47  S   IDU d1218      19.268 -14.381  -3.532  0.00  0.00     0.252 S 
ATOM     48  O2S IDU d1218      18.649 -15.221  -4.580  0.00  0.00    -0.572 OA
ATOM     49  H   IDU d1218      24.011 -13.864  -6.656  0.00  0.00     0.041 H 
ATOM     50  H   IDU d1218      23.683 -14.676  -5.124  0.00  0.00     0.041 H 
ATOM     51  H   IDU d1218      21.772 -12.295  -2.750  0.00  0.00     0.133 H 
ATOM     52  H   IDU d1218      24.057 -11.723  -5.509  0.00  0.00     0.100 H 
ATOM     53  H   IDU d1218      20.477 -12.500  -5.037  0.00  0.00     0.097 H 
ATOM     54  H   IDU d1218      21.631 -14.558  -6.116  0.00  0.00     0.087 H 
ATOM     55  H   IDU d1218      22.185 -11.824  -6.786  0.00  0.00     0.210 HD
ENDROOT
TORSDOF 16
ENDMDL
MODEL 47
REMARK VINA RESULT:      -5.6      2.944      5.974
REMARK  0 active torsions:
REMARK  status: ('A' for Active; 'I' for Inactive)
REMARK       I    between atoms: C2_1  and  N_18 
REMARK       I    between atoms: O4_5  and  C1_17 
REMARK       I    between atoms: O4_5  and  C4_30 
REMARK       I    between atoms: O6_6  and  C6_7 
REMARK       I    between atoms: O6_6  and  S2_22 
REMARK       I    between atoms: C6_7  and  C5_28 
REMARK       I    between atoms: C3_8  and  O3_10 
REMARK       I    between atoms: C1_9  and  O1_16 
REMARK       I    between atoms: S1_12  and  N_18 
REMARK       I    between atoms: S1_12  and  O1S_13 
REMARK       I    between atoms: S1_12  and  O2S_15 
REMARK       I    between atoms: S1_12  and  O3S_26 
REMARK       I    between atoms: O2_24  and  C2_31 
REMARK       I    between atoms: O2_24  and  S_34 
REMARK       I    between atoms: C6_25  and  C5_27 
REMARK       I    between atoms: C3_32  and  O3_33 
ROOT
ATOM      1  C2  SGN d1219      18.599 -13.543  -3.226  0.00  0.00     0.081 C 
ATOM      2  O4  SGN d1219      22.157 -12.351  -2.907  0.00  0.00    -0.348 OA
ATOM      3  O6  SGN d1219      19.639  -9.016  -2.945  0.00  0.00    -0.254 OA
ATOM      4  C6  SGN d1219      20.651  -9.849  -2.419  0.00  0.00     0.067 C 
ATOM      5  C3  SGN d1219      20.131 -13.590  -3.296  0.00  0.00     0.083 C 
ATOM      6  C1  SGN d1219      18.084 -12.532  -2.192  0.00  0.00     0.147 C 
ATOM      7  O3  SGN d1219      20.531 -14.255  -4.477  0.00  0.00    -0.391 OA
ATOM      8  O4S SGN d1219      20.670  -8.142  -4.987  0.00  0.00    -0.572 OA
ATOM      9  S1  SGN d1219      16.879 -15.486  -3.825  0.00  0.00     0.156 S 
ATOM     10  O1S SGN d1219      16.382 -16.649  -3.094  0.00  0.00    -0.296 OA
ATOM     11  O5  SGN d1219      18.708 -11.274  -2.388  0.00  0.00    -0.350 OA
ATOM     12  O2S SGN d1219      17.460 -15.857  -5.116  0.00  0.00    -0.296 OA
ATOM     13  O1  SGN d1219      18.306 -12.987  -0.871  0.00  0.00    -0.369 OA
ATOM     14  N   SGN d1219      18.068 -14.867  -2.945  0.00  0.00    -0.210 NA
ATOM     15  O5S SGN d1219      20.942  -6.975  -2.905  0.00  0.00    -0.572 OA
ATOM     16  S2  SGN d1219      20.021  -7.732  -3.745  0.00  0.00     0.251 S 
ATOM     17  O3S SGN d1219      15.848 -14.457  -3.968  0.00  0.00    -0.296 OA
ATOM     18  C5  SGN d1219      20.121 -11.267  -2.237  0.00  0.00     0.091 C 
ATOM     19  O6S SGN d1219      18.775  -7.019  -4.000  0.00  0.00    -0.572 OA
ATOM     20  C4  SGN d1219      20.791 -12.206  -3.245  0.00  0.00     0.095 C 
ATOM     21  H   SGN d1219      18.252 -13.214  -4.184  0.00  0.00     0.076 H 
ATOM     22  H   SGN d1219      20.968  -9.466  -1.472  0.00  0.00     0.080 H 
ATOM     23  H   SGN d1219      21.477  -9.869  -3.099  0.00  0.00     0.080 H 
ATOM     24  H   SGN d1219      20.460 -14.121  -2.426  0.00  0.00     0.089 H 
ATOM     25  H   SGN d1219      17.028 -12.427  -2.329  0.00  0.00     0.131 H 
ATOM     26  H   SGN d1219      20.223 -13.756  -5.249  0.00  0.00     0.210 HD
ATOM     27  H   SGN d1219      17.088 -17.309  -3.017  0.00  0.00     0.231 HD
ATOM     28  H   SGN d1219      18.137 -16.538  -4.981  0.00  0.00     0.231 HD
ATOM     29  H   SGN d1219      19.259 -13.092  -0.720  0.00  0.00     0.212 HD
ATOM     30  H   SGN d1219      17.734 -14.847  -1.981  0.00  0.00     0.140 HD
ATOM     31  H   SGN d1219      15.487 -14.238  -3.094  0.00  0.00     0.231 HD
ATOM     32  H   SGN d1219      20.354 -11.616  -1.253  0.00  0.00     0.090 H 
ATOM     33  H   SGN d1219      20.680 -11.767  -4.214  0.00  0.00     0.091 H 
ATOM     34  C4  IDU d1218      25.502 -13.732  -4.123  0.00  0.00    -0.005 C 
ATOM     35  O61 IDU d1218      24.311 -16.792  -3.965  0.00  0.00    -0.646 OA
ATOM     36  O5  IDU d1218      23.160 -13.631  -4.697  0.00  0.00    -0.343 OA
ATOM     37  C1  IDU d1218      22.939 -12.334  -4.118  0.00  0.00     0.161 C 
ATOM     38  O62 IDU d1218      24.179 -15.829  -5.964  0.00  0.00    -0.646 OA
ATOM     39  O1S IDU d1218      23.916  -8.718  -6.488  0.00  0.00    -0.572 OA
ATOM     40  O3S IDU d1218      23.342  -8.716  -4.149  0.00  0.00    -0.572 OA
ATOM     41  O2  IDU d1218      24.488 -10.787  -5.110  0.00  0.00    -0.244 OA
ATOM     42  C6  IDU d1218      24.217 -15.774  -4.701  0.00  0.00     0.203 C 
ATOM     43  C5  IDU d1218      24.145 -14.429  -4.037  0.00  0.00     0.127 C 
ATOM     44  C2  IDU d1218      24.219 -11.512  -3.912  0.00  0.00     0.132 C 
ATOM     45  C3  IDU d1218      25.461 -12.326  -3.518  0.00  0.00     0.069 C 
ATOM     46  O3  IDU d1218      25.547 -12.416  -2.091  0.00  0.00    -0.393 OA
ATOM     47  S   IDU d1218      24.347  -9.158  -5.140  0.00  0.00     0.252 S 
ATOM     48  O2S IDU d1218      25.660  -8.562  -4.810  0.00  0.00    -0.572 OA
ATOM     49  H   IDU d1218      26.225 -14.316  -3.592  0.00  0.00     0.041 H 
ATOM     50  H   IDU d1218      25.764 -13.641  -5.157  0.00  0.00     0.041 H 
ATOM     51  H   IDU d1218      22.355 -11.839  -4.866  0.00  0.00     0.133 H 
ATOM     52  H   IDU d1218      23.880 -14.556  -3.008  0.00  0.00     0.100 H 
ATOM     53  H   IDU d1218      24.031 -10.867  -3.080  0.00  0.00     0.097 H 
ATOM     54  H   IDU d1218      26.302 -11.801  -3.920  0.00  0.00     0.087 H 
ATOM     55  H   IDU d1218      24.775 -12.895  -1.751  0.00  0.00     0.210 HD
ENDROOT
TORSDOF 16
ENDMDL
MODEL 48
REMARK VINA RESULT:      -5.6      3.543      6.995
REMARK  0 active torsions:
REMARK  status: ('A' for Active; 'I' for Inactive)
REMARK       I    between atoms: C2_1  and  N_18 
REMARK       I    between atoms: O4_5  and  C1_17 
REMARK       I    between atoms: O4_5  and  C4_30 
REMARK       I    between atoms: O6_6  and  C6_7 
REMARK       I    between atoms: O6_6  and  S2_22 
REMARK       I    between atoms: C6_7  and  C5_28 
REMARK       I    between atoms: C3_8  and  O3_10 
REMARK       I    between atoms: C1_9  and  O1_16 
REMARK       I    between atoms: S1_12  and  N_18 
REMARK       I    between atoms: S1_12  and  O1S_13 
REMARK       I    between atoms: S1_12  and  O2S_15 
REMARK       I    between atoms: S1_12  and  O3S_26 
REMARK       I    between atoms: O2_24  and  C2_31 
REMARK       I    between atoms: O2_24  and  S_34 
REMARK       I    between atoms: C6_25  and  C5_27 
REMARK       I    between atoms: C3_32  and  O3_33 
ROOT
ATOM      1  C2  SGN d1219      19.437 -10.276  -1.495  0.00  0.00     0.081 C 
ATOM      2  O4  SGN d1219      22.601  -8.743  -2.845  0.00  0.00    -0.348 OA
ATOM      3  O6  SGN d1219      21.306 -11.684  -5.517  0.00  0.00    -0.254 OA
ATOM      4  C6  SGN d1219      21.713 -10.384  -5.144  0.00  0.00     0.067 C 
ATOM      5  C3  SGN d1219      20.758  -9.495  -1.492  0.00  0.00     0.083 C 
ATOM      6  C1  SGN d1219      18.766 -10.301  -2.875  0.00  0.00     0.147 C 
ATOM      7  O3  SGN d1219      21.486  -9.799  -0.320  0.00  0.00    -0.391 OA
ATOM      8  O4S SGN d1219      23.354 -12.995  -5.215  0.00  0.00    -0.572 OA
ATOM      9  S1  SGN d1219      17.778 -10.680   0.549  0.00  0.00     0.156 S 
ATOM     10  O1S SGN d1219      16.726  -9.875   1.164  0.00  0.00    -0.296 OA
ATOM     11  O5  SGN d1219      19.698 -10.709  -3.863  0.00  0.00    -0.350 OA
ATOM     12  O2S SGN d1219      18.784 -11.107   1.522  0.00  0.00    -0.296 OA
ATOM     13  O1  SGN d1219      18.223  -9.037  -3.207  0.00  0.00    -0.369 OA
ATOM     14  N   SGN d1219      18.528  -9.729  -0.502  0.00  0.00    -0.210 NA
ATOM     15  O5S SGN d1219      22.898 -11.940  -7.324  0.00  0.00    -0.572 OA
ATOM     16  S2  SGN d1219      22.323 -12.657  -6.192  0.00  0.00     0.251 S 
ATOM     17  O3S SGN d1219      17.225 -11.814  -0.193  0.00  0.00    -0.296 OA
ATOM     18  C5  SGN d1219      20.827  -9.861  -4.018  0.00  0.00     0.091 C 
ATOM     19  O6S SGN d1219      21.561 -13.833  -6.598  0.00  0.00    -0.572 OA
ATOM     20  C4  SGN d1219      21.636  -9.771  -2.720  0.00  0.00     0.095 C 
ATOM     21  H   SGN d1219      19.673 -11.290  -1.245  0.00  0.00     0.076 H 
ATOM     22  H   SGN d1219      21.633  -9.732  -5.988  0.00  0.00     0.080 H 
ATOM     23  H   SGN d1219      22.727 -10.417  -4.804  0.00  0.00     0.080 H 
ATOM     24  H   SGN d1219      20.498  -8.457  -1.525  0.00  0.00     0.089 H 
ATOM     25  H   SGN d1219      17.961 -11.004  -2.839  0.00  0.00     0.131 H 
ATOM     26  H   SGN d1219      21.709 -10.743  -0.314  0.00  0.00     0.210 HD
ATOM     27  H   SGN d1219      17.126  -9.134   1.646  0.00  0.00     0.231 HD
ATOM     28  H   SGN d1219      19.127 -10.331   1.993  0.00  0.00     0.231 HD
ATOM     29  H   SGN d1219      18.935  -8.379  -3.246  0.00  0.00     0.212 HD
ATOM     30  H   SGN d1219      17.798  -9.236  -1.017  0.00  0.00     0.140 HD
ATOM     31  H   SGN d1219      16.564 -11.494  -0.827  0.00  0.00     0.231 HD
ATOM     32  H   SGN d1219      20.478  -8.879  -4.260  0.00  0.00     0.090 H 
ATOM     33  H   SGN d1219      22.104 -10.720  -2.568  0.00  0.00     0.091 H 
ATOM     34  C4  IDU d1218      25.666  -7.179  -1.193  0.00  0.00    -0.005 C 
ATOM     35  O61 IDU d1218      23.825  -6.240   1.364  0.00  0.00    -0.646 OA
ATOM     36  O5  IDU d1218      23.973  -8.865  -0.858  0.00  0.00    -0.343 OA
ATOM     37  C1  IDU d1218      23.835  -9.192  -2.250  0.00  0.00     0.161 C 
ATOM     38  O62 IDU d1218      24.887  -8.175   1.625  0.00  0.00    -0.646 OA
ATOM     39  O1S IDU d1218      26.668 -12.065  -4.085  0.00  0.00    -0.572 OA
ATOM     40  O3S IDU d1218      25.086 -10.722  -5.308  0.00  0.00    -0.572 OA
ATOM     41  O2  IDU d1218      25.996  -9.809  -3.102  0.00  0.00    -0.244 OA
ATOM     42  C6  IDU d1218      24.342  -7.291   0.902  0.00  0.00     0.203 C 
ATOM     43  C5  IDU d1218      24.302  -7.502  -0.584  0.00  0.00     0.127 C 
ATOM     44  C2  IDU d1218      25.028  -8.763  -3.117  0.00  0.00     0.132 C 
ATOM     45  C3  IDU d1218      25.696  -7.443  -2.700  0.00  0.00     0.069 C 
ATOM     46  O3  IDU d1218      25.078  -6.351  -3.391  0.00  0.00    -0.393 OA
ATOM     47  S   IDU d1218      26.293 -10.680  -4.454  0.00  0.00     0.252 S 
ATOM     48  O2S IDU d1218      27.400 -10.038  -5.198  0.00  0.00    -0.572 OA
ATOM     49  H   IDU d1218      25.887  -6.146  -1.018  0.00  0.00     0.041 H 
ATOM     50  H   IDU d1218      26.395  -7.812  -0.730  0.00  0.00     0.041 H 
ATOM     51  H   IDU d1218      23.812 -10.261  -2.241  0.00  0.00     0.133 H 
ATOM     52  H   IDU d1218      23.564  -6.857  -1.013  0.00  0.00     0.100 H 
ATOM     53  H   IDU d1218      24.638  -8.583  -4.097  0.00  0.00     0.097 H 
ATOM     54  H   IDU d1218      26.727  -7.533  -2.970  0.00  0.00     0.087 H 
ATOM     55  H   IDU d1218      24.146  -6.290  -3.131  0.00  0.00     0.210 HD
ENDROOT
TORSDOF 16
ENDMDL
MODEL 49
REMARK VINA RESULT:      -5.6      3.463      7.624
REMARK  0 active torsions:
REMARK  status: ('A' for Active; 'I' for Inactive)
REMARK       I    between atoms: C2_1  and  N_18 
REMARK       I    between atoms: O4_5  and  C1_17 
REMARK       I    between atoms: O4_5  and  C4_30 
REMARK       I    between atoms: O6_6  and  C6_7 
REMARK       I    between atoms: O6_6  and  S2_22 
REMARK       I    between atoms: C6_7  and  C5_28 
REMARK       I    between atoms: C3_8  and  O3_10 
REMARK       I    between atoms: C1_9  and  O1_16 
REMARK       I    between atoms: S1_12  and  N_18 
REMARK       I    between atoms: S1_12  and  O1S_13 
REMARK       I    between atoms: S1_12  and  O2S_15 
REMARK       I    between atoms: S1_12  and  O3S_26 
REMARK       I    between atoms: O2_24  and  C2_31 
REMARK       I    between atoms: O2_24  and  S_34 
REMARK       I    between atoms: C6_25  and  C5_27 
REMARK       I    between atoms: C3_32  and  O3_33 
ROOT
ATOM      1  C2  SGN d1219      21.374 -11.536  -4.100  0.00  0.00     0.081 C 
ATOM      2  O4  SGN d1219      24.636 -10.610  -5.738  0.00  0.00    -0.348 OA
ATOM      3  O6  SGN d1219      22.817  -7.118  -4.335  0.00  0.00    -0.254 OA
ATOM      4  C6  SGN d1219      23.870  -8.052  -4.460  0.00  0.00     0.067 C 
ATOM      5  C3  SGN d1219      22.614 -11.681  -4.991  0.00  0.00     0.083 C 
ATOM      6  C1  SGN d1219      21.594 -10.566  -2.931  0.00  0.00     0.147 C 
ATOM      7  O3  SGN d1219      22.251 -12.290  -6.213  0.00  0.00    -0.391 OA
ATOM      8  O4S SGN d1219      22.661  -6.179  -6.591  0.00  0.00    -0.572 OA
ATOM      9  S1  SGN d1219      19.430 -13.315  -3.709  0.00  0.00     0.156 S 
ATOM     10  O1S SGN d1219      19.299 -14.488  -2.849  0.00  0.00    -0.296 OA
ATOM     11  O5  SGN d1219      22.128  -9.341  -3.409  0.00  0.00    -0.350 OA
ATOM     12  O2S SGN d1219      19.186 -13.635  -5.116  0.00  0.00    -0.296 OA
ATOM     13  O1  SGN d1219      22.449 -11.123  -1.952  0.00  0.00    -0.369 OA
ATOM     14  N   SGN d1219      20.957 -12.837  -3.603  0.00  0.00    -0.210 NA
ATOM     15  O5S SGN d1219      24.119  -5.177  -4.967  0.00  0.00    -0.572 OA
ATOM     16  S2  SGN d1219      22.825  -5.812  -5.188  0.00  0.00     0.251 S 
ATOM     17  O3S SGN d1219      18.585 -12.211  -3.249  0.00  0.00    -0.296 OA
ATOM     18  C5  SGN d1219      23.392  -9.440  -4.048  0.00  0.00     0.091 C 
ATOM     19  O6S SGN d1219      21.711  -5.001  -4.711  0.00  0.00    -0.572 OA
ATOM     20  C4  SGN d1219      23.323 -10.351  -5.278  0.00  0.00     0.095 C 
ATOM     21  H   SGN d1219      20.598 -11.120  -4.709  0.00  0.00     0.076 H 
ATOM     22  H   SGN d1219      24.682  -7.756  -3.829  0.00  0.00     0.080 H 
ATOM     23  H   SGN d1219      24.194  -8.081  -5.479  0.00  0.00     0.080 H 
ATOM     24  H   SGN d1219      23.309 -12.291  -4.450  0.00  0.00     0.089 H 
ATOM     25  H   SGN d1219      20.646 -10.381  -2.472  0.00  0.00     0.131 H 
ATOM     26  H   SGN d1219      21.623 -11.721  -6.684  0.00  0.00     0.210 HD
ATOM     27  H   SGN d1219      19.871 -15.198  -3.182  0.00  0.00     0.231 HD
ATOM     28  H   SGN d1219      19.762 -14.368  -5.385  0.00  0.00     0.231 HD
ATOM     29  H   SGN d1219      23.318 -11.301  -2.344  0.00  0.00     0.212 HD
ATOM     30  H   SGN d1219      21.199 -12.860  -2.612  0.00  0.00     0.140 HD
ATOM     31  H   SGN d1219      18.774 -12.028  -2.315  0.00  0.00     0.231 HD
ATOM     32  H   SGN d1219      24.085  -9.869  -3.356  0.00  0.00     0.090 H 
ATOM     33  H   SGN d1219      22.749  -9.841  -6.022  0.00  0.00     0.091 H 
ATOM     34  C4  IDU d1218      26.652 -12.127  -8.603  0.00  0.00    -0.005 C 
ATOM     35  O61 IDU d1218      25.455 -15.104  -7.886  0.00  0.00    -0.646 OA
ATOM     36  O5  IDU d1218      24.392 -11.830  -7.812  0.00  0.00    -0.343 OA
ATOM     37  C1  IDU d1218      24.639 -10.563  -7.179  0.00  0.00     0.161 C 
ATOM     38  O62 IDU d1218      24.357 -14.001  -9.474  0.00  0.00    -0.646 OA
ATOM     39  O1S IDU d1218      24.517  -6.869  -9.625  0.00  0.00    -0.572 OA
ATOM     40  O3S IDU d1218      25.297  -6.986  -7.350  0.00  0.00    -0.572 OA
ATOM     41  O2  IDU d1218      25.546  -9.060  -8.821  0.00  0.00    -0.244 OA
ATOM     42  C6  IDU d1218      25.075 -14.034  -8.432  0.00  0.00     0.203 C 
ATOM     43  C5  IDU d1218      25.497 -12.735  -7.808  0.00  0.00     0.127 C 
ATOM     44  C2  IDU d1218      25.899  -9.845  -7.684  0.00  0.00     0.132 C 
ATOM     45  C3  IDU d1218      27.075 -10.765  -8.044  0.00  0.00     0.069 C 
ATOM     46  O3  IDU d1218      27.907 -10.957  -6.894  0.00  0.00    -0.393 OA
ATOM     47  S   IDU d1218      25.563  -7.427  -8.736  0.00  0.00     0.252 S 
ATOM     48  O2S IDU d1218      26.896  -6.945  -9.159  0.00  0.00    -0.572 OA
ATOM     49  H   IDU d1218      27.489 -12.792  -8.561  0.00  0.00     0.041 H 
ATOM     50  H   IDU d1218      26.323 -11.984  -9.611  0.00  0.00     0.041 H 
ATOM     51  H   IDU d1218      23.793  -9.981  -7.480  0.00  0.00     0.133 H 
ATOM     52  H   IDU d1218      25.818 -12.914  -6.803  0.00  0.00     0.100 H 
ATOM     53  H   IDU d1218      26.250  -9.246  -6.869  0.00  0.00     0.097 H 
ATOM     54  H   IDU d1218      27.611 -10.271  -8.827  0.00  0.00     0.087 H 
ATOM     55  H   IDU d1218      27.400 -11.405  -6.199  0.00  0.00     0.210 HD
ENDROOT
TORSDOF 16
ENDMDL
MODEL 50
REMARK VINA RESULT:      -5.5      2.456      5.903
REMARK  0 active torsions:
REMARK  status: ('A' for Active; 'I' for Inactive)
REMARK       I    between atoms: C2_1  and  N_18 
REMARK       I    between atoms: O4_5  and  C1_17 
REMARK       I    between atoms: O4_5  and  C4_30 
REMARK       I    between atoms: O6_6  and  C6_7 
REMARK       I    between atoms: O6_6  and  S2_22 
REMARK       I    between atoms: C6_7  and  C5_28 
REMARK       I    between atoms: C3_8  and  O3_10 
REMARK       I    between atoms: C1_9  and  O1_16 
REMARK       I    between atoms: S1_12  and  N_18 
REMARK       I    between atoms: S1_12  and  O1S_13 
REMARK       I    between atoms: S1_12  and  O2S_15 
REMARK       I    between atoms: S1_12  and  O3S_26 
REMARK       I    between atoms: O2_24  and  C2_31 
REMARK       I    between atoms: O2_24  and  S_34 
REMARK       I    between atoms: C6_25  and  C5_27 
REMARK       I    between atoms: C3_32  and  O3_33 
ROOT
ATOM      1  C2  SGN d1219      23.006 -12.647  -4.864  0.00  0.00     0.081 C 
ATOM      2  O4  SGN d1219      21.503 -10.903  -1.884  0.00  0.00    -0.348 OA
ATOM      3  O6  SGN d1219      21.393 -15.025  -1.204  0.00  0.00    -0.254 OA
ATOM      4  C6  SGN d1219      21.716 -13.685  -0.894  0.00  0.00     0.067 C 
ATOM      5  C3  SGN d1219      22.359 -11.521  -4.046  0.00  0.00     0.083 C 
ATOM      6  C1  SGN d1219      23.777 -13.646  -3.990  0.00  0.00     0.147 C 
ATOM      7  O3  SGN d1219      21.397 -10.855  -4.837  0.00  0.00    -0.391 OA
ATOM      8  O4S SGN d1219      18.948 -15.035  -1.070  0.00  0.00    -0.572 OA
ATOM      9  S1  SGN d1219      23.786 -12.572  -7.410  0.00  0.00     0.156 S 
ATOM     10  O1S SGN d1219      24.984 -12.071  -8.079  0.00  0.00    -0.296 OA
ATOM     11  O5  SGN d1219      22.960 -14.087  -2.917  0.00  0.00    -0.350 OA
ATOM     12  O2S SGN d1219      22.563 -11.988  -7.961  0.00  0.00    -0.296 OA
ATOM     13  O1  SGN d1219      24.974 -13.081  -3.494  0.00  0.00    -0.369 OA
ATOM     14  N   SGN d1219      23.880 -12.090  -5.883  0.00  0.00    -0.210 NA
ATOM     15  O5S SGN d1219      20.263 -15.506   0.883  0.00  0.00    -0.572 OA
ATOM     16  S2  SGN d1219      20.143 -15.698  -0.557  0.00  0.00     0.251 S 
ATOM     17  O3S SGN d1219      23.739 -14.035  -7.412  0.00  0.00    -0.296 OA
ATOM     18  C5  SGN d1219      22.534 -13.069  -2.023  0.00  0.00     0.091 C 
ATOM     19  O6S SGN d1219      20.184 -17.104  -0.943  0.00  0.00    -0.572 OA
ATOM     20  C4  SGN d1219      21.701 -12.006  -2.748  0.00  0.00     0.095 C 
ATOM     21  H   SGN d1219      22.211 -13.190  -5.332  0.00  0.00     0.076 H 
ATOM     22  H   SGN d1219      22.285 -13.659   0.011  0.00  0.00     0.080 H 
ATOM     23  H   SGN d1219      20.811 -13.126  -0.772  0.00  0.00     0.080 H 
ATOM     24  H   SGN d1219      23.150 -10.858  -3.763  0.00  0.00     0.089 H 
ATOM     25  H   SGN d1219      24.039 -14.485  -4.600  0.00  0.00     0.131 H 
ATOM     26  H   SGN d1219      20.692 -11.475  -5.080  0.00  0.00     0.210 HD
ATOM     27  H   SGN d1219      24.984 -11.101  -8.059  0.00  0.00     0.231 HD
ATOM     28  H   SGN d1219      22.631 -11.020  -7.943  0.00  0.00     0.231 HD
ATOM     29  H   SGN d1219      24.764 -12.315  -2.936  0.00  0.00     0.212 HD
ATOM     30  H   SGN d1219      24.836 -12.276  -5.579  0.00  0.00     0.140 HD
ATOM     31  H   SGN d1219      24.564 -14.385  -7.041  0.00  0.00     0.231 HD
ATOM     32  H   SGN d1219      23.403 -12.592  -1.620  0.00  0.00     0.090 H 
ATOM     33  H   SGN d1219      20.769 -12.457  -3.014  0.00  0.00     0.091 H 
ATOM     34  C4  IDU d1218      19.582  -7.632  -1.456  0.00  0.00    -0.005 C 
ATOM     35  O61 IDU d1218      21.165  -6.350  -4.038  0.00  0.00    -0.646 OA
ATOM     36  O5  IDU d1218      19.975  -9.419  -3.029  0.00  0.00    -0.343 OA
ATOM     37  C1  IDU d1218      20.146 -10.439  -2.030  0.00  0.00     0.161 C 
ATOM     38  O62 IDU d1218      19.185  -7.251  -4.495  0.00  0.00    -0.646 OA
ATOM     39  O1S IDU d1218      16.563 -12.412  -0.323  0.00  0.00    -0.572 OA
ATOM     40  O3S IDU d1218      18.804 -12.663   0.521  0.00  0.00    -0.572 OA
ATOM     41  O2  IDU d1218      18.188 -10.471  -0.637  0.00  0.00    -0.244 OA
ATOM     42  C6  IDU d1218      20.241  -7.175  -3.804  0.00  0.00     0.203 C 
ATOM     43  C5  IDU d1218      20.412  -8.115  -2.645  0.00  0.00     0.127 C 
ATOM     44  C2  IDU d1218      19.558 -10.077  -0.658  0.00  0.00     0.132 C 
ATOM     45  C3  IDU d1218      19.670  -8.595  -0.270  0.00  0.00     0.069 C 
ATOM     46  O3  IDU d1218      20.896  -8.373   0.438  0.00  0.00    -0.393 OA
ATOM     47  S   IDU d1218      17.697 -11.705   0.318  0.00  0.00     0.252 S 
ATOM     48  O2S IDU d1218      17.276 -11.154   1.625  0.00  0.00    -0.572 OA
ATOM     49  H   IDU d1218      19.943  -6.672  -1.150  0.00  0.00     0.041 H 
ATOM     50  H   IDU d1218      18.559  -7.579  -1.765  0.00  0.00     0.041 H 
ATOM     51  H   IDU d1218      19.572 -11.252  -2.422  0.00  0.00     0.133 H 
ATOM     52  H   IDU d1218      21.444  -8.145  -2.364  0.00  0.00     0.100 H 
ATOM     53  H   IDU d1218      20.144 -10.603   0.067  0.00  0.00     0.097 H 
ATOM     54  H   IDU d1218      18.826  -8.386   0.352  0.00  0.00     0.087 H 
ATOM     55  H   IDU d1218      21.646  -8.570  -0.145  0.00  0.00     0.210 HD
ENDROOT
TORSDOF 16
ENDMDL
MODEL 51
REMARK VINA RESULT:      -5.5      2.933      6.670
REMARK  0 active torsions:
REMARK  status: ('A' for Active; 'I' for Inactive)
REMARK       I    between atoms: C2_1  and  N_18 
REMARK       I    between atoms: O4_5  and  C1_17 
REMARK       I    between atoms: O4_5  and  C4_30 
REMARK       I    between atoms: O6_6  and  C6_7 
REMARK       I    between atoms: O6_6  and  S2_22 
REMARK       I    between atoms: C6_7  and  C5_28 
REMARK       I    between atoms: C3_8  and  O3_10 
REMARK       I    between atoms: C1_9  and  O1_16 
REMARK       I    between atoms: S1_12  and  N_18 
REMARK       I    between atoms: S1_12  and  O1S_13 
REMARK       I    between atoms: S1_12  and  O2S_15 
REMARK       I    between atoms: S1_12  and  O3S_26 
REMARK       I    between atoms: O2_24  and  C2_31 
REMARK       I    between atoms: O2_24  and  S_34 
REMARK       I    between atoms: C6_25  and  C5_27 
REMARK       I    between atoms: C3_32  and  O3_33 
ROOT
ATOM      1  C2  SGN d1219      19.981 -10.551  -2.254  0.00  0.00     0.081 C 
ATOM      2  O4  SGN d1219      23.525 -11.032  -3.434  0.00  0.00    -0.348 OA
ATOM      3  O6  SGN d1219      22.563  -6.977  -3.744  0.00  0.00    -0.254 OA
ATOM      4  C6  SGN d1219      23.337  -8.080  -3.320  0.00  0.00     0.067 C 
ATOM      5  C3  SGN d1219      21.225 -11.285  -2.773  0.00  0.00     0.083 C 
ATOM      6  C1  SGN d1219      20.328  -9.269  -1.485  0.00  0.00     0.147 C 
ATOM      7  O3  SGN d1219      20.843 -12.234  -3.747  0.00  0.00    -0.391 OA
ATOM      8  O4S SGN d1219      22.899  -6.984  -6.170  0.00  0.00    -0.572 OA
ATOM      9  S1  SGN d1219      17.605 -11.594  -1.654  0.00  0.00     0.156 S 
ATOM     10  O1S SGN d1219      17.078 -12.283  -0.479  0.00  0.00    -0.296 OA
ATOM     11  O5  SGN d1219      21.215  -8.467  -2.249  0.00  0.00    -0.350 OA
ATOM     12  O2S SGN d1219      17.434 -12.380  -2.875  0.00  0.00    -0.296 OA
ATOM     13  O1  SGN d1219      20.897  -9.562  -0.224  0.00  0.00    -0.369 OA
ATOM     14  N   SGN d1219      19.185 -11.438  -1.423  0.00  0.00    -0.210 NA
ATOM     15  O5S SGN d1219      24.392  -5.751  -4.750  0.00  0.00    -0.572 OA
ATOM     16  S2  SGN d1219      23.007  -6.140  -4.984  0.00  0.00     0.251 S 
ATOM     17  O3S SGN d1219      17.041 -10.250  -1.789  0.00  0.00    -0.296 OA
ATOM     18  C5  SGN d1219      22.467  -9.066  -2.549  0.00  0.00     0.091 C 
ATOM     19  O6S SGN d1219      22.104  -4.997  -5.055  0.00  0.00    -0.572 OA
ATOM     20  C4  SGN d1219      22.288 -10.350  -3.365  0.00  0.00     0.095 C 
ATOM     21  H   SGN d1219      19.412 -10.256  -3.112  0.00  0.00     0.076 H 
ATOM     22  H   SGN d1219      24.128  -7.735  -2.687  0.00  0.00     0.080 H 
ATOM     23  H   SGN d1219      23.746  -8.571  -4.178  0.00  0.00     0.080 H 
ATOM     24  H   SGN d1219      21.672 -11.763  -1.925  0.00  0.00     0.089 H 
ATOM     25  H   SGN d1219      19.420  -8.728  -1.318  0.00  0.00     0.131 H 
ATOM     26  H   SGN d1219      20.442 -11.778  -4.503  0.00  0.00     0.210 HD
ATOM     27  H   SGN d1219      17.473 -13.167  -0.419  0.00  0.00     0.231 HD
ATOM     28  H   SGN d1219      17.820 -13.262  -2.748  0.00  0.00     0.231 HD
ATOM     29  H   SGN d1219      21.724 -10.054  -0.348  0.00  0.00     0.212 HD
ATOM     30  H   SGN d1219      19.306 -11.121  -0.461  0.00  0.00     0.140 HD
ATOM     31  H   SGN d1219      17.173  -9.759  -0.963  0.00  0.00     0.231 HD
ATOM     32  H   SGN d1219      22.945  -9.323  -1.626  0.00  0.00     0.090 H 
ATOM     33  H   SGN d1219      21.952 -10.065  -4.339  0.00  0.00     0.091 H 
ATOM     34  C4  IDU d1218      25.355 -13.928  -5.119  0.00  0.00    -0.005 C 
ATOM     35  O61 IDU d1218      23.342 -16.072  -3.650  0.00  0.00    -0.646 OA
ATOM     36  O5  IDU d1218      23.185 -12.888  -4.948  0.00  0.00    -0.343 OA
ATOM     37  C1  IDU d1218      23.692 -11.555  -4.768  0.00  0.00     0.161 C 
ATOM     38  O62 IDU d1218      22.749 -15.477  -5.708  0.00  0.00    -0.646 OA
ATOM     39  O1S IDU d1218      24.813  -9.172  -8.333  0.00  0.00    -0.572 OA
ATOM     40  O3S IDU d1218      25.290  -8.548  -6.057  0.00  0.00    -0.572 OA
ATOM     41  O2  IDU d1218      25.132 -11.035  -6.621  0.00  0.00    -0.244 OA
ATOM     42  C6  IDU d1218      23.319 -15.248  -4.602  0.00  0.00     0.203 C 
ATOM     43  C5  IDU d1218      24.004 -13.926  -4.406  0.00  0.00     0.127 C 
ATOM     44  C2  IDU d1218      25.143 -11.367  -5.234  0.00  0.00     0.132 C 
ATOM     45  C3  IDU d1218      26.063 -12.575  -5.006  0.00  0.00     0.069 C 
ATOM     46  O3  IDU d1218      26.689 -12.469  -3.721  0.00  0.00    -0.393 OA
ATOM     47  S   IDU d1218      25.573  -9.540  -7.116  0.00  0.00     0.252 S 
ATOM     48  O2S IDU d1218      27.023  -9.547  -7.410  0.00  0.00    -0.572 OA
ATOM     49  H   IDU d1218      25.976 -14.681  -4.681  0.00  0.00     0.041 H 
ATOM     50  H   IDU d1218      25.183 -14.127  -6.157  0.00  0.00     0.041 H 
ATOM     51  H   IDU d1218      23.068 -10.976  -5.416  0.00  0.00     0.133 H 
ATOM     52  H   IDU d1218      24.158 -13.759  -3.361  0.00  0.00     0.100 H 
ATOM     53  H   IDU d1218      25.553 -10.583  -4.631  0.00  0.00     0.097 H 
ATOM     54  H   IDU d1218      26.790 -12.549  -5.790  0.00  0.00     0.087 H 
ATOM     55  H   IDU d1218      26.012 -12.495  -3.028  0.00  0.00     0.210 HD
ENDROOT
TORSDOF 16
ENDMDL
MODEL 52
REMARK VINA RESULT:      -5.5      3.715      7.766
REMARK  0 active torsions:
REMARK  status: ('A' for Active; 'I' for Inactive)
REMARK       I    between atoms: C2_1  and  N_18 
REMARK       I    between atoms: O4_5  and  C1_17 
REMARK       I    between atoms: O4_5  and  C4_30 
REMARK       I    between atoms: O6_6  and  C6_7 
REMARK       I    between atoms: O6_6  and  S2_22 
REMARK       I    between atoms: C6_7  and  C5_28 
REMARK       I    between atoms: C3_8  and  O3_10 
REMARK       I    between atoms: C1_9  and  O1_16 
REMARK       I    between atoms: S1_12  and  N_18 
REMARK       I    between atoms: S1_12  and  O1S_13 
REMARK       I    between atoms: S1_12  and  O2S_15 
REMARK       I    between atoms: S1_12  and  O3S_26 
REMARK       I    between atoms: O2_24  and  C2_31 
REMARK       I    between atoms: O2_24  and  S_34 
REMARK       I    between atoms: C6_25  and  C5_27 
REMARK       I    between atoms: C3_32  and  O3_33 
ROOT
ATOM      1  C2  SGN d1219      25.981  -7.744  -6.232  0.00  0.00     0.081 C 
ATOM      2  O4  SGN d1219      23.827  -9.957  -4.077  0.00  0.00    -0.348 OA
ATOM      3  O6  SGN d1219      26.892 -12.279  -5.717  0.00  0.00    -0.254 OA
ATOM      4  C6  SGN d1219      26.110 -11.749  -4.667  0.00  0.00     0.067 C 
ATOM      5  C3  SGN d1219      24.749  -8.201  -5.440  0.00  0.00     0.083 C 
ATOM      6  C1  SGN d1219      27.282  -8.381  -5.723  0.00  0.00     0.147 C 
ATOM      7  O3  SGN d1219      23.577  -7.872  -6.157  0.00  0.00    -0.391 OA
ATOM      8  O4S SGN d1219      25.299 -13.715  -6.901  0.00  0.00    -0.572 OA
ATOM      9  S1  SGN d1219      26.313  -5.456  -7.555  0.00  0.00     0.156 S 
ATOM     10  O1S SGN d1219      26.689  -4.105  -7.147  0.00  0.00    -0.296 OA
ATOM     11  O5  SGN d1219      27.130  -9.787  -5.623  0.00  0.00    -0.350 OA
ATOM     12  O2S SGN d1219      25.044  -5.477  -8.282  0.00  0.00    -0.296 OA
ATOM     13  O1  SGN d1219      27.667  -7.840  -4.474  0.00  0.00    -0.369 OA
ATOM     14  N   SGN d1219      26.086  -6.294  -6.207  0.00  0.00    -0.210 NA
ATOM     15  O5S SGN d1219      26.613 -14.603  -5.096  0.00  0.00    -0.572 OA
ATOM     16  S2  SGN d1219      26.609 -13.716  -6.254  0.00  0.00     0.251 S 
ATOM     17  O3S SGN d1219      27.383  -6.110  -8.311  0.00  0.00    -0.296 OA
ATOM     18  C5  SGN d1219      26.127 -10.225  -4.717  0.00  0.00     0.091 C 
ATOM     19  O6S SGN d1219      27.675 -14.020  -7.201  0.00  0.00    -0.572 OA
ATOM     20  C4  SGN d1219      24.746  -9.703  -5.123  0.00  0.00     0.095 C 
ATOM     21  H   SGN d1219      25.846  -8.076  -7.241  0.00  0.00     0.076 H 
ATOM     22  H   SGN d1219      26.508 -12.076  -3.729  0.00  0.00     0.080 H 
ATOM     23  H   SGN d1219      25.101 -12.091  -4.773  0.00  0.00     0.080 H 
ATOM     24  H   SGN d1219      24.782  -7.687  -4.502  0.00  0.00     0.089 H 
ATOM     25  H   SGN d1219      28.056  -8.160  -6.428  0.00  0.00     0.131 H 
ATOM     26  H   SGN d1219      23.570  -8.349  -7.001  0.00  0.00     0.210 HD
ATOM     27  H   SGN d1219      25.960  -3.703  -6.650  0.00  0.00     0.231 HD
ATOM     28  H   SGN d1219      24.360  -5.037  -7.752  0.00  0.00     0.231 HD
ATOM     29  H   SGN d1219      26.980  -8.027  -3.815  0.00  0.00     0.212 HD
ATOM     30  H   SGN d1219      26.869  -6.071  -5.592  0.00  0.00     0.140 HD
ATOM     31  H   SGN d1219      28.206  -6.076  -7.799  0.00  0.00     0.231 HD
ATOM     32  H   SGN d1219      26.358  -9.835  -3.748  0.00  0.00     0.090 H 
ATOM     33  H   SGN d1219      24.460 -10.215  -6.017  0.00  0.00     0.091 H 
ATOM     34  C4  IDU d1218      20.125  -9.907  -3.149  0.00  0.00    -0.005 C 
ATOM     35  O61 IDU d1218      20.073  -6.637  -3.478  0.00  0.00    -0.646 OA
ATOM     36  O5  IDU d1218      21.651  -9.332  -4.927  0.00  0.00    -0.343 OA
ATOM     37  C1  IDU d1218      22.580 -10.394  -4.653  0.00  0.00     0.161 C 
ATOM     38  O62 IDU d1218      19.429  -7.777  -5.274  0.00  0.00    -0.646 OA
ATOM     39  O1S IDU d1218      21.796 -14.428  -6.314  0.00  0.00    -0.572 OA
ATOM     40  O3S IDU d1218      23.498 -13.917  -4.690  0.00  0.00    -0.572 OA
ATOM     41  O2  IDU d1218      21.386 -12.479  -4.720  0.00  0.00    -0.244 OA
ATOM     42  C6  IDU d1218      20.099  -7.664  -4.207  0.00  0.00     0.203 C 
ATOM     43  C5  IDU d1218      20.975  -8.807  -3.783  0.00  0.00     0.127 C 
ATOM     44  C2  IDU d1218      21.989 -11.546  -3.827  0.00  0.00     0.132 C 
ATOM     45  C3  IDU d1218      20.966 -11.126  -2.760  0.00  0.00     0.069 C 
ATOM     46  O3  IDU d1218      21.638 -10.869  -1.521  0.00  0.00    -0.393 OA
ATOM     47  S   IDU d1218      22.039 -13.964  -4.929  0.00  0.00     0.252 S 
ATOM     48  O2S IDU d1218      21.412 -14.897  -3.966  0.00  0.00    -0.572 OA
ATOM     49  H   IDU d1218      19.654  -9.518  -2.271  0.00  0.00     0.041 H 
ATOM     50  H   IDU d1218      19.398 -10.222  -3.869  0.00  0.00     0.041 H 
ATOM     51  H   IDU d1218      22.796 -10.776  -5.628  0.00  0.00     0.133 H 
ATOM     52  H   IDU d1218      21.689  -8.458  -3.066  0.00  0.00     0.100 H 
ATOM     53  H   IDU d1218      22.804 -11.973  -3.281  0.00  0.00     0.097 H 
ATOM     54  H   IDU d1218      20.284 -11.945  -2.663  0.00  0.00     0.087 H 
ATOM     55  H   IDU d1218      22.250 -10.125  -1.634  0.00  0.00     0.210 HD
ENDROOT
TORSDOF 16
ENDMDL
MODEL 53
REMARK VINA RESULT:      -5.5      2.647      8.268
REMARK  0 active torsions:
REMARK  status: ('A' for Active; 'I' for Inactive)
REMARK       I    between atoms: C2_1  and  N_18 
REMARK       I    between atoms: O4_5  and  C1_17 
REMARK       I    between atoms: O4_5  and  C4_30 
REMARK       I    between atoms: O6_6  and  C6_7 
REMARK       I    between atoms: O6_6  and  S2_22 
REMARK       I    between atoms: C6_7  and  C5_28 
REMARK       I    between atoms: C3_8  and  O3_10 
REMARK       I    between atoms: C1_9  and  O1_16 
REMARK       I    between atoms: S1_12  and  N_18 
REMARK       I    between atoms: S1_12  and  O1S_13 
REMARK       I    between atoms: S1_12  and  O2S_15 
REMARK       I    between atoms: S1_12  and  O3S_26 
REMARK       I    between atoms: O2_24  and  C2_31 
REMARK       I    between atoms: O2_24  and  S_34 
REMARK       I    between atoms: C6_25  and  C5_27 
REMARK       I    between atoms: C3_32  and  O3_33 
ROOT
ATOM      1  C2  SGN d1219      19.066 -11.529  -1.508  0.00  0.00     0.081 C 
ATOM      2  O4  SGN d1219      21.138 -12.388  -4.534  0.00  0.00    -0.348 OA
ATOM      3  O6  SGN d1219      20.297 -15.916  -2.457  0.00  0.00    -0.254 OA
ATOM      4  C6  SGN d1219      20.328 -15.075  -3.592  0.00  0.00     0.067 C 
ATOM      5  C3  SGN d1219      20.018 -11.316  -2.693  0.00  0.00     0.083 C 
ATOM      6  C1  SGN d1219      18.137 -12.735  -1.704  0.00  0.00     0.147 C 
ATOM      7  O3  SGN d1219      21.058 -10.439  -2.313  0.00  0.00    -0.391 OA
ATOM      8  O4S SGN d1219      22.672 -16.354  -2.048  0.00  0.00    -0.572 OA
ATOM      9  S1  SGN d1219      18.161  -9.703   0.206  0.00  0.00     0.156 S 
ATOM     10  O1S SGN d1219      17.078  -8.724   0.153  0.00  0.00    -0.296 OA
ATOM     11  O5  SGN d1219      18.892 -13.878  -2.072  0.00  0.00    -0.350 OA
ATOM     12  O2S SGN d1219      19.449  -9.080   0.510  0.00  0.00    -0.296 OA
ATOM     13  O1  SGN d1219      17.146 -12.470  -2.678  0.00  0.00    -0.369 OA
ATOM     14  N   SGN d1219      18.287 -10.326  -1.266  0.00  0.00    -0.210 NA
ATOM     15  O5S SGN d1219      21.413 -17.794  -3.501  0.00  0.00    -0.572 OA
ATOM     16  S2  SGN d1219      21.389 -17.015  -2.269  0.00  0.00     0.251 S 
ATOM     17  O3S SGN d1219      17.855 -10.797   1.129  0.00  0.00    -0.296 OA
ATOM     18  C5  SGN d1219      19.609 -13.764  -3.293  0.00  0.00     0.091 C 
ATOM     19  O6S SGN d1219      20.985 -17.803  -1.111  0.00  0.00    -0.572 OA
ATOM     20  C4  SGN d1219      20.623 -12.617  -3.235  0.00  0.00     0.095 C 
ATOM     21  H   SGN d1219      19.675 -11.741  -0.653  0.00  0.00     0.076 H 
ATOM     22  H   SGN d1219      19.842 -15.566  -4.410  0.00  0.00     0.080 H 
ATOM     23  H   SGN d1219      21.346 -14.866  -3.846  0.00  0.00     0.080 H 
ATOM     24  H   SGN d1219      19.431 -10.895  -3.483  0.00  0.00     0.089 H 
ATOM     25  H   SGN d1219      17.641 -12.925  -0.775  0.00  0.00     0.131 H 
ATOM     26  H   SGN d1219      21.575 -10.841  -1.597  0.00  0.00     0.210 HD
ATOM     27  H   SGN d1219      17.313  -8.015  -0.466  0.00  0.00     0.231 HD
ATOM     28  H   SGN d1219      19.618  -8.362  -0.120  0.00  0.00     0.231 HD
ATOM     29  H   SGN d1219      17.571 -12.294  -3.532  0.00  0.00     0.212 HD
ATOM     30  H   SGN d1219      17.337 -10.529  -1.576  0.00  0.00     0.140 HD
ATOM     31  H   SGN d1219      16.996 -11.184   0.896  0.00  0.00     0.231 HD
ATOM     32  H   SGN d1219      18.910 -13.550  -4.073  0.00  0.00     0.090 H 
ATOM     33  H   SGN d1219      21.400 -12.910  -2.562  0.00  0.00     0.091 H 
ATOM     34  C4  IDU d1218      23.814 -10.501  -6.497  0.00  0.00    -0.005 C 
ATOM     35  O61 IDU d1218      22.420  -7.640  -5.673  0.00  0.00    -0.646 OA
ATOM     36  O5  IDU d1218      22.900 -10.750  -4.278  0.00  0.00    -0.343 OA
ATOM     37  C1  IDU d1218      22.554 -12.137  -4.433  0.00  0.00     0.161 C 
ATOM     38  O62 IDU d1218      24.090  -8.290  -4.358  0.00  0.00    -0.646 OA
ATOM     39  O1S IDU d1218      25.661 -15.224  -3.754  0.00  0.00    -0.572 OA
ATOM     40  O3S IDU d1218      23.486 -15.647  -4.696  0.00  0.00    -0.572 OA
ATOM     41  O2  IDU d1218      24.535 -13.346  -5.061  0.00  0.00    -0.244 OA
ATOM     42  C6  IDU d1218      23.130  -8.536  -5.146  0.00  0.00     0.203 C 
ATOM     43  C5  IDU d1218      22.815  -9.968  -5.470  0.00  0.00     0.127 C 
ATOM     44  C2  IDU d1218      23.301 -12.846  -5.572  0.00  0.00     0.132 C 
ATOM     45  C3  IDU d1218      23.575 -11.980  -6.811  0.00  0.00     0.069 C 
ATOM     46  O3  IDU d1218      22.488 -12.104  -7.736  0.00  0.00    -0.393 OA
ATOM     47  S   IDU d1218      24.776 -14.956  -4.911  0.00  0.00     0.252 S 
ATOM     48  O2S IDU d1218      25.403 -15.459  -6.154  0.00  0.00    -0.572 OA
ATOM     49  H   IDU d1218      23.716  -9.936  -7.401  0.00  0.00     0.041 H 
ATOM     50  H   IDU d1218      24.797 -10.403  -6.086  0.00  0.00     0.041 H 
ATOM     51  H   IDU d1218      22.888 -12.567  -3.512  0.00  0.00     0.133 H 
ATOM     52  H   IDU d1218      21.827 -10.029  -5.876  0.00  0.00     0.100 H 
ATOM     53  H   IDU d1218      22.655 -13.628  -5.913  0.00  0.00     0.097 H 
ATOM     54  H   IDU d1218      24.484 -12.349  -7.237  0.00  0.00     0.087 H 
ATOM     55  H   IDU d1218      21.676 -11.765  -7.328  0.00  0.00     0.210 HD
ENDROOT
TORSDOF 16
ENDMDL
MODEL 54
REMARK VINA RESULT:      -5.5      2.861      7.964
REMARK  0 active torsions:
REMARK  status: ('A' for Active; 'I' for Inactive)
REMARK       I    between atoms: C2_1  and  N_18 
REMARK       I    between atoms: O4_5  and  C1_17 
REMARK       I    between atoms: O4_5  and  C4_30 
REMARK       I    between atoms: O6_6  and  C6_7 
REMARK       I    between atoms: O6_6  and  S2_22 
REMARK       I    between atoms: C6_7  and  C5_28 
REMARK       I    between atoms: C3_8  and  O3_10 
REMARK       I    between atoms: C1_9  and  O1_16 
REMARK       I    between atoms: S1_12  and  N_18 
REMARK       I    between atoms: S1_12  and  O1S_13 
REMARK       I    between atoms: S1_12  and  O2S_15 
REMARK       I    between atoms: S1_12  and  O3S_26 
REMARK       I    between atoms: O2_24  and  C2_31 
REMARK       I    between atoms: O2_24  and  S_34 
REMARK       I    between atoms: C6_25  and  C5_27 
REMARK       I    between atoms: C3_32  and  O3_33 
ROOT
ATOM      1  C2  SGN d1219      18.138 -12.438  -0.909  0.00  0.00     0.081 C 
ATOM      2  O4  SGN d1219      20.521 -12.732  -3.810  0.00  0.00    -0.348 OA
ATOM      3  O6  SGN d1219      20.969 -16.101  -1.379  0.00  0.00    -0.254 OA
ATOM      4  C6  SGN d1219      20.736 -15.423  -2.596  0.00  0.00     0.067 C 
ATOM      5  C3  SGN d1219      18.994 -11.994  -2.102  0.00  0.00     0.083 C 
ATOM      6  C1  SGN d1219      17.740 -13.919  -0.984  0.00  0.00     0.147 C 
ATOM      7  O3  SGN d1219      19.610 -10.757  -1.809  0.00  0.00    -0.391 OA
ATOM      8  O4S SGN d1219      23.312 -15.567  -0.906  0.00  0.00    -0.572 OA
ATOM      9  S1  SGN d1219      16.532 -10.936   0.594  0.00  0.00     0.156 S 
ATOM     10  O1S SGN d1219      15.165 -10.450   0.429  0.00  0.00    -0.296 OA
ATOM     11  O5  SGN d1219      18.885 -14.720  -1.223  0.00  0.00    -0.350 OA
ATOM     12  O2S SGN d1219      17.476  -9.846   0.841  0.00  0.00    -0.296 OA
ATOM     13  O1  SGN d1219      16.769 -14.142  -1.989  0.00  0.00    -0.369 OA
ATOM     14  N   SGN d1219      16.953 -11.602  -0.803  0.00  0.00    -0.210 NA
ATOM     15  O5S SGN d1219      22.757 -17.508  -2.208  0.00  0.00    -0.572 OA
ATOM     16  S2  SGN d1219      22.383 -16.682  -1.066  0.00  0.00     0.251 S 
ATOM     17  O3S SGN d1219      16.616 -11.972   1.625  0.00  0.00    -0.296 OA
ATOM     18  C5  SGN d1219      19.564 -14.459  -2.443  0.00  0.00     0.091 C 
ATOM     19  O6S SGN d1219      22.250 -17.451   0.166  0.00  0.00    -0.572 OA
ATOM     20  C4  SGN d1219      20.070 -13.014  -2.499  0.00  0.00     0.095 C 
ATOM     21  H   SGN d1219      18.739 -12.321  -0.031  0.00  0.00     0.076 H 
ATOM     22  H   SGN d1219      20.510 -16.136  -3.361  0.00  0.00     0.080 H 
ATOM     23  H   SGN d1219      21.612 -14.870  -2.862  0.00  0.00     0.080 H 
ATOM     24  H   SGN d1219      18.331 -11.904  -2.937  0.00  0.00     0.089 H 
ATOM     25  H   SGN d1219      17.307 -14.193  -0.045  0.00  0.00     0.131 H 
ATOM     26  H   SGN d1219      20.205 -10.864  -1.051  0.00  0.00     0.210 HD
ATOM     27  H   SGN d1219      15.145  -9.767  -0.260  0.00  0.00     0.231 HD
ATOM     28  H   SGN d1219      17.393  -9.181   0.140  0.00  0.00     0.231 HD
ATOM     29  H   SGN d1219      17.137 -13.900  -2.854  0.00  0.00     0.212 HD
ATOM     30  H   SGN d1219      16.164 -12.179  -1.097  0.00  0.00     0.140 HD
ATOM     31  H   SGN d1219      15.977 -12.675   1.428  0.00  0.00     0.231 HD
ATOM     32  H   SGN d1219      18.873 -14.601  -3.247  0.00  0.00     0.090 H 
ATOM     33  H   SGN d1219      20.867 -12.926  -1.792  0.00  0.00     0.091 H 
ATOM     34  C4  IDU d1218      22.383 -10.168  -5.941  0.00  0.00    -0.005 C 
ATOM     35  O61 IDU d1218      19.979  -7.983  -5.435  0.00  0.00    -0.646 OA
ATOM     36  O5  IDU d1218      21.525 -10.533  -3.715  0.00  0.00    -0.343 OA
ATOM     37  C1  IDU d1218      21.733 -11.955  -3.725  0.00  0.00     0.161 C 
ATOM     38  O62 IDU d1218      21.707  -7.825  -4.046  0.00  0.00    -0.646 OA
ATOM     39  O1S IDU d1218      25.736 -13.557  -2.698  0.00  0.00    -0.572 OA
ATOM     40  O3S IDU d1218      23.926 -14.859  -3.607  0.00  0.00    -0.572 OA
ATOM     41  O2  IDU d1218      24.050 -12.378  -4.205  0.00  0.00    -0.244 OA
ATOM     42  C6  IDU d1218      20.948  -8.490  -4.810  0.00  0.00     0.203 C 
ATOM     43  C5  IDU d1218      21.210  -9.958  -4.984  0.00  0.00     0.127 C 
ATOM     44  C2  IDU d1218      22.745 -12.434  -4.776  0.00  0.00     0.132 C 
ATOM     45  C3  IDU d1218      22.732 -11.651  -6.098  0.00  0.00     0.069 C 
ATOM     46  O3  IDU d1218      21.816 -12.264  -7.014  0.00  0.00    -0.393 OA
ATOM     47  S   IDU d1218      24.871 -13.756  -3.884  0.00  0.00     0.252 S 
ATOM     48  O2S IDU d1218      25.699 -14.099  -5.061  0.00  0.00    -0.572 OA
ATOM     49  H   IDU d1218      22.123  -9.771  -6.899  0.00  0.00     0.041 H 
ATOM     50  H   IDU d1218      23.237  -9.667  -5.534  0.00  0.00     0.041 H 
ATOM     51  H   IDU d1218      22.160 -12.138  -2.761  0.00  0.00     0.133 H 
ATOM     52  H   IDU d1218      20.337 -10.427  -5.389  0.00  0.00     0.100 H 
ATOM     53  H   IDU d1218      22.457 -13.431  -5.038  0.00  0.00     0.097 H 
ATOM     54  H   IDU d1218      23.732 -11.686  -6.475  0.00  0.00     0.087 H 
ATOM     55  H   IDU d1218      20.918 -12.220  -6.650  0.00  0.00     0.210 HD
ENDROOT
TORSDOF 16
ENDMDL
MODEL 55
REMARK VINA RESULT:      -5.5      2.756      3.688
REMARK  0 active torsions:
REMARK  status: ('A' for Active; 'I' for Inactive)
REMARK       I    between atoms: C2_1  and  N_18 
REMARK       I    between atoms: O4_5  and  C1_17 
REMARK       I    between atoms: O4_5  and  C4_30 
REMARK       I    between atoms: O6_6  and  C6_7 
REMARK       I    between atoms: O6_6  and  S2_22 
REMARK       I    between atoms: C6_7  and  C5_28 
REMARK       I    between atoms: C3_8  and  O3_10 
REMARK       I    between atoms: C1_9  and  O1_16 
REMARK       I    between atoms: S1_12  and  N_18 
REMARK       I    between atoms: S1_12  and  O1S_13 
REMARK       I    between atoms: S1_12  and  O2S_15 
REMARK       I    between atoms: S1_12  and  O3S_26 
REMARK       I    between atoms: O2_24  and  C2_31 
REMARK       I    between atoms: O2_24  and  S_34 
REMARK       I    between atoms: C6_25  and  C5_27 
REMARK       I    between atoms: C3_32  and  O3_33 
ROOT
ATOM      1  C2  SGN d1219      20.308 -13.385  -4.477  0.00  0.00     0.081 C 
ATOM      2  O4  SGN d1219      20.873 -10.034  -2.852  0.00  0.00    -0.348 OA
ATOM      3  O6  SGN d1219      24.439 -11.249  -4.662  0.00  0.00    -0.254 OA
ATOM      4  C6  SGN d1219      23.369 -10.362  -4.411  0.00  0.00     0.067 C 
ATOM      5  C3  SGN d1219      20.064 -12.193  -3.541  0.00  0.00     0.083 C 
ATOM      6  C1  SGN d1219      21.101 -12.997  -5.733  0.00  0.00     0.147 C 
ATOM      7  O3  SGN d1219      19.655 -12.664  -2.273  0.00  0.00    -0.391 OA
ATOM      8  O4S SGN d1219      25.628 -11.277  -2.520  0.00  0.00    -0.572 OA
ATOM      9  S1  SGN d1219      18.831 -15.585  -4.735  0.00  0.00     0.156 S 
ATOM     10  O1S SGN d1219      17.608 -15.894  -5.472  0.00  0.00    -0.296 OA
ATOM     11  O5  SGN d1219      22.268 -12.278  -5.371  0.00  0.00    -0.350 OA
ATOM     12  O2S SGN d1219      18.707 -15.893  -3.311  0.00  0.00    -0.296 OA
ATOM     13  O1  SGN d1219      20.313 -12.233  -6.625  0.00  0.00    -0.369 OA
ATOM     14  N   SGN d1219      19.045 -14.000  -4.848  0.00  0.00    -0.210 NA
ATOM     15  O5S SGN d1219      26.204  -9.658  -4.198  0.00  0.00    -0.572 OA
ATOM     16  S2  SGN d1219      25.812 -11.040  -3.950  0.00  0.00     0.251 S 
ATOM     17  O3S SGN d1219      19.999 -16.236  -5.332  0.00  0.00    -0.296 OA
ATOM     18  C5  SGN d1219      22.039 -11.053  -4.689  0.00  0.00     0.091 C 
ATOM     19  O6S SGN d1219      26.734 -12.003  -4.539  0.00  0.00    -0.572 OA
ATOM     20  C4  SGN d1219      21.287 -11.283  -3.374  0.00  0.00     0.095 C 
ATOM     21  H   SGN d1219      20.906 -14.089  -3.937  0.00  0.00     0.076 H 
ATOM     22  H   SGN d1219      23.462  -9.506  -5.046  0.00  0.00     0.080 H 
ATOM     23  H   SGN d1219      23.398 -10.059  -3.385  0.00  0.00     0.080 H 
ATOM     24  H   SGN d1219      19.297 -11.601  -3.996  0.00  0.00     0.089 H 
ATOM     25  H   SGN d1219      21.384 -13.898  -6.236  0.00  0.00     0.131 H 
ATOM     26  H   SGN d1219      20.365 -13.197  -1.882  0.00  0.00     0.210 HD
ATOM     27  H   SGN d1219      16.856 -15.449  -5.052  0.00  0.00     0.231 HD
ATOM     28  H   SGN d1219      17.924 -15.446  -2.951  0.00  0.00     0.231 HD
ATOM     29  H   SGN d1219      20.042 -11.408  -6.192  0.00  0.00     0.212 HD
ATOM     30  H   SGN d1219      18.878 -13.754  -5.824  0.00  0.00     0.140 HD
ATOM     31  H   SGN d1219      20.049 -16.009  -6.274  0.00  0.00     0.231 HD
ATOM     32  H   SGN d1219      21.432 -10.431  -5.314  0.00  0.00     0.090 H 
ATOM     33  H   SGN d1219      21.959 -11.775  -2.703  0.00  0.00     0.091 H 
ATOM     34  C4  IDU d1218      19.370  -8.321   0.211  0.00  0.00    -0.005 C 
ATOM     35  O61 IDU d1218      16.563  -9.976  -0.226  0.00  0.00    -0.646 OA
ATOM     36  O5  IDU d1218      19.937 -10.495  -0.671  0.00  0.00    -0.343 OA
ATOM     37  C1  IDU d1218      21.073 -10.040  -1.424  0.00  0.00     0.161 C 
ATOM     38  O62 IDU d1218      17.990 -10.899   1.206  0.00  0.00    -0.646 OA
ATOM     39  O1S IDU d1218      24.980  -9.590   0.620  0.00  0.00    -0.572 OA
ATOM     40  O3S IDU d1218      24.496  -8.815  -1.608  0.00  0.00    -0.572 OA
ATOM     41  O2  IDU d1218      22.579  -8.921   0.078  0.00  0.00    -0.244 OA
ATOM     42  C6  IDU d1218      17.732 -10.184   0.195  0.00  0.00     0.203 C 
ATOM     43  C5  IDU d1218      18.872  -9.550  -0.549  0.00  0.00     0.127 C 
ATOM     44  C2  IDU d1218      21.631  -8.686  -0.961  0.00  0.00     0.132 C 
ATOM     45  C3  IDU d1218      20.579  -7.678  -0.474  0.00  0.00     0.069 C 
ATOM     46  O3  IDU d1218      20.135  -6.875  -1.575  0.00  0.00    -0.393 OA
ATOM     47  S   IDU d1218      24.170  -8.639  -0.176  0.00  0.00     0.252 S 
ATOM     48  O2S IDU d1218      24.476  -7.250   0.232  0.00  0.00    -0.572 OA
ATOM     49  H   IDU d1218      18.579  -7.603   0.262  0.00  0.00     0.041 H 
ATOM     50  H   IDU d1218      19.671  -8.635   1.189  0.00  0.00     0.041 H 
ATOM     51  H   IDU d1218      21.811 -10.783  -1.210  0.00  0.00     0.133 H 
ATOM     52  H   IDU d1218      18.538  -9.252  -1.520  0.00  0.00     0.100 H 
ATOM     53  H   IDU d1218      22.075  -8.234  -1.824  0.00  0.00     0.097 H 
ATOM     54  H   IDU d1218      21.062  -7.078   0.268  0.00  0.00     0.087 H 
ATOM     55  H   IDU d1218      19.701  -7.440  -2.233  0.00  0.00     0.210 HD
ENDROOT
TORSDOF 16
ENDMDL
MODEL 56
REMARK VINA RESULT:      -5.5      2.467      6.702
REMARK  0 active torsions:
REMARK  status: ('A' for Active; 'I' for Inactive)
REMARK       I    between atoms: C2_1  and  N_18 
REMARK       I    between atoms: O4_5  and  C1_17 
REMARK       I    between atoms: O4_5  and  C4_30 
REMARK       I    between atoms: O6_6  and  C6_7 
REMARK       I    between atoms: O6_6  and  S2_22 
REMARK       I    between atoms: C6_7  and  C5_28 
REMARK       I    between atoms: C3_8  and  O3_10 
REMARK       I    between atoms: C1_9  and  O1_16 
REMARK       I    between atoms: S1_12  and  N_18 
REMARK       I    between atoms: S1_12  and  O1S_13 
REMARK       I    between atoms: S1_12  and  O2S_15 
REMARK       I    between atoms: S1_12  and  O3S_26 
REMARK       I    between atoms: O2_24  and  C2_31 
REMARK       I    between atoms: O2_24  and  S_34 
REMARK       I    between atoms: C6_25  and  C5_27 
REMARK       I    between atoms: C3_32  and  O3_33 
ROOT
ATOM      1  C2  SGN d1219      21.151  -9.924  -3.701  0.00  0.00     0.081 C 
ATOM      2  O4  SGN d1219      20.332 -12.976  -1.652  0.00  0.00    -0.348 OA
ATOM      3  O6  SGN d1219      22.250 -14.206  -5.155  0.00  0.00    -0.254 OA
ATOM      4  C6  SGN d1219      22.067 -14.127  -3.757  0.00  0.00     0.067 C 
ATOM      5  C3  SGN d1219      20.460 -10.782  -2.633  0.00  0.00     0.083 C 
ATOM      6  C1  SGN d1219      22.544 -10.452  -4.075  0.00  0.00     0.147 C 
ATOM      7  O3  SGN d1219      19.083 -10.466  -2.590  0.00  0.00    -0.391 OA
ATOM      8  O4S SGN d1219      20.302 -15.500  -5.881  0.00  0.00    -0.572 OA
ATOM      9  S1  SGN d1219      20.776  -7.337  -4.209  0.00  0.00     0.156 S 
ATOM     10  O1S SGN d1219      21.286  -6.110  -3.604  0.00  0.00    -0.296 OA
ATOM     11  O5  SGN d1219      22.475 -11.836  -4.378  0.00  0.00    -0.350 OA
ATOM     12  O2S SGN d1219      19.314  -7.365  -4.244  0.00  0.00    -0.296 OA
ATOM     13  O1  SGN d1219      23.477 -10.224  -3.037  0.00  0.00    -0.369 OA
ATOM     14  N   SGN d1219      21.238  -8.543  -3.258  0.00  0.00    -0.210 NA
ATOM     15  O5S SGN d1219      22.334 -16.624  -5.266  0.00  0.00    -0.572 OA
ATOM     16  S2  SGN d1219      21.760 -15.464  -5.938  0.00  0.00     0.251 S 
ATOM     17  O3S SGN d1219      21.356  -7.567  -5.533  0.00  0.00    -0.296 OA
ATOM     18  C5  SGN d1219      22.040 -12.669  -3.313  0.00  0.00     0.091 C 
ATOM     19  O6S SGN d1219      22.241 -15.311  -7.306  0.00  0.00    -0.572 OA
ATOM     20  C4  SGN d1219      20.628 -12.291  -2.855  0.00  0.00     0.095 C 
ATOM     21  H   SGN d1219      20.549  -9.980  -4.585  0.00  0.00     0.076 H 
ATOM     22  H   SGN d1219      22.872 -14.632  -3.265  0.00  0.00     0.080 H 
ATOM     23  H   SGN d1219      21.136 -14.588  -3.499  0.00  0.00     0.080 H 
ATOM     24  H   SGN d1219      20.936 -10.551  -1.702  0.00  0.00     0.089 H 
ATOM     25  H   SGN d1219      22.878  -9.918  -4.940  0.00  0.00     0.131 H 
ATOM     26  H   SGN d1219      18.675 -10.684  -3.442  0.00  0.00     0.210 HD
ATOM     27  H   SGN d1219      20.883  -5.988  -2.730  0.00  0.00     0.231 HD
ATOM     28  H   SGN d1219      18.966  -7.210  -3.351  0.00  0.00     0.231 HD
ATOM     29  H   SGN d1219      23.195 -10.698  -2.239  0.00  0.00     0.212 HD
ATOM     30  H   SGN d1219      22.217  -8.372  -3.030  0.00  0.00     0.140 HD
ATOM     31  H   SGN d1219      22.323  -7.541  -5.471  0.00  0.00     0.231 HD
ATOM     32  H   SGN d1219      22.705 -12.531  -2.487  0.00  0.00     0.090 H 
ATOM     33  H   SGN d1219      19.952 -12.574  -3.633  0.00  0.00     0.091 H 
ATOM     34  C4  IDU d1218      17.537 -13.802   0.814  0.00  0.00    -0.005 C 
ATOM     35  O61 IDU d1218      17.294 -10.625   1.623  0.00  0.00    -0.646 OA
ATOM     36  O5  IDU d1218      18.009 -12.509  -1.168  0.00  0.00    -0.343 OA
ATOM     37  C1  IDU d1218      18.966 -13.436  -1.706  0.00  0.00     0.161 C 
ATOM     38  O62 IDU d1218      15.877 -11.311   0.055  0.00  0.00    -0.646 OA
ATOM     39  O1S IDU d1218      17.525 -16.920  -4.037  0.00  0.00    -0.572 OA
ATOM     40  O3S IDU d1218      19.794 -16.606  -3.294  0.00  0.00    -0.572 OA
ATOM     41  O2  IDU d1218      17.913 -15.588  -1.896  0.00  0.00    -0.244 OA
ATOM     42  C6  IDU d1218      16.977 -11.390   0.674  0.00  0.00     0.203 C 
ATOM     43  C5  IDU d1218      17.963 -12.444   0.259  0.00  0.00     0.127 C 
ATOM     44  C2  IDU d1218      18.861 -14.854  -1.125  0.00  0.00     0.132 C 
ATOM     45  C3  IDU d1218      18.475 -14.924   0.360  0.00  0.00     0.069 C 
ATOM     46  O3  IDU d1218      19.659 -14.913   1.168  0.00  0.00    -0.393 OA
ATOM     47  S   IDU d1218      18.402 -16.826  -2.846  0.00  0.00     0.252 S 
ATOM     48  O2S IDU d1218      18.329 -18.081  -2.065  0.00  0.00    -0.572 OA
ATOM     49  H   IDU d1218      17.544 -13.756   1.883  0.00  0.00     0.041 H 
ATOM     50  H   IDU d1218      16.556 -14.020   0.444  0.00  0.00     0.041 H 
ATOM     51  H   IDU d1218      18.689 -13.489  -2.738  0.00  0.00     0.133 H 
ATOM     52  H   IDU d1218      18.930 -12.194   0.642  0.00  0.00     0.100 H 
ATOM     53  H   IDU d1218      19.844 -15.274  -1.180  0.00  0.00     0.097 H 
ATOM     54  H   IDU d1218      17.935 -15.838   0.485  0.00  0.00     0.087 H 
ATOM     55  H   IDU d1218      20.132 -14.077   1.038  0.00  0.00     0.210 HD
ENDROOT
TORSDOF 16
ENDMDL
MODEL 57
REMARK VINA RESULT:      -5.4      4.458      8.566
REMARK  0 active torsions:
REMARK  status: ('A' for Active; 'I' for Inactive)
REMARK       I    between atoms: C2_1  and  N_18 
REMARK       I    between atoms: O4_5  and  C1_17 
REMARK       I    between atoms: O4_5  and  C4_30 
REMARK       I    between atoms: O6_6  and  C6_7 
REMARK       I    between atoms: O6_6  and  S2_22 
REMARK       I    between atoms: C6_7  and  C5_28 
REMARK       I    between atoms: C3_8  and  O3_10 
REMARK       I    between atoms: C1_9  and  O1_16 
REMARK       I    between atoms: S1_12  and  N_18 
REMARK       I    between atoms: S1_12  and  O1S_13 
REMARK       I    between atoms: S1_12  and  O2S_15 
REMARK       I    between atoms: S1_12  and  O3S_26 
REMARK       I    between atoms: O2_24  and  C2_31 
REMARK       I    between atoms: O2_24  and  S_34 
REMARK       I    between atoms: C6_25  and  C5_27 
REMARK       I    between atoms: C3_32  and  O3_33 
ROOT
ATOM      1  C2  SGN d1219      27.369  -7.590  -2.927  0.00  0.00     0.081 C 
ATOM      2  O4  SGN d1219      24.013  -9.225  -3.431  0.00  0.00    -0.348 OA
ATOM      3  O6  SGN d1219      26.918 -12.217  -3.146  0.00  0.00    -0.254 OA
ATOM      4  C6  SGN d1219      25.717 -11.560  -2.793  0.00  0.00     0.067 C 
ATOM      5  C3  SGN d1219      25.889  -7.722  -3.312  0.00  0.00     0.083 C 
ATOM      6  C1  SGN d1219      27.800  -8.619  -1.872  0.00  0.00     0.147 C 
ATOM      7  O3  SGN d1219      25.646  -7.009  -4.508  0.00  0.00    -0.391 OA
ATOM      8  O4S SGN d1219      26.442 -13.027  -5.408  0.00  0.00    -0.572 OA
ATOM      9  S1  SGN d1219      28.893  -5.409  -3.034  0.00  0.00     0.156 S 
ATOM     10  O1S SGN d1219      29.073  -4.264  -2.146  0.00  0.00    -0.296 OA
ATOM     11  O5  SGN d1219      27.404  -9.921  -2.271  0.00  0.00    -0.350 OA
ATOM     12  O2S SGN d1219      28.537  -5.000  -4.393  0.00  0.00    -0.296 OA
ATOM     13  O1  SGN d1219      27.260  -8.311  -0.601  0.00  0.00    -0.369 OA
ATOM     14  N   SGN d1219      27.649  -6.242  -2.461  0.00  0.00    -0.210 NA
ATOM     15  O5S SGN d1219      25.922 -14.395  -3.504  0.00  0.00    -0.572 OA
ATOM     16  S2  SGN d1219      26.880 -13.462  -4.085  0.00  0.00     0.251 S 
ATOM     17  O3S SGN d1219      30.062  -6.291  -3.022  0.00  0.00    -0.296 OA
ATOM     18  C5  SGN d1219      26.004 -10.110  -2.418  0.00  0.00     0.091 C 
ATOM     19  O6S SGN d1219      28.237 -13.995  -4.117  0.00  0.00    -0.572 OA
ATOM     20  C4  SGN d1219      25.427  -9.175  -3.485  0.00  0.00     0.095 C 
ATOM     21  H   SGN d1219      27.940  -7.791  -3.810  0.00  0.00     0.076 H 
ATOM     22  H   SGN d1219      25.273 -12.060  -1.958  0.00  0.00     0.080 H 
ATOM     23  H   SGN d1219      25.048 -11.581  -3.628  0.00  0.00     0.080 H 
ATOM     24  H   SGN d1219      25.325  -7.312  -2.500  0.00  0.00     0.089 H 
ATOM     25  H   SGN d1219      28.866  -8.583  -1.793  0.00  0.00     0.131 H 
ATOM     26  H   SGN d1219      26.166  -7.398  -5.227  0.00  0.00     0.210 HD
ATOM     27  H   SGN d1219      28.283  -3.703  -2.178  0.00  0.00     0.231 HD
ATOM     28  H   SGN d1219      27.760  -4.419  -4.362  0.00  0.00     0.231 HD
ATOM     29  H   SGN d1219      26.291  -8.335  -0.647  0.00  0.00     0.212 HD
ATOM     30  H   SGN d1219      27.784  -6.306  -1.452  0.00  0.00     0.140 HD
ATOM     31  H   SGN d1219      30.269  -6.540  -2.107  0.00  0.00     0.231 HD
ATOM     32  H   SGN d1219      25.534  -9.880  -1.485  0.00  0.00     0.090 H 
ATOM     33  H   SGN d1219      25.786  -9.511  -4.434  0.00  0.00     0.091 H 
ATOM     34  C4  IDU d1218      20.822  -8.155  -5.232  0.00  0.00    -0.005 C 
ATOM     35  O61 IDU d1218      21.532  -4.999  -4.642  0.00  0.00    -0.646 OA
ATOM     36  O5  IDU d1218      23.222  -7.923  -5.309  0.00  0.00    -0.343 OA
ATOM     37  C1  IDU d1218      23.498  -9.230  -4.777  0.00  0.00     0.161 C 
ATOM     38  O62 IDU d1218      22.188  -5.761  -6.625  0.00  0.00    -0.646 OA
ATOM     39  O1S IDU d1218      23.511 -12.716  -7.515  0.00  0.00    -0.572 OA
ATOM     40  O3S IDU d1218      23.604 -12.854  -5.113  0.00  0.00    -0.572 OA
ATOM     41  O2  IDU d1218      22.402 -10.859  -6.163  0.00  0.00    -0.244 OA
ATOM     42  C6  IDU d1218      21.907  -5.931  -5.403  0.00  0.00     0.203 C 
ATOM     43  C5  IDU d1218      22.027  -7.310  -4.822  0.00  0.00     0.127 C 
ATOM     44  C2  IDU d1218      22.326 -10.214  -4.894  0.00  0.00     0.132 C 
ATOM     45  C3  IDU d1218      20.932  -9.593  -4.719  0.00  0.00     0.069 C 
ATOM     46  O3  IDU d1218      20.552  -9.640  -3.338  0.00  0.00    -0.393 OA
ATOM     47  S   IDU d1218      22.766 -12.450  -6.263  0.00  0.00     0.252 S 
ATOM     48  O2S IDU d1218      21.506 -13.226  -6.250  0.00  0.00    -0.572 OA
ATOM     49  H   IDU d1218      19.935  -7.711  -4.829  0.00  0.00     0.041 H 
ATOM     50  H   IDU d1218      20.786  -8.186  -6.301  0.00  0.00     0.041 H 
ATOM     51  H   IDU d1218      24.281  -9.584  -5.416  0.00  0.00     0.133 H 
ATOM     52  H   IDU d1218      22.063  -7.242  -3.755  0.00  0.00     0.100 H 
ATOM     53  H   IDU d1218      22.431 -10.903  -4.081  0.00  0.00     0.097 H 
ATOM     54  H   IDU d1218      20.267 -10.179  -5.319  0.00  0.00     0.087 H 
ATOM     55  H   IDU d1218      21.168  -9.103  -2.815  0.00  0.00     0.210 HD
ENDROOT
TORSDOF 16
ENDMDL
MODEL 58
REMARK VINA RESULT:      -5.4      3.308      8.392
REMARK  0 active torsions:
REMARK  status: ('A' for Active; 'I' for Inactive)
REMARK       I    between atoms: C2_1  and  N_18 
REMARK       I    between atoms: O4_5  and  C1_17 
REMARK       I    between atoms: O4_5  and  C4_30 
REMARK       I    between atoms: O6_6  and  C6_7 
REMARK       I    between atoms: O6_6  and  S2_22 
REMARK       I    between atoms: C6_7  and  C5_28 
REMARK       I    between atoms: C3_8  and  O3_10 
REMARK       I    between atoms: C1_9  and  O1_16 
REMARK       I    between atoms: S1_12  and  N_18 
REMARK       I    between atoms: S1_12  and  O1S_13 
REMARK       I    between atoms: S1_12  and  O2S_15 
REMARK       I    between atoms: S1_12  and  O3S_26 
REMARK       I    between atoms: O2_24  and  C2_31 
REMARK       I    between atoms: O2_24  and  S_34 
REMARK       I    between atoms: C6_25  and  C5_27 
REMARK       I    between atoms: C3_32  and  O3_33 
ROOT
ATOM      1  C2  SGN d1219      21.770  -8.232  -1.255  0.00  0.00     0.081 C 
ATOM      2  O4  SGN d1219      22.941  -9.521  -4.594  0.00  0.00    -0.348 OA
ATOM      3  O6  SGN d1219      19.625 -11.764  -3.395  0.00  0.00    -0.254 OA
ATOM      4  C6  SGN d1219      20.368 -10.951  -4.280  0.00  0.00     0.067 C 
ATOM      5  C3  SGN d1219      22.715  -8.473  -2.439  0.00  0.00     0.083 C 
ATOM      6  C1  SGN d1219      20.290  -8.319  -1.652  0.00  0.00     0.147 C 
ATOM      7  O3  SGN d1219      24.020  -8.728  -1.959  0.00  0.00    -0.391 OA
ATOM      8  O4S SGN d1219      20.925 -13.840  -3.354  0.00  0.00    -0.572 OA
ATOM      9  S1  SGN d1219      22.243  -6.808   0.945  0.00  0.00     0.156 S 
ATOM     10  O1S SGN d1219      22.188  -5.381   1.250  0.00  0.00    -0.296 OA
ATOM     11  O5  SGN d1219      20.047  -9.518  -2.370  0.00  0.00    -0.350 OA
ATOM     12  O2S SGN d1219      23.549  -7.387   1.263  0.00  0.00    -0.296 OA
ATOM     13  O1  SGN d1219      19.895  -7.200  -2.422  0.00  0.00    -0.369 OA
ATOM     14  N   SGN d1219      22.052  -6.945  -0.641  0.00  0.00    -0.210 NA
ATOM     15  O5S SGN d1219      19.187 -13.537  -4.985  0.00  0.00    -0.572 OA
ATOM     16  S2  SGN d1219      19.586 -13.310  -3.601  0.00  0.00     0.251 S 
ATOM     17  O3S SGN d1219      21.152  -7.540   1.590  0.00  0.00    -0.296 OA
ATOM     18  C5  SGN d1219      20.763  -9.650  -3.589  0.00  0.00     0.091 C 
ATOM     19  O6S SGN d1219      18.618 -13.830  -2.643  0.00  0.00    -0.572 OA
ATOM     20  C4  SGN d1219      22.276  -9.628  -3.350  0.00  0.00     0.095 C 
ATOM     21  H   SGN d1219      21.949  -9.014  -0.547  0.00  0.00     0.076 H 
ATOM     22  H   SGN d1219      19.773 -10.728  -5.140  0.00  0.00     0.080 H 
ATOM     23  H   SGN d1219      21.254 -11.473  -4.576  0.00  0.00     0.080 H 
ATOM     24  H   SGN d1219      22.692  -7.584  -3.035  0.00  0.00     0.089 H 
ATOM     25  H   SGN d1219      19.706  -8.321  -0.755  0.00  0.00     0.131 H 
ATOM     26  H   SGN d1219      24.016  -9.536  -1.425  0.00  0.00     0.210 HD
ATOM     27  H   SGN d1219      22.922  -4.927   0.808  0.00  0.00     0.231 HD
ATOM     28  H   SGN d1219      24.245  -6.877   0.820  0.00  0.00     0.231 HD
ATOM     29  H   SGN d1219      20.411  -7.174  -3.243  0.00  0.00     0.212 HD
ATOM     30  H   SGN d1219      21.281  -6.327  -0.894  0.00  0.00     0.140 HD
ATOM     31  H   SGN d1219      20.305  -7.129   1.357  0.00  0.00     0.231 HD
ATOM     32  H   SGN d1219      20.514  -8.819  -4.215  0.00  0.00     0.090 H 
ATOM     33  H   SGN d1219      22.535 -10.539  -2.854  0.00  0.00     0.091 H 
ATOM     34  C4  IDU d1218      26.360  -9.690  -6.284  0.00  0.00    -0.005 C 
ATOM     35  O61 IDU d1218      27.325  -7.017  -4.631  0.00  0.00    -0.646 OA
ATOM     36  O5  IDU d1218      25.301  -9.754  -4.117  0.00  0.00    -0.343 OA
ATOM     37  C1  IDU d1218      24.095 -10.385  -4.579  0.00  0.00     0.161 C 
ATOM     38  O62 IDU d1218      27.882  -8.957  -3.699  0.00  0.00    -0.646 OA
ATOM     39  O1S IDU d1218      23.998 -14.795  -5.017  0.00  0.00    -0.572 OA
ATOM     40  O3S IDU d1218      22.286 -13.297  -5.808  0.00  0.00    -0.572 OA
ATOM     41  O2  IDU d1218      24.688 -12.433  -5.689  0.00  0.00    -0.244 OA
ATOM     42  C6  IDU d1218      27.126  -8.243  -4.420  0.00  0.00     0.203 C 
ATOM     43  C5  IDU d1218      25.928  -8.884  -5.060  0.00  0.00     0.127 C 
ATOM     44  C2  IDU d1218      24.239 -11.102  -5.930  0.00  0.00     0.132 C 
ATOM     45  C3  IDU d1218      25.180 -10.419  -6.933  0.00  0.00     0.069 C 
ATOM     46  O3  IDU d1218      24.438  -9.500  -7.744  0.00  0.00    -0.393 OA
ATOM     47  S   IDU d1218      23.699 -13.704  -5.974  0.00  0.00     0.252 S 
ATOM     48  O2S IDU d1218      23.917 -14.173  -7.360  0.00  0.00    -0.572 OA
ATOM     49  H   IDU d1218      26.793  -9.025  -7.002  0.00  0.00     0.041 H 
ATOM     50  H   IDU d1218      27.069 -10.426  -5.964  0.00  0.00     0.041 H 
ATOM     51  H   IDU d1218      23.920 -11.134  -3.835  0.00  0.00     0.133 H 
ATOM     52  H   IDU d1218      25.241  -8.122  -5.365  0.00  0.00     0.100 H 
ATOM     53  H   IDU d1218      23.272 -11.075  -6.388  0.00  0.00     0.097 H 
ATOM     54  H   IDU d1218      25.600 -11.202  -7.528  0.00  0.00     0.087 H 
ATOM     55  H   IDU d1218      24.067  -8.801  -7.183  0.00  0.00     0.210 HD
ENDROOT
TORSDOF 16
ENDMDL
MODEL 59
REMARK VINA RESULT:      -5.4      3.147      6.749
REMARK  0 active torsions:
REMARK  status: ('A' for Active; 'I' for Inactive)
REMARK       I    between atoms: C2_1  and  N_18 
REMARK       I    between atoms: O4_5  and  C1_17 
REMARK       I    between atoms: O4_5  and  C4_30 
REMARK       I    between atoms: O6_6  and  C6_7 
REMARK       I    between atoms: O6_6  and  S2_22 
REMARK       I    between atoms: C6_7  and  C5_28 
REMARK       I    between atoms: C3_8  and  O3_10 
REMARK       I    between atoms: C1_9  and  O1_16 
REMARK       I    between atoms: S1_12  and  N_18 
REMARK       I    between atoms: S1_12  and  O1S_13 
REMARK       I    between atoms: S1_12  and  O2S_15 
REMARK       I    between atoms: S1_12  and  O3S_26 
REMARK       I    between atoms: O2_24  and  C2_31 
REMARK       I    between atoms: O2_24  and  S_34 
REMARK       I    between atoms: C6_25  and  C5_27 
REMARK       I    between atoms: C3_32  and  O3_33 
ROOT
ATOM      1  C2  SGN d1219      24.905  -7.682  -5.152  0.00  0.00     0.081 C 
ATOM      2  O4  SGN d1219      22.574 -10.640  -5.189  0.00  0.00    -0.348 OA
ATOM      3  O6  SGN d1219      20.891  -7.654  -2.798  0.00  0.00    -0.254 OA
ATOM      4  C6  SGN d1219      20.905  -8.590  -3.855  0.00  0.00     0.067 C 
ATOM      5  C3  SGN d1219      24.444  -9.133  -5.342  0.00  0.00     0.083 C 
ATOM      6  C1  SGN d1219      23.755  -6.674  -5.285  0.00  0.00     0.147 C 
ATOM      7  O3  SGN d1219      25.444 -10.013  -4.870  0.00  0.00    -0.391 OA
ATOM      8  O4S SGN d1219      20.936  -9.086  -0.811  0.00  0.00    -0.572 OA
ATOM      9  S1  SGN d1219      27.324  -6.666  -5.606  0.00  0.00     0.156 S 
ATOM     10  O1S SGN d1219      28.010  -6.203  -6.810  0.00  0.00    -0.296 OA
ATOM     11  O5  SGN d1219      22.667  -7.064  -4.462  0.00  0.00    -0.350 OA
ATOM     12  O2S SGN d1219      28.091  -7.689  -4.896  0.00  0.00    -0.296 OA
ATOM     13  O1  SGN d1219      23.331  -6.549  -6.628  0.00  0.00    -0.369 OA
ATOM     14  N   SGN d1219      25.965  -7.364  -6.094  0.00  0.00    -0.210 NA
ATOM     15  O5S SGN d1219      18.837  -8.442  -1.786  0.00  0.00    -0.572 OA
ATOM     16  S2  SGN d1219      20.187  -8.007  -1.450  0.00  0.00     0.251 S 
ATOM     17  O3S SGN d1219      26.963  -5.551  -4.730  0.00  0.00    -0.296 OA
ATOM     18  C5  SGN d1219      22.090  -8.323  -4.776  0.00  0.00     0.091 C 
ATOM     19  O6S SGN d1219      20.204  -6.792  -0.645  0.00  0.00    -0.572 OA
ATOM     20  C4  SGN d1219      23.117  -9.452  -4.642  0.00  0.00     0.095 C 
ATOM     21  H   SGN d1219      25.277  -7.600  -4.152  0.00  0.00     0.076 H 
ATOM     22  H   SGN d1219      19.996  -8.506  -4.415  0.00  0.00     0.080 H 
ATOM     23  H   SGN d1219      20.992  -9.576  -3.449  0.00  0.00     0.080 H 
ATOM     24  H   SGN d1219      24.281  -9.266  -6.391  0.00  0.00     0.089 H 
ATOM     25  H   SGN d1219      24.114  -5.718  -4.964  0.00  0.00     0.131 H 
ATOM     26  H   SGN d1219      25.574  -9.874  -3.919  0.00  0.00     0.210 HD
ATOM     27  H   SGN d1219      28.234  -6.965  -7.368  0.00  0.00     0.231 HD
ATOM     28  H   SGN d1219      28.312  -8.410  -5.507  0.00  0.00     0.231 HD
ATOM     29  H   SGN d1219      23.000  -7.404  -6.944  0.00  0.00     0.212 HD
ATOM     30  H   SGN d1219      25.556  -6.743  -6.792  0.00  0.00     0.140 HD
ATOM     31  H   SGN d1219      26.457  -4.894  -5.234  0.00  0.00     0.231 HD
ATOM     32  H   SGN d1219      21.758  -8.295  -5.793  0.00  0.00     0.090 H 
ATOM     33  H   SGN d1219      23.328  -9.572  -3.601  0.00  0.00     0.091 H 
ATOM     34  C4  IDU d1218      23.121 -14.402  -5.535  0.00  0.00    -0.005 C 
ATOM     35  O61 IDU d1218      25.820 -13.857  -7.331  0.00  0.00    -0.646 OA
ATOM     36  O5  IDU d1218      24.162 -12.395  -4.692  0.00  0.00    -0.343 OA
ATOM     37  C1  IDU d1218      22.929 -11.747  -4.336  0.00  0.00     0.161 C 
ATOM     38  O62 IDU d1218      26.179 -14.180  -5.161  0.00  0.00    -0.646 OA
ATOM     39  O1S IDU d1218      21.044 -12.688  -0.437  0.00  0.00    -0.572 OA
ATOM     40  O3S IDU d1218      20.006 -11.410  -2.193  0.00  0.00    -0.572 OA
ATOM     41  O2  IDU d1218      21.718 -13.191  -2.845  0.00  0.00    -0.244 OA
ATOM     42  C6  IDU d1218      25.454 -13.802  -6.127  0.00  0.00     0.203 C 
ATOM     43  C5  IDU d1218      24.088 -13.256  -5.830  0.00  0.00     0.127 C 
ATOM     44  C2  IDU d1218      21.738 -12.704  -4.185  0.00  0.00     0.132 C 
ATOM     45  C3  IDU d1218      21.727 -13.891  -5.159  0.00  0.00     0.069 C 
ATOM     46  O3  IDU d1218      21.012 -13.534  -6.348  0.00  0.00    -0.393 OA
ATOM     47  S   IDU d1218      20.522 -12.745  -1.822  0.00  0.00     0.252 S 
ATOM     48  O2S IDU d1218      19.429 -13.738  -1.909  0.00  0.00    -0.572 OA
ATOM     49  H   IDU d1218      23.040 -15.019  -6.406  0.00  0.00     0.041 H 
ATOM     50  H   IDU d1218      23.507 -14.956  -4.704  0.00  0.00     0.041 H 
ATOM     51  H   IDU d1218      23.145 -11.346  -3.368  0.00  0.00     0.133 H 
ATOM     52  H   IDU d1218      23.734 -12.707  -6.678  0.00  0.00     0.100 H 
ATOM     53  H   IDU d1218      20.864 -12.135  -4.425  0.00  0.00     0.097 H 
ATOM     54  H   IDU d1218      21.241 -14.694  -4.646  0.00  0.00     0.087 H 
ATOM     55  H   IDU d1218      21.471 -12.806  -6.795  0.00  0.00     0.210 HD
ENDROOT
TORSDOF 16
ENDMDL
MODEL 60
REMARK VINA RESULT:      -5.4      2.872      6.630
REMARK  0 active torsions:
REMARK  status: ('A' for Active; 'I' for Inactive)
REMARK       I    between atoms: C2_1  and  N_18 
REMARK       I    between atoms: O4_5  and  C1_17 
REMARK       I    between atoms: O4_5  and  C4_30 
REMARK       I    between atoms: O6_6  and  C6_7 
REMARK       I    between atoms: O6_6  and  S2_22 
REMARK       I    between atoms: C6_7  and  C5_28 
REMARK       I    between atoms: C3_8  and  O3_10 
REMARK       I    between atoms: C1_9  and  O1_16 
REMARK       I    between atoms: S1_12  and  N_18 
REMARK       I    between atoms: S1_12  and  O1S_13 
REMARK       I    between atoms: S1_12  and  O2S_15 
REMARK       I    between atoms: S1_12  and  O3S_26 
REMARK       I    between atoms: O2_24  and  C2_31 
REMARK       I    between atoms: O2_24  and  S_34 
REMARK       I    between atoms: C6_25  and  C5_27 
REMARK       I    between atoms: C3_32  and  O3_33 
ROOT
ATOM      1  C2  SGN d1219      23.585 -11.825  -4.789  0.00  0.00     0.081 C 
ATOM      2  O4  SGN d1219      20.671 -12.698  -2.568  0.00  0.00    -0.348 OA
ATOM      3  O6  SGN d1219      21.874 -16.148  -4.596  0.00  0.00    -0.254 OA
ATOM      4  C6  SGN d1219      21.562 -15.379  -3.453  0.00  0.00     0.067 C 
ATOM      5  C3  SGN d1219      22.343 -11.609  -3.915  0.00  0.00     0.083 C 
ATOM      6  C1  SGN d1219      24.344 -13.111  -4.433  0.00  0.00     0.147 C 
ATOM      7  O3  SGN d1219      21.513 -10.630  -4.505  0.00  0.00    -0.391 OA
ATOM      8  O4S SGN d1219      19.702 -16.369  -5.705  0.00  0.00    -0.572 OA
ATOM      9  S1  SGN d1219      25.058  -9.975  -6.014  0.00  0.00     0.156 S 
ATOM     10  O1S SGN d1219      26.134  -9.092  -5.572  0.00  0.00    -0.296 OA
ATOM     11  O5  SGN d1219      23.448 -14.210  -4.393  0.00  0.00    -0.350 OA
ATOM     12  O2S SGN d1219      23.955  -9.234  -6.625  0.00  0.00    -0.296 OA
ATOM     13  O1  SGN d1219      25.019 -12.986  -3.196  0.00  0.00    -0.369 OA
ATOM     14  N   SGN d1219      24.470 -10.676  -4.697  0.00  0.00    -0.210 NA
ATOM     15  O5S SGN d1219      20.393 -17.992  -4.075  0.00  0.00    -0.572 OA
ATOM     16  S2  SGN d1219      20.823 -17.143  -5.179  0.00  0.00     0.251 S 
ATOM     17  O3S SGN d1219      25.557 -11.032  -6.896  0.00  0.00    -0.296 OA
ATOM     18  C5  SGN d1219      22.413 -14.113  -3.425  0.00  0.00     0.091 C 
ATOM     19  O6S SGN d1219      21.501 -17.889  -6.233  0.00  0.00    -0.572 OA
ATOM     20  C4  SGN d1219      21.529 -12.888  -3.678  0.00  0.00     0.095 C 
ATOM     21  H   SGN d1219      23.243 -11.934  -5.797  0.00  0.00     0.076 H 
ATOM     22  H   SGN d1219      21.757 -15.956  -2.573  0.00  0.00     0.080 H 
ATOM     23  H   SGN d1219      20.528 -15.105  -3.486  0.00  0.00     0.080 H 
ATOM     24  H   SGN d1219      22.696 -11.286  -2.957  0.00  0.00     0.089 H 
ATOM     25  H   SGN d1219      25.078 -13.283  -5.192  0.00  0.00     0.131 H 
ATOM     26  H   SGN d1219      21.205 -10.945  -5.369  0.00  0.00     0.210 HD
ATOM     27  H   SGN d1219      25.770  -8.406  -4.991  0.00  0.00     0.231 HD
ATOM     28  H   SGN d1219      23.651  -8.544  -6.013  0.00  0.00     0.231 HD
ATOM     29  H   SGN d1219      24.374 -12.829  -2.489  0.00  0.00     0.212 HD
ATOM     30  H   SGN d1219      25.275 -10.973  -4.144  0.00  0.00     0.140 HD
ATOM     31  H   SGN d1219      26.285 -11.501  -6.459  0.00  0.00     0.231 HD
ATOM     32  H   SGN d1219      22.864 -14.004  -2.461  0.00  0.00     0.090 H 
ATOM     33  H   SGN d1219      20.968 -13.076  -4.568  0.00  0.00     0.091 H 
ATOM     34  C4  IDU d1218      17.654 -10.726  -1.310  0.00  0.00    -0.005 C 
ATOM     35  O61 IDU d1218      19.394  -7.941  -1.462  0.00  0.00    -0.646 OA
ATOM     36  O5  IDU d1218      19.161 -10.912  -3.185  0.00  0.00    -0.343 OA
ATOM     37  C1  IDU d1218      19.364 -12.329  -3.051  0.00  0.00     0.161 C 
ATOM     38  O62 IDU d1218      18.147  -8.374  -3.250  0.00  0.00    -0.646 OA
ATOM     39  O1S IDU d1218      16.416 -15.110  -4.845  0.00  0.00    -0.572 OA
ATOM     40  O3S IDU d1218      18.191 -15.762  -3.355  0.00  0.00    -0.572 OA
ATOM     41  O2  IDU d1218      17.219 -13.411  -3.121  0.00  0.00    -0.244 OA
ATOM     42  C6  IDU d1218      18.817  -8.744  -2.243  0.00  0.00     0.203 C 
ATOM     43  C5  IDU d1218      18.939 -10.213  -1.959  0.00  0.00     0.127 C 
ATOM     44  C2  IDU d1218      18.276 -13.044  -2.237  0.00  0.00     0.132 C 
ATOM     45  C3  IDU d1218      17.703 -12.236  -1.063  0.00  0.00     0.069 C 
ATOM     46  O3  IDU d1218      18.462 -12.503   0.123  0.00  0.00    -0.393 OA
ATOM     47  S   IDU d1218      16.938 -14.985  -3.464  0.00  0.00     0.252 S 
ATOM     48  O2S IDU d1218      15.946 -15.510  -2.500  0.00  0.00    -0.572 OA
ATOM     49  H   IDU d1218      17.516 -10.227  -0.374  0.00  0.00     0.041 H 
ATOM     50  H   IDU d1218      16.841 -10.525  -1.978  0.00  0.00     0.041 H 
ATOM     51  H   IDU d1218      19.290 -12.674  -4.061  0.00  0.00     0.133 H 
ATOM     52  H   IDU d1218      19.759 -10.378  -1.293  0.00  0.00     0.100 H 
ATOM     53  H   IDU d1218      18.747 -13.895  -1.790  0.00  0.00     0.097 H 
ATOM     54  H   IDU d1218      16.689 -12.556  -0.948  0.00  0.00     0.087 H 
ATOM     55  H   IDU d1218      19.376 -12.205  -0.005  0.00  0.00     0.210 HD
ENDROOT
TORSDOF 16
ENDMDL
MODEL 61
REMARK VINA RESULT:      -5.4      3.237      8.904
REMARK  0 active torsions:
REMARK  status: ('A' for Active; 'I' for Inactive)
REMARK       I    between atoms: C2_1  and  N_18 
REMARK       I    between atoms: O4_5  and  C1_17 
REMARK       I    between atoms: O4_5  and  C4_30 
REMARK       I    between atoms: O6_6  and  C6_7 
REMARK       I    between atoms: O6_6  and  S2_22 
REMARK       I    between atoms: C6_7  and  C5_28 
REMARK       I    between atoms: C3_8  and  O3_10 
REMARK       I    between atoms: C1_9  and  O1_16 
REMARK       I    between atoms: S1_12  and  N_18 
REMARK       I    between atoms: S1_12  and  O1S_13 
REMARK       I    between atoms: S1_12  and  O2S_15 
REMARK       I    between atoms: S1_12  and  O3S_26 
REMARK       I    between atoms: O2_24  and  C2_31 
REMARK       I    between atoms: O2_24  and  S_34 
REMARK       I    between atoms: C6_25  and  C5_27 
REMARK       I    between atoms: C3_32  and  O3_33 
ROOT
ATOM      1  C2  SGN d1219      21.549  -9.302  -3.093  0.00  0.00     0.081 C 
ATOM      2  O4  SGN d1219      23.057 -10.170  -6.433  0.00  0.00    -0.348 OA
ATOM      3  O6  SGN d1219      20.844 -13.449  -5.084  0.00  0.00    -0.254 OA
ATOM      4  C6  SGN d1219      21.212 -12.447  -6.009  0.00  0.00     0.067 C 
ATOM      5  C3  SGN d1219      22.495  -9.212  -4.298  0.00  0.00     0.083 C 
ATOM      6  C1  SGN d1219      20.202  -9.949  -3.444  0.00  0.00     0.147 C 
ATOM      7  O3  SGN d1219      23.808  -8.944  -3.851  0.00  0.00    -0.391 OA
ATOM      8  O4S SGN d1219      22.827 -14.886  -5.031  0.00  0.00    -0.572 OA
ATOM      9  S1  SGN d1219      21.496  -7.732  -0.942  0.00  0.00     0.156 S 
ATOM     10  O1S SGN d1219      20.915  -6.420  -0.670  0.00  0.00    -0.296 OA
ATOM     11  O5  SGN d1219      20.414 -11.175  -4.125  0.00  0.00    -0.350 OA
ATOM     12  O2S SGN d1219      22.928  -7.771  -0.649  0.00  0.00    -0.296 OA
ATOM     13  O1  SGN d1219      19.404  -9.085  -4.229  0.00  0.00    -0.369 OA
ATOM     14  N   SGN d1219      21.341  -7.983  -2.518  0.00  0.00    -0.210 NA
ATOM     15  O5S SGN d1219      21.074 -15.309  -6.617  0.00  0.00    -0.572 OA
ATOM     16  S2  SGN d1219      21.384 -14.904  -5.251  0.00  0.00     0.251 S 
ATOM     17  O3S SGN d1219      20.770  -8.797  -0.248  0.00  0.00    -0.296 OA
ATOM     18  C5  SGN d1219      21.104 -11.070  -5.362  0.00  0.00     0.091 C 
ATOM     19  O6S SGN d1219      20.698 -15.715  -4.253  0.00  0.00    -0.572 OA
ATOM     20  C4  SGN d1219      22.503 -10.476  -5.168  0.00  0.00     0.095 C 
ATOM     21  H   SGN d1219      22.022  -9.937  -2.372  0.00  0.00     0.076 H 
ATOM     22  H   SGN d1219      20.561 -12.491  -6.857  0.00  0.00     0.080 H 
ATOM     23  H   SGN d1219      22.224 -12.609  -6.318  0.00  0.00     0.080 H 
ATOM     24  H   SGN d1219      22.129  -8.416  -4.914  0.00  0.00     0.089 H 
ATOM     25  H   SGN d1219      19.679 -10.140  -2.530  0.00  0.00     0.131 H 
ATOM     26  H   SGN d1219      24.117  -9.678  -3.297  0.00  0.00     0.210 HD
ATOM     27  H   SGN d1219      21.418  -5.739  -1.144  0.00  0.00     0.231 HD
ATOM     28  H   SGN d1219      23.375  -7.053  -1.125  0.00  0.00     0.231 HD
ATOM     29  H   SGN d1219      19.857  -8.896  -5.065  0.00  0.00     0.212 HD
ATOM     30  H   SGN d1219      20.389  -7.708  -2.763  0.00  0.00     0.140 HD
ATOM     31  H   SGN d1219      19.826  -8.740  -0.466  0.00  0.00     0.231 HD
ATOM     32  H   SGN d1219      20.551 -10.414  -6.000  0.00  0.00     0.090 H 
ATOM     33  H   SGN d1219      23.093 -11.208  -4.658  0.00  0.00     0.091 H 
ATOM     34  C4  IDU d1218      26.259  -9.105  -8.218  0.00  0.00    -0.005 C 
ATOM     35  O61 IDU d1218      26.182  -6.212  -6.658  0.00  0.00    -0.646 OA
ATOM     36  O5  IDU d1218      25.340  -9.489  -6.020  0.00  0.00    -0.343 OA
ATOM     37  C1  IDU d1218      24.450 -10.540  -6.431  0.00  0.00     0.161 C 
ATOM     38  O62 IDU d1218      27.442  -7.771  -5.697  0.00  0.00    -0.646 OA
ATOM     39  O1S IDU d1218      26.003 -14.678  -6.761  0.00  0.00    -0.572 OA
ATOM     40  O3S IDU d1218      23.842 -13.955  -7.537  0.00  0.00    -0.572 OA
ATOM     41  O2  IDU d1218      25.747 -12.253  -7.509  0.00  0.00    -0.244 OA
ATOM     42  C6  IDU d1218      26.462  -7.416  -6.413  0.00  0.00     0.203 C 
ATOM     43  C5  IDU d1218      25.579  -8.479  -7.002  0.00  0.00     0.127 C 
ATOM     44  C2  IDU d1218      24.827 -11.195  -7.768  0.00  0.00     0.132 C 
ATOM     45  C3  IDU d1218      25.426 -10.243  -8.815  0.00  0.00     0.069 C 
ATOM     46  O3  IDU d1218      24.379  -9.696  -9.625  0.00  0.00    -0.393 OA
ATOM     47  S   IDU d1218      25.300 -13.810  -7.734  0.00  0.00     0.252 S 
ATOM     48  O2S IDU d1218      25.653 -14.209  -9.114  0.00  0.00    -0.572 OA
ATOM     49  H   IDU d1218      26.398  -8.351  -8.964  0.00  0.00     0.041 H 
ATOM     50  H   IDU d1218      27.197  -9.511  -7.902  0.00  0.00     0.041 H 
ATOM     51  H   IDU d1218      24.582 -11.274  -5.664  0.00  0.00     0.133 H 
ATOM     52  H   IDU d1218      24.651  -8.040  -7.305  0.00  0.00     0.100 H 
ATOM     53  H   IDU d1218      23.913 -11.547  -8.198  0.00  0.00     0.097 H 
ATOM     54  H   IDU d1218      26.098 -10.832  -9.403  0.00  0.00     0.087 H 
ATOM     55  H   IDU d1218      23.784  -9.168  -9.071  0.00  0.00     0.210 HD
ENDROOT
TORSDOF 16
ENDMDL
MODEL 62
REMARK VINA RESULT:      -5.4      2.911      7.419
REMARK  0 active torsions:
REMARK  status: ('A' for Active; 'I' for Inactive)
REMARK       I    between atoms: C2_1  and  N_18 
REMARK       I    between atoms: O4_5  and  C1_17 
REMARK       I    between atoms: O4_5  and  C4_30 
REMARK       I    between atoms: O6_6  and  C6_7 
REMARK       I    between atoms: O6_6  and  S2_22 
REMARK       I    between atoms: C6_7  and  C5_28 
REMARK       I    between atoms: C3_8  and  O3_10 
REMARK       I    between atoms: C1_9  and  O1_16 
REMARK       I    between atoms: S1_12  and  N_18 
REMARK       I    between atoms: S1_12  and  O1S_13 
REMARK       I    between atoms: S1_12  and  O2S_15 
REMARK       I    between atoms: S1_12  and  O3S_26 
REMARK       I    between atoms: O2_24  and  C2_31 
REMARK       I    between atoms: O2_24  and  S_34 
REMARK       I    between atoms: C6_25  and  C5_27 
REMARK       I    between atoms: C3_32  and  O3_33 
ROOT
ATOM      1  C2  SGN d1219      18.211 -12.753  -0.794  0.00  0.00     0.081 C 
ATOM      2  O4  SGN d1219      20.759 -11.785  -3.394  0.00  0.00    -0.348 OA
ATOM      3  O6  SGN d1219      21.558 -15.692  -2.144  0.00  0.00    -0.254 OA
ATOM      4  C6  SGN d1219      21.293 -14.681  -3.095  0.00  0.00     0.067 C 
ATOM      5  C3  SGN d1219      19.056 -11.841  -1.694  0.00  0.00     0.083 C 
ATOM      6  C1  SGN d1219      18.034 -14.161  -1.379  0.00  0.00     0.147 C 
ATOM      7  O3  SGN d1219      19.473 -10.707  -0.961  0.00  0.00    -0.391 OA
ATOM      8  O4S SGN d1219      23.773 -15.072  -1.304  0.00  0.00    -0.572 OA
ATOM      9  S1  SGN d1219      16.333 -12.035   0.951  0.00  0.00     0.156 S 
ATOM     10  O1S SGN d1219      14.920 -11.687   0.821  0.00  0.00    -0.296 OA
ATOM     11  O5  SGN d1219      19.293 -14.697  -1.752  0.00  0.00    -0.350 OA
ATOM     12  O2S SGN d1219      17.098 -10.985   1.625  0.00  0.00    -0.296 OA
ATOM     13  O1  SGN d1219      17.158 -14.152  -2.490  0.00  0.00    -0.369 OA
ATOM     14  N   SGN d1219      16.916 -12.146  -0.538  0.00  0.00    -0.210 NA
ATOM     15  O5S SGN d1219      23.569 -16.522  -3.207  0.00  0.00    -0.572 OA
ATOM     16  S2  SGN d1219      23.022 -16.172  -1.902  0.00  0.00     0.251 S 
ATOM     17  O3S SGN d1219      16.510 -13.337   1.597  0.00  0.00    -0.296 OA
ATOM     18  C5  SGN d1219      19.989 -13.968  -2.753  0.00  0.00     0.091 C 
ATOM     19  O6S SGN d1219      22.938 -17.316  -1.001  0.00  0.00    -0.572 OA
ATOM     20  C4  SGN d1219      20.285 -12.537  -2.293  0.00  0.00     0.095 C 
ATOM     21  H   SGN d1219      18.744 -12.863   0.127  0.00  0.00     0.076 H 
ATOM     22  H   SGN d1219      21.210 -15.122  -4.067  0.00  0.00     0.080 H 
ATOM     23  H   SGN d1219      22.093 -13.971  -3.085  0.00  0.00     0.080 H 
ATOM     24  H   SGN d1219      18.430 -11.558  -2.515  0.00  0.00     0.089 H 
ATOM     25  H   SGN d1219      17.597 -14.781  -0.624  0.00  0.00     0.131 H 
ATOM     26  H   SGN d1219      20.037 -10.988  -0.224  0.00  0.00     0.210 HD
ATOM     27  H   SGN d1219      14.839 -10.822   0.390  0.00  0.00     0.231 HD
ATOM     28  H   SGN d1219      16.956 -10.140   1.170  0.00  0.00     0.231 HD
ATOM     29  H   SGN d1219      17.532 -13.595  -3.192  0.00  0.00     0.212 HD
ATOM     30  H   SGN d1219      16.234 -12.681  -1.077  0.00  0.00     0.140 HD
ATOM     31  H   SGN d1219      15.990 -14.005   1.125  0.00  0.00     0.231 HD
ATOM     32  H   SGN d1219      19.368 -13.916  -3.622  0.00  0.00     0.090 H 
ATOM     33  H   SGN d1219      21.024 -12.595  -1.522  0.00  0.00     0.091 H 
ATOM     34  C4  IDU d1218      22.342  -8.459  -4.400  0.00  0.00    -0.005 C 
ATOM     35  O61 IDU d1218      19.627  -6.866  -3.450  0.00  0.00    -0.646 OA
ATOM     36  O5  IDU d1218      21.431  -9.640  -2.502  0.00  0.00    -0.343 OA
ATOM     37  C1  IDU d1218      21.841 -10.943  -2.949  0.00  0.00     0.161 C 
ATOM     38  O62 IDU d1218      21.241  -6.974  -1.925  0.00  0.00    -0.646 OA
ATOM     39  O1S IDU d1218      25.974 -12.310  -2.114  0.00  0.00    -0.572 OA
ATOM     40  O3S IDU d1218      24.418 -13.441  -3.562  0.00  0.00    -0.572 OA
ATOM     41  O2  IDU d1218      24.216 -10.906  -3.316  0.00  0.00    -0.244 OA
ATOM     42  C6  IDU d1218      20.626  -7.432  -2.932  0.00  0.00     0.203 C 
ATOM     43  C5  IDU d1218      21.103  -8.718  -3.543  0.00  0.00     0.127 C 
ATOM     44  C2  IDU d1218      22.963 -10.923  -3.996  0.00  0.00     0.132 C 
ATOM     45  C3  IDU d1218      22.907  -9.754  -4.991  0.00  0.00     0.069 C 
ATOM     46  O3  IDU d1218      22.136 -10.132  -6.138  0.00  0.00    -0.393 OA
ATOM     47  S   IDU d1218      25.208 -12.205  -3.378  0.00  0.00     0.252 S 
ATOM     48  O2S IDU d1218      26.136 -12.038  -4.518  0.00  0.00    -0.572 OA
ATOM     49  H   IDU d1218      22.077  -7.800  -5.200  0.00  0.00     0.041 H 
ATOM     50  H   IDU d1218      23.093  -8.024  -3.774  0.00  0.00     0.041 H 
ATOM     51  H   IDU d1218      22.240 -11.383  -2.058  0.00  0.00     0.133 H 
ATOM     52  H   IDU d1218      20.328  -9.126  -4.158  0.00  0.00     0.100 H 
ATOM     53  H   IDU d1218      22.835 -11.804  -4.591  0.00  0.00     0.097 H 
ATOM     54  H   IDU d1218      23.920  -9.544  -5.262  0.00  0.00     0.087 H 
ATOM     55  H   IDU d1218      21.224 -10.318  -5.868  0.00  0.00     0.210 HD
ENDROOT
TORSDOF 16
ENDMDL
MODEL 63
REMARK VINA RESULT:      -5.3      4.143      8.847
REMARK  0 active torsions:
REMARK  status: ('A' for Active; 'I' for Inactive)
REMARK       I    between atoms: C2_1  and  N_18 
REMARK       I    between atoms: O4_5  and  C1_17 
REMARK       I    between atoms: O4_5  and  C4_30 
REMARK       I    between atoms: O6_6  and  C6_7 
REMARK       I    between atoms: O6_6  and  S2_22 
REMARK       I    between atoms: C6_7  and  C5_28 
REMARK       I    between atoms: C3_8  and  O3_10 
REMARK       I    between atoms: C1_9  and  O1_16 
REMARK       I    between atoms: S1_12  and  N_18 
REMARK       I    between atoms: S1_12  and  O1S_13 
REMARK       I    between atoms: S1_12  and  O2S_15 
REMARK       I    between atoms: S1_12  and  O3S_26 
REMARK       I    between atoms: O2_24  and  C2_31 
REMARK       I    between atoms: O2_24  and  S_34 
REMARK       I    between atoms: C6_25  and  C5_27 
REMARK       I    between atoms: C3_32  and  O3_33 
ROOT
ATOM      1  C2  SGN d1219      21.898 -11.454  -4.793  0.00  0.00     0.081 C 
ATOM      2  O4  SGN d1219      24.047  -9.762  -7.382  0.00  0.00    -0.348 OA
ATOM      3  O6  SGN d1219      24.557 -13.895  -7.730  0.00  0.00    -0.254 OA
ATOM      4  C6  SGN d1219      24.258 -12.598  -8.203  0.00  0.00     0.067 C 
ATOM      5  C3  SGN d1219      22.678 -10.328  -5.485  0.00  0.00     0.083 C 
ATOM      6  C1  SGN d1219      21.444 -12.547  -5.770  0.00  0.00     0.147 C 
ATOM      7  O3  SGN d1219      23.357  -9.557  -4.515  0.00  0.00    -0.391 OA
ATOM      8  O4S SGN d1219      26.947 -13.740  -7.212  0.00  0.00    -0.572 OA
ATOM      9  S1  SGN d1219      20.462 -11.305  -2.555  0.00  0.00     0.156 S 
ATOM     10  O1S SGN d1219      19.104 -10.856  -2.260  0.00  0.00    -0.296 OA
ATOM     11  O5  SGN d1219      22.541 -12.983  -6.558  0.00  0.00    -0.350 OA
ATOM     12  O2S SGN d1219      21.460 -10.610  -1.741  0.00  0.00    -0.296 OA
ATOM     13  O1  SGN d1219      20.395 -12.092  -6.602  0.00  0.00    -0.369 OA
ATOM     14  N   SGN d1219      20.754 -10.908  -4.081  0.00  0.00    -0.210 NA
ATOM     15  O5S SGN d1219      26.229 -14.400  -9.408  0.00  0.00    -0.572 OA
ATOM     16  S2  SGN d1219      25.970 -14.511  -7.977  0.00  0.00     0.251 S 
ATOM     17  O3S SGN d1219      20.586 -12.759  -2.442  0.00  0.00    -0.296 OA
ATOM     18  C5  SGN d1219      23.135 -11.984  -7.374  0.00  0.00     0.091 C 
ATOM     19  O6S SGN d1219      25.902 -15.894  -7.522  0.00  0.00    -0.572 OA
ATOM     20  C4  SGN d1219      23.685 -10.831  -6.528  0.00  0.00     0.095 C 
ATOM     21  H   SGN d1219      22.567 -11.916  -4.097  0.00  0.00     0.076 H 
ATOM     22  H   SGN d1219      23.951 -12.657  -9.226  0.00  0.00     0.080 H 
ATOM     23  H   SGN d1219      25.131 -11.984  -8.120  0.00  0.00     0.080 H 
ATOM     24  H   SGN d1219      21.958  -9.736  -6.011  0.00  0.00     0.089 H 
ATOM     25  H   SGN d1219      21.074 -13.371  -5.196  0.00  0.00     0.131 H 
ATOM     26  H   SGN d1219      24.003 -10.114  -4.053  0.00  0.00     0.210 HD
ATOM     27  H   SGN d1219      19.057  -9.891  -2.345  0.00  0.00     0.231 HD
ATOM     28  H   SGN d1219      21.347  -9.651  -1.841  0.00  0.00     0.231 HD
ATOM     29  H   SGN d1219      20.705 -11.343  -7.135  0.00  0.00     0.212 HD
ATOM     30  H   SGN d1219      19.926 -11.176  -4.613  0.00  0.00     0.140 HD
ATOM     31  H   SGN d1219      19.911 -13.185  -2.993  0.00  0.00     0.231 HD
ATOM     32  H   SGN d1219      22.382 -11.590  -8.023  0.00  0.00     0.090 H 
ATOM     33  H   SGN d1219      24.535 -11.201  -5.996  0.00  0.00     0.091 H 
ATOM     34  C4  IDU d1218      25.833  -6.389  -7.506  0.00  0.00    -0.005 C 
ATOM     35  O61 IDU d1218      23.551  -5.093  -5.525  0.00  0.00    -0.646 OA
ATOM     36  O5  IDU d1218      25.131  -8.119  -5.976  0.00  0.00    -0.343 OA
ATOM     37  C1  IDU d1218      25.289  -9.196  -6.914  0.00  0.00     0.161 C 
ATOM     38  O62 IDU d1218      25.382  -5.830  -4.502  0.00  0.00    -0.646 OA
ATOM     39  O1S IDU d1218      29.299 -10.998  -7.479  0.00  0.00    -0.572 OA
ATOM     40  O3S IDU d1218      27.382 -11.448  -8.865  0.00  0.00    -0.572 OA
ATOM     41  O2  IDU d1218      27.547  -9.162  -7.736  0.00  0.00    -0.244 OA
ATOM     42  C6  IDU d1218      24.546  -5.862  -5.452  0.00  0.00     0.203 C 
ATOM     43  C5  IDU d1218      24.743  -6.869  -6.548  0.00  0.00     0.127 C 
ATOM     44  C2  IDU d1218      26.202  -8.864  -8.103  0.00  0.00     0.132 C 
ATOM     45  C3  IDU d1218      26.118  -7.415  -8.606  0.00  0.00     0.069 C 
ATOM     46  O3  IDU d1218      25.116  -7.315  -9.625  0.00  0.00    -0.393 OA
ATOM     47  S   IDU d1218      28.342 -10.405  -8.441  0.00  0.00     0.252 S 
ATOM     48  O2S IDU d1218      29.067  -9.893  -9.625  0.00  0.00    -0.572 OA
ATOM     49  H   IDU d1218      25.517  -5.474  -7.960  0.00  0.00     0.041 H 
ATOM     50  H   IDU d1218      26.732  -6.249  -6.942  0.00  0.00     0.041 H 
ATOM     51  H   IDU d1218      25.780  -9.947  -6.330  0.00  0.00     0.133 H 
ATOM     52  H   IDU d1218      23.827  -6.986  -7.089  0.00  0.00     0.100 H 
ATOM     53  H   IDU d1218      25.861  -9.466  -8.920  0.00  0.00     0.097 H 
ATOM     54  H   IDU d1218      27.086  -7.179  -8.995  0.00  0.00     0.087 H 
ATOM     55  H   IDU d1218      24.249  -7.535  -9.249  0.00  0.00     0.210 HD
ENDROOT
TORSDOF 16
ENDMDL
MODEL 64
REMARK VINA RESULT:      -5.3      2.621      3.232
REMARK  0 active torsions:
REMARK  status: ('A' for Active; 'I' for Inactive)
REMARK       I    between atoms: C2_1  and  N_18 
REMARK       I    between atoms: O4_5  and  C1_17 
REMARK       I    between atoms: O4_5  and  C4_30 
REMARK       I    between atoms: O6_6  and  C6_7 
REMARK       I    between atoms: O6_6  and  S2_22 
REMARK       I    between atoms: C6_7  and  C5_28 
REMARK       I    between atoms: C3_8  and  O3_10 
REMARK       I    between atoms: C1_9  and  O1_16 
REMARK       I    between atoms: S1_12  and  N_18 
REMARK       I    between atoms: S1_12  and  O1S_13 
REMARK       I    between atoms: S1_12  and  O2S_15 
REMARK       I    between atoms: S1_12  and  O3S_26 
REMARK       I    between atoms: O2_24  and  C2_31 
REMARK       I    between atoms: O2_24  and  S_34 
REMARK       I    between atoms: C6_25  and  C5_27 
REMARK       I    between atoms: C3_32  and  O3_33 
ROOT
ATOM      1  C2  SGN d1219      22.975 -12.542  -5.634  0.00  0.00     0.081 C 
ATOM      2  O4  SGN d1219      21.760  -9.637  -3.568  0.00  0.00    -0.348 OA
ATOM      3  O6  SGN d1219      25.873  -9.207  -4.173  0.00  0.00    -0.254 OA
ATOM      4  C6  SGN d1219      24.524  -8.790  -4.209  0.00  0.00     0.067 C 
ATOM      5  C3  SGN d1219      22.050 -11.732  -4.717  0.00  0.00     0.083 C 
ATOM      6  C1  SGN d1219      23.881 -11.652  -6.497  0.00  0.00     0.147 C 
ATOM      7  O3  SGN d1219      21.511 -12.578  -3.721  0.00  0.00    -0.391 OA
ATOM      8  O4S SGN d1219      26.335  -9.325  -1.770  0.00  0.00    -0.572 OA
ATOM      9  S1  SGN d1219      22.570 -14.986  -6.612  0.00  0.00     0.156 S 
ATOM     10  O1S SGN d1219      21.812 -15.500  -7.750  0.00  0.00    -0.296 OA
ATOM     11  O5  SGN d1219      24.541 -10.695  -5.684  0.00  0.00    -0.350 OA
ATOM     12  O2S SGN d1219      22.178 -15.625  -5.356  0.00  0.00    -0.296 OA
ATOM     13  O1  SGN d1219      23.146 -11.004  -7.517  0.00  0.00    -0.369 OA
ATOM     14  N   SGN d1219      22.194 -13.433  -6.476  0.00  0.00    -0.210 NA
ATOM     15  O5S SGN d1219      26.705  -7.277  -2.970  0.00  0.00    -0.572 OA
ATOM     16  S2  SGN d1219      26.808  -8.731  -3.017  0.00  0.00     0.251 S 
ATOM     17  O3S SGN d1219      24.014 -15.076  -6.841  0.00  0.00    -0.296 OA
ATOM     18  C5  SGN d1219      23.687  -9.793  -4.995  0.00  0.00     0.091 C 
ATOM     19  O6S SGN d1219      28.149  -9.190  -3.356  0.00  0.00    -0.572 OA
ATOM     20  C4  SGN d1219      22.742 -10.537  -4.047  0.00  0.00     0.095 C 
ATOM     21  H   SGN d1219      23.617 -13.119  -5.000  0.00  0.00     0.076 H 
ATOM     22  H   SGN d1219      24.462  -7.831  -4.679  0.00  0.00     0.080 H 
ATOM     23  H   SGN d1219      24.149  -8.729  -3.208  0.00  0.00     0.080 H 
ATOM     24  H   SGN d1219      21.277 -11.332  -5.340  0.00  0.00     0.089 H 
ATOM     25  H   SGN d1219      24.611 -12.278  -6.965  0.00  0.00     0.131 H 
ATOM     26  H   SGN d1219      22.229 -12.927  -3.171  0.00  0.00     0.210 HD
ATOM     27  H   SGN d1219      20.863 -15.425  -7.566  0.00  0.00     0.231 HD
ATOM     28  H   SGN d1219      21.218 -15.546  -5.239  0.00  0.00     0.231 HD
ATOM     29  H   SGN d1219      22.476 -10.428  -7.117  0.00  0.00     0.212 HD
ATOM     30  H   SGN d1219      22.227 -13.044  -7.419  0.00  0.00     0.140 HD
ATOM     31  H   SGN d1219      24.235 -14.643  -7.680  0.00  0.00     0.231 HD
ATOM     32  H   SGN d1219      23.092  -9.276  -5.719  0.00  0.00     0.090 H 
ATOM     33  H   SGN d1219      23.333 -10.923  -3.244  0.00  0.00     0.091 H 
ATOM     34  C4  IDU d1218      18.932  -9.223  -1.038  0.00  0.00    -0.005 C 
ATOM     35  O61 IDU d1218      17.196 -11.552  -2.578  0.00  0.00    -0.646 OA
ATOM     36  O5  IDU d1218      20.496 -10.847  -1.898  0.00  0.00    -0.343 OA
ATOM     37  C1  IDU d1218      21.539  -9.895  -2.167  0.00  0.00     0.161 C 
ATOM     38  O62 IDU d1218      18.404 -12.261  -0.851  0.00  0.00    -0.646 OA
ATOM     39  O1S IDU d1218      24.251  -8.678   1.121  0.00  0.00    -0.572 OA
ATOM     40  O3S IDU d1218      24.155  -7.625  -1.042  0.00  0.00    -0.572 OA
ATOM     41  O2  IDU d1218      22.030  -8.713  -0.132  0.00  0.00    -0.244 OA
ATOM     42  C6  IDU d1218      18.190 -11.461  -1.808  0.00  0.00     0.203 C 
ATOM     43  C5  IDU d1218      19.166 -10.347  -2.047  0.00  0.00     0.127 C 
ATOM     44  C2  IDU d1218      21.394  -8.572  -1.401  0.00  0.00     0.132 C 
ATOM     45  C3  IDU d1218      19.950  -8.091  -1.197  0.00  0.00     0.069 C 
ATOM     46  O3  IDU d1218      19.563  -7.250  -2.291  0.00  0.00    -0.393 OA
ATOM     47  S   IDU d1218      23.400  -7.886   0.203  0.00  0.00     0.252 S 
ATOM     48  O2S IDU d1218      23.034  -6.599   0.836  0.00  0.00    -0.572 OA
ATOM     49  H   IDU d1218      17.949  -8.828  -1.183  0.00  0.00     0.041 H 
ATOM     50  H   IDU d1218      19.042  -9.632  -0.054  0.00  0.00     0.041 H 
ATOM     51  H   IDU d1218      22.412 -10.389  -1.794  0.00  0.00     0.133 H 
ATOM     52  H   IDU d1218      19.031  -9.964  -3.037  0.00  0.00     0.100 H 
ATOM     53  H   IDU d1218      21.858  -7.821  -2.007  0.00  0.00     0.097 H 
ATOM     54  H   IDU d1218      19.943  -7.548  -0.276  0.00  0.00     0.087 H 
ATOM     55  H   IDU d1218      19.576  -7.763  -3.114  0.00  0.00     0.210 HD
ENDROOT
TORSDOF 16
ENDMDL
MODEL 65
REMARK VINA RESULT:      -5.3      4.693      7.592
REMARK  0 active torsions:
REMARK  status: ('A' for Active; 'I' for Inactive)
REMARK       I    between atoms: C2_1  and  N_18 
REMARK       I    between atoms: O4_5  and  C1_17 
REMARK       I    between atoms: O4_5  and  C4_30 
REMARK       I    between atoms: O6_6  and  C6_7 
REMARK       I    between atoms: O6_6  and  S2_22 
REMARK       I    between atoms: C6_7  and  C5_28 
REMARK       I    between atoms: C3_8  and  O3_10 
REMARK       I    between atoms: C1_9  and  O1_16 
REMARK       I    between atoms: S1_12  and  N_18 
REMARK       I    between atoms: S1_12  and  O1S_13 
REMARK       I    between atoms: S1_12  and  O2S_15 
REMARK       I    between atoms: S1_12  and  O3S_26 
REMARK       I    between atoms: O2_24  and  C2_31 
REMARK       I    between atoms: O2_24  and  S_34 
REMARK       I    between atoms: C6_25  and  C5_27 
REMARK       I    between atoms: C3_32  and  O3_33 
ROOT
ATOM      1  C2  SGN d1219      25.998  -7.012  -6.493  0.00  0.00     0.081 C 
ATOM      2  O4  SGN d1219      24.340  -8.476  -3.445  0.00  0.00    -0.348 OA
ATOM      3  O6  SGN d1219      28.316  -9.762  -3.540  0.00  0.00    -0.254 OA
ATOM      4  C6  SGN d1219      27.179  -9.158  -2.957  0.00  0.00     0.067 C 
ATOM      5  C3  SGN d1219      24.863  -7.469  -5.567  0.00  0.00     0.083 C 
ATOM      6  C1  SGN d1219      27.288  -6.680  -5.729  0.00  0.00     0.147 C 
ATOM      7  O3  SGN d1219      23.846  -8.083  -6.332  0.00  0.00    -0.391 OA
ATOM      8  O4S SGN d1219      27.651 -12.114  -3.700  0.00  0.00    -0.572 OA
ATOM      9  S1  SGN d1219      25.787  -5.834  -8.872  0.00  0.00     0.156 S 
ATOM     10  O1S SGN d1219      25.556  -4.455  -9.294  0.00  0.00    -0.296 OA
ATOM     11  O5  SGN d1219      27.626  -7.747  -4.857  0.00  0.00    -0.350 OA
ATOM     12  O2S SGN d1219      24.809  -6.756  -9.449  0.00  0.00    -0.296 OA
ATOM     13  O1  SGN d1219      27.160  -5.475  -5.000  0.00  0.00    -0.369 OA
ATOM     14  N   SGN d1219      25.572  -5.869  -7.283  0.00  0.00    -0.210 NA
ATOM     15  O5S SGN d1219      28.747 -11.303  -1.722  0.00  0.00    -0.572 OA
ATOM     16  S2  SGN d1219      28.692 -11.232  -3.177  0.00  0.00     0.251 S 
ATOM     17  O3S SGN d1219      27.161  -6.258  -9.145  0.00  0.00    -0.296 OA
ATOM     18  C5  SGN d1219      26.666  -8.035  -3.851  0.00  0.00     0.091 C 
ATOM     19  O6S SGN d1219      29.982 -11.494  -3.804  0.00  0.00    -0.572 OA
ATOM     20  C4  SGN d1219      25.320  -8.433  -4.464  0.00  0.00     0.095 C 
ATOM     21  H   SGN d1219      26.222  -7.833  -7.141  0.00  0.00     0.076 H 
ATOM     22  H   SGN d1219      27.443  -8.756  -2.000  0.00  0.00     0.080 H 
ATOM     23  H   SGN d1219      26.411  -9.893  -2.843  0.00  0.00     0.080 H 
ATOM     24  H   SGN d1219      24.497  -6.590  -5.077  0.00  0.00     0.089 H 
ATOM     25  H   SGN d1219      28.071  -6.548  -6.445  0.00  0.00     0.131 H 
ATOM     26  H   SGN d1219      24.201  -8.875  -6.765  0.00  0.00     0.210 HD
ATOM     27  H   SGN d1219      24.639  -4.206  -9.099  0.00  0.00     0.231 HD
ATOM     28  H   SGN d1219      23.913  -6.444  -9.249  0.00  0.00     0.231 HD
ATOM     29  H   SGN d1219      26.453  -5.568  -4.342  0.00  0.00     0.212 HD
ATOM     30  H   SGN d1219      26.063  -5.057  -6.907  0.00  0.00     0.140 HD
ATOM     31  H   SGN d1219      27.780  -5.625  -8.748  0.00  0.00     0.231 HD
ATOM     32  H   SGN d1219      26.516  -7.150  -3.268  0.00  0.00     0.090 H 
ATOM     33  H   SGN d1219      25.446  -9.394  -4.916  0.00  0.00     0.091 H 
ATOM     34  C4  IDU d1218      20.753  -9.526  -2.663  0.00  0.00    -0.005 C 
ATOM     35  O61 IDU d1218      19.620  -7.265  -4.764  0.00  0.00    -0.646 OA
ATOM     36  O5  IDU d1218      22.338  -9.359  -4.475  0.00  0.00    -0.343 OA
ATOM     37  C1  IDU d1218      23.495  -9.624  -3.664  0.00  0.00     0.161 C 
ATOM     38  O62 IDU d1218      19.850  -9.309  -5.608  0.00  0.00    -0.646 OA
ATOM     39  O1S IDU d1218      24.594 -13.825  -2.777  0.00  0.00    -0.572 OA
ATOM     40  O3S IDU d1218      25.586 -11.895  -1.734  0.00  0.00    -0.572 OA
ATOM     41  O2  IDU d1218      23.168 -11.724  -2.541  0.00  0.00    -0.244 OA
ATOM     42  C6  IDU d1218      20.175  -8.396  -4.794  0.00  0.00     0.203 C 
ATOM     43  C5  IDU d1218      21.278  -8.667  -3.813  0.00  0.00     0.127 C 
ATOM     44  C2  IDU d1218      23.180 -10.314  -2.329  0.00  0.00     0.132 C 
ATOM     45  C3  IDU d1218      21.860  -9.886  -1.668  0.00  0.00     0.069 C 
ATOM     46  O3  IDU d1218      22.097  -8.776  -0.792  0.00  0.00    -0.393 OA
ATOM     47  S   IDU d1218      24.335 -12.667  -1.890  0.00  0.00     0.252 S 
ATOM     48  O2S IDU d1218      23.878 -13.138  -0.564  0.00  0.00    -0.572 OA
ATOM     49  H   IDU d1218      19.988  -8.984  -2.147  0.00  0.00     0.041 H 
ATOM     50  H   IDU d1218      20.370 -10.435  -3.076  0.00  0.00     0.041 H 
ATOM     51  H   IDU d1218      24.048 -10.317  -4.262  0.00  0.00     0.133 H 
ATOM     52  H   IDU d1218      21.639  -7.738  -3.422  0.00  0.00     0.100 H 
ATOM     53  H   IDU d1218      23.947 -10.011  -1.646  0.00  0.00     0.097 H 
ATOM     54  H   IDU d1218      21.510 -10.737  -1.123  0.00  0.00     0.087 H 
ATOM     55  H   IDU d1218      22.413  -8.019  -1.308  0.00  0.00     0.210 HD
ENDROOT
TORSDOF 16
ENDMDL
MODEL 66
REMARK VINA RESULT:      -5.3      2.384      6.162
REMARK  0 active torsions:
REMARK  status: ('A' for Active; 'I' for Inactive)
REMARK       I    between atoms: C2_1  and  N_18 
REMARK       I    between atoms: O4_5  and  C1_17 
REMARK       I    between atoms: O4_5  and  C4_30 
REMARK       I    between atoms: O6_6  and  C6_7 
REMARK       I    between atoms: O6_6  and  S2_22 
REMARK       I    between atoms: C6_7  and  C5_28 
REMARK       I    between atoms: C3_8  and  O3_10 
REMARK       I    between atoms: C1_9  and  O1_16 
REMARK       I    between atoms: S1_12  and  N_18 
REMARK       I    between atoms: S1_12  and  O1S_13 
REMARK       I    between atoms: S1_12  and  O2S_15 
REMARK       I    between atoms: S1_12  and  O3S_26 
REMARK       I    between atoms: O2_24  and  C2_31 
REMARK       I    between atoms: O2_24  and  S_34 
REMARK       I    between atoms: C6_25  and  C5_27 
REMARK       I    between atoms: C3_32  and  O3_33 
ROOT
ATOM      1  C2  SGN d1219      18.772 -12.952  -0.569  0.00  0.00     0.081 C 
ATOM      2  O4  SGN d1219      22.033 -11.635  -1.915  0.00  0.00    -0.348 OA
ATOM      3  O6  SGN d1219      20.196  -8.609   0.307  0.00  0.00    -0.254 OA
ATOM      4  C6  SGN d1219      21.254  -9.478  -0.043  0.00  0.00     0.067 C 
ATOM      5  C3  SGN d1219      20.015 -12.866  -1.464  0.00  0.00     0.083 C 
ATOM      6  C1  SGN d1219      18.986 -12.302   0.805  0.00  0.00     0.147 C 
ATOM      7  O3  SGN d1219      19.657 -13.153  -2.800  0.00  0.00    -0.391 OA
ATOM      8  O4S SGN d1219      20.041  -7.139  -1.646  0.00  0.00    -0.572 OA
ATOM      9  S1  SGN d1219      16.835 -14.779  -0.639  0.00  0.00     0.156 S 
ATOM     10  O1S SGN d1219      16.708 -16.130  -0.098  0.00  0.00    -0.296 OA
ATOM     11  O5  SGN d1219      19.515 -10.995   0.649  0.00  0.00    -0.350 OA
ATOM     12  O2S SGN d1219      16.596 -14.740  -2.082  0.00  0.00    -0.296 OA
ATOM     13  O1  SGN d1219      19.841 -13.082   1.618  0.00  0.00    -0.369 OA
ATOM     14  N   SGN d1219      18.360 -14.337  -0.412  0.00  0.00    -0.210 NA
ATOM     15  O5S SGN d1219      21.491  -6.567   0.182  0.00  0.00    -0.572 OA
ATOM     16  S2  SGN d1219      20.201  -7.132  -0.194  0.00  0.00     0.251 S 
ATOM     17  O3S SGN d1219      15.985 -13.828   0.079  0.00  0.00    -0.296 OA
ATOM     18  C5  SGN d1219      20.781 -10.927   0.009  0.00  0.00     0.091 C 
ATOM     19  O6S SGN d1219      19.082  -6.469   0.466  0.00  0.00    -0.572 OA
ATOM     20  C4  SGN d1219      20.718 -11.504  -1.409  0.00  0.00     0.095 C 
ATOM     21  H   SGN d1219      17.996 -12.400  -1.058  0.00  0.00     0.076 H 
ATOM     22  H   SGN d1219      22.063  -9.346   0.644  0.00  0.00     0.080 H 
ATOM     23  H   SGN d1219      21.580  -9.252  -1.037  0.00  0.00     0.080 H 
ATOM     24  H   SGN d1219      20.711 -13.589  -1.090  0.00  0.00     0.089 H 
ATOM     25  H   SGN d1219      18.035 -12.241   1.293  0.00  0.00     0.131 H 
ATOM     26  H   SGN d1219      19.028 -12.487  -3.117  0.00  0.00     0.210 HD
ATOM     27  H   SGN d1219      17.283 -16.733  -0.595  0.00  0.00     0.231 HD
ATOM     28  H   SGN d1219      17.176 -15.381  -2.523  0.00  0.00     0.231 HD
ATOM     29  H   SGN d1219      20.712 -13.153   1.196  0.00  0.00     0.212 HD
ATOM     30  H   SGN d1219      18.600 -14.605   0.542  0.00  0.00     0.140 HD
ATOM     31  H   SGN d1219      16.171 -13.882   1.030  0.00  0.00     0.231 HD
ATOM     32  H   SGN d1219      21.475 -11.513   0.575  0.00  0.00     0.090 H 
ATOM     33  H   SGN d1219      20.144 -10.827  -2.005  0.00  0.00     0.091 H 
ATOM     34  C4  IDU d1218      24.062 -12.384  -5.061  0.00  0.00    -0.005 C 
ATOM     35  O61 IDU d1218      22.877 -15.450  -5.111  0.00  0.00    -0.646 OA
ATOM     36  O5  IDU d1218      21.799 -12.302  -4.228  0.00  0.00    -0.343 OA
ATOM     37  C1  IDU d1218      22.039 -11.232  -3.299  0.00  0.00     0.161 C 
ATOM     38  O62 IDU d1218      21.777 -13.991  -6.378  0.00  0.00    -0.646 OA
ATOM     39  O1S IDU d1218      21.907  -7.046  -4.750  0.00  0.00    -0.572 OA
ATOM     40  O3S IDU d1218      22.682  -7.723  -2.573  0.00  0.00    -0.572 OA
ATOM     41  O2  IDU d1218      22.943  -9.364  -4.513  0.00  0.00    -0.244 OA
ATOM     42  C6  IDU d1218      22.493 -14.280  -5.375  0.00  0.00     0.203 C 
ATOM     43  C5  IDU d1218      22.908 -13.176  -4.446  0.00  0.00     0.127 C 
ATOM     44  C2  IDU d1218      23.297 -10.406  -3.606  0.00  0.00     0.132 C 
ATOM     45  C3  IDU d1218      24.478 -11.203  -4.180  0.00  0.00     0.069 C 
ATOM     46  O3  IDU d1218      25.308 -11.672  -3.111  0.00  0.00    -0.393 OA
ATOM     47  S   IDU d1218      22.953  -7.803  -4.024  0.00  0.00     0.252 S 
ATOM     48  O2S IDU d1218      24.285  -7.226  -4.310  0.00  0.00    -0.572 OA
ATOM     49  H   IDU d1218      24.902 -13.036  -5.184  0.00  0.00     0.041 H 
ATOM     50  H   IDU d1218      23.734 -11.996  -6.003  0.00  0.00     0.041 H 
ATOM     51  H   IDU d1218      21.192 -10.596  -3.448  0.00  0.00     0.133 H 
ATOM     52  H   IDU d1218      23.228 -13.598  -3.516  0.00  0.00     0.100 H 
ATOM     53  H   IDU d1218      23.643 -10.027  -2.667  0.00  0.00     0.097 H 
ATOM     54  H   IDU d1218      25.013 -10.528  -4.813  0.00  0.00     0.087 H 
ATOM     55  H   IDU d1218      24.802 -12.281  -2.551  0.00  0.00     0.210 HD
ENDROOT
TORSDOF 16
ENDMDL
MODEL 67
REMARK VINA RESULT:      -5.3      3.054      7.495
REMARK  0 active torsions:
REMARK  status: ('A' for Active; 'I' for Inactive)
REMARK       I    between atoms: C2_1  and  N_18 
REMARK       I    between atoms: O4_5  and  C1_17 
REMARK       I    between atoms: O4_5  and  C4_30 
REMARK       I    between atoms: O6_6  and  C6_7 
REMARK       I    between atoms: O6_6  and  S2_22 
REMARK       I    between atoms: C6_7  and  C5_28 
REMARK       I    between atoms: C3_8  and  O3_10 
REMARK       I    between atoms: C1_9  and  O1_16 
REMARK       I    between atoms: S1_12  and  N_18 
REMARK       I    between atoms: S1_12  and  O1S_13 
REMARK       I    between atoms: S1_12  and  O2S_15 
REMARK       I    between atoms: S1_12  and  O3S_26 
REMARK       I    between atoms: O2_24  and  C2_31 
REMARK       I    between atoms: O2_24  and  S_34 
REMARK       I    between atoms: C6_25  and  C5_27 
REMARK       I    between atoms: C3_32  and  O3_33 
ROOT
ATOM      1  C2  SGN d1219      21.973  -9.887  -4.891  0.00  0.00     0.081 C 
ATOM      2  O4  SGN d1219      21.776 -13.601  -4.297  0.00  0.00    -0.348 OA
ATOM      3  O6  SGN d1219      24.668 -12.877  -7.226  0.00  0.00    -0.254 OA
ATOM      4  C6  SGN d1219      24.184 -13.404  -6.008  0.00  0.00     0.067 C 
ATOM      5  C3  SGN d1219      21.390 -11.229  -4.427  0.00  0.00     0.083 C 
ATOM      6  C1  SGN d1219      23.506  -9.900  -4.960  0.00  0.00     0.147 C 
ATOM      7  O3  SGN d1219      20.008 -11.270  -4.717  0.00  0.00    -0.391 OA
ATOM      8  O4S SGN d1219      23.434 -14.173  -8.899  0.00  0.00    -0.572 OA
ATOM      9  S1  SGN d1219      20.897  -7.465  -4.629  0.00  0.00     0.156 S 
ATOM     10  O1S SGN d1219      20.849  -6.500  -3.533  0.00  0.00    -0.296 OA
ATOM     11  O5  SGN d1219      23.952 -11.027  -5.698  0.00  0.00    -0.350 OA
ATOM     12  O2S SGN d1219      19.563  -7.800  -5.125  0.00  0.00    -0.296 OA
ATOM     13  O1  SGN d1219      24.081  -9.904  -3.667  0.00  0.00    -0.369 OA
ATOM     14  N   SGN d1219      21.516  -8.815  -4.023  0.00  0.00    -0.210 NA
ATOM     15  O5S SGN d1219      25.547 -14.967  -8.077  0.00  0.00    -0.572 OA
ATOM     16  S2  SGN d1219      24.782 -13.794  -8.484  0.00  0.00     0.251 S 
ATOM     17  O3S SGN d1219      21.780  -7.014  -5.705  0.00  0.00    -0.296 OA
ATOM     18  C5  SGN d1219      23.598 -12.288  -5.150  0.00  0.00     0.091 C 
ATOM     19  O6S SGN d1219      25.459 -13.007  -9.507  0.00  0.00    -0.572 OA
ATOM     20  C4  SGN d1219      22.077 -12.447  -5.059  0.00  0.00     0.095 C 
ATOM     21  H   SGN d1219      21.617  -9.719  -5.886  0.00  0.00     0.076 H 
ATOM     22  H   SGN d1219      24.989 -13.871  -5.479  0.00  0.00     0.080 H 
ATOM     23  H   SGN d1219      23.420 -14.124  -6.216  0.00  0.00     0.080 H 
ATOM     24  H   SGN d1219      21.564 -11.289  -3.373  0.00  0.00     0.089 H 
ATOM     25  H   SGN d1219      23.822  -9.007  -5.457  0.00  0.00     0.131 H 
ATOM     26  H   SGN d1219      19.877 -11.215  -5.676  0.00  0.00     0.210 HD
ATOM     27  H   SGN d1219      20.257  -6.829  -2.838  0.00  0.00     0.231 HD
ATOM     28  H   SGN d1219      19.007  -8.094  -4.386  0.00  0.00     0.231 HD
ATOM     29  H   SGN d1219      23.809 -10.706  -3.195  0.00  0.00     0.212 HD
ATOM     30  H   SGN d1219      22.319  -8.536  -3.458  0.00  0.00     0.140 HD
ATOM     31  H   SGN d1219      22.653  -6.802  -5.339  0.00  0.00     0.231 HD
ATOM     32  H   SGN d1219      23.998 -12.347  -4.159  0.00  0.00     0.090 H 
ATOM     33  H   SGN d1219      21.704 -12.539  -6.057  0.00  0.00     0.091 H 
ATOM     34  C4  IDU d1218      18.951 -15.937  -3.230  0.00  0.00    -0.005 C 
ATOM     35  O61 IDU d1218      17.536 -13.485  -1.560  0.00  0.00    -0.646 OA
ATOM     36  O5  IDU d1218      19.379 -13.893  -4.438  0.00  0.00    -0.343 OA
ATOM     37  C1  IDU d1218      20.674 -14.292  -4.919  0.00  0.00     0.161 C 
ATOM     38  O62 IDU d1218      16.771 -13.785  -3.625  0.00  0.00    -0.646 OA
ATOM     39  O1S IDU d1218      20.946 -16.785  -8.573  0.00  0.00    -0.572 OA
ATOM     40  O3S IDU d1218      22.788 -16.299  -7.101  0.00  0.00    -0.572 OA
ATOM     41  O2  IDU d1218      20.434 -16.366  -6.110  0.00  0.00    -0.244 OA
ATOM     42  C6  IDU d1218      17.686 -13.858  -2.754  0.00  0.00     0.203 C 
ATOM     43  C5  IDU d1218      19.021 -14.413  -3.157  0.00  0.00     0.127 C 
ATOM     44  C2  IDU d1218      20.913 -15.809  -4.889  0.00  0.00     0.132 C 
ATOM     45  C3  IDU d1218      20.273 -16.547  -3.704  0.00  0.00     0.069 C 
ATOM     46  O3  IDU d1218      21.197 -16.597  -2.610  0.00  0.00    -0.393 OA
ATOM     47  S   IDU d1218      21.480 -16.982  -7.206  0.00  0.00     0.252 S 
ATOM     48  O2S IDU d1218      21.655 -18.426  -6.934  0.00  0.00    -0.572 OA
ATOM     49  H   IDU d1218      18.722 -16.320  -2.258  0.00  0.00     0.041 H 
ATOM     50  H   IDU d1218      18.192 -16.201  -3.937  0.00  0.00     0.041 H 
ATOM     51  H   IDU d1218      20.648 -13.990  -5.945  0.00  0.00     0.133 H 
ATOM     52  H   IDU d1218      19.755 -14.129  -2.432  0.00  0.00     0.100 H 
ATOM     53  H   IDU d1218      21.968 -15.943  -4.767  0.00  0.00     0.097 H 
ATOM     54  H   IDU d1218      20.042 -17.531  -4.056  0.00  0.00     0.087 H 
ATOM     55  H   IDU d1218      21.391 -15.696  -2.309  0.00  0.00     0.210 HD
ENDROOT
TORSDOF 16
ENDMDL
MODEL 68
REMARK VINA RESULT:      -5.3      2.858      6.391
REMARK  0 active torsions:
REMARK  status: ('A' for Active; 'I' for Inactive)
REMARK       I    between atoms: C2_1  and  N_18 
REMARK       I    between atoms: O4_5  and  C1_17 
REMARK       I    between atoms: O4_5  and  C4_30 
REMARK       I    between atoms: O6_6  and  C6_7 
REMARK       I    between atoms: O6_6  and  S2_22 
REMARK       I    between atoms: C6_7  and  C5_28 
REMARK       I    between atoms: C3_8  and  O3_10 
REMARK       I    between atoms: C1_9  and  O1_16 
REMARK       I    between atoms: S1_12  and  N_18 
REMARK       I    between atoms: S1_12  and  O1S_13 
REMARK       I    between atoms: S1_12  and  O2S_15 
REMARK       I    between atoms: S1_12  and  O3S_26 
REMARK       I    between atoms: O2_24  and  C2_31 
REMARK       I    between atoms: O2_24  and  S_34 
REMARK       I    between atoms: C6_25  and  C5_27 
REMARK       I    between atoms: C3_32  and  O3_33 
ROOT
ATOM      1  C2  SGN d1219      23.937 -11.853  -5.237  0.00  0.00     0.081 C 
ATOM      2  O4  SGN d1219      21.372 -11.836  -2.479  0.00  0.00    -0.348 OA
ATOM      3  O6  SGN d1219      22.122 -15.800  -3.569  0.00  0.00    -0.254 OA
ATOM      4  C6  SGN d1219      22.018 -14.719  -2.666  0.00  0.00     0.067 C 
ATOM      5  C3  SGN d1219      22.853 -11.303  -4.299  0.00  0.00     0.083 C 
ATOM      6  C1  SGN d1219      24.695 -13.043  -4.632  0.00  0.00     0.147 C 
ATOM      7  O3  SGN d1219      21.978 -10.466  -5.027  0.00  0.00    -0.391 OA
ATOM      8  O4S SGN d1219      19.797 -16.150  -4.257  0.00  0.00    -0.572 OA
ATOM      9  S1  SGN d1219      25.269 -10.543  -7.135  0.00  0.00     0.156 S 
ATOM     10  O1S SGN d1219      26.431  -9.658  -7.119  0.00  0.00    -0.296 OA
ATOM     11  O5  SGN d1219      23.776 -14.013  -4.153  0.00  0.00    -0.350 OA
ATOM     12  O2S SGN d1219      24.112  -9.917  -7.775  0.00  0.00    -0.296 OA
ATOM     13  O1  SGN d1219      25.557 -12.630  -3.590  0.00  0.00    -0.369 OA
ATOM     14  N   SGN d1219      24.867 -10.797  -5.603  0.00  0.00    -0.210 NA
ATOM     15  O5S SGN d1219      20.673 -17.301  -2.339  0.00  0.00    -0.572 OA
ATOM     16  S2  SGN d1219      20.958 -16.832  -3.690  0.00  0.00     0.251 S 
ATOM     17  O3S SGN d1219      25.586 -11.840  -7.733  0.00  0.00    -0.296 OA
ATOM     18  C5  SGN d1219      22.908 -13.567  -3.122  0.00  0.00     0.091 C 
ATOM     19  O6S SGN d1219      21.437 -17.894  -4.566  0.00  0.00    -0.572 OA
ATOM     20  C4  SGN d1219      22.041 -12.396  -3.593  0.00  0.00     0.095 C 
ATOM     21  H   SGN d1219      23.439 -12.212  -6.113  0.00  0.00     0.076 H 
ATOM     22  H   SGN d1219      22.326 -15.040  -1.693  0.00  0.00     0.080 H 
ATOM     23  H   SGN d1219      21.002 -14.384  -2.634  0.00  0.00     0.080 H 
ATOM     24  H   SGN d1219      23.362 -10.753  -3.534  0.00  0.00     0.089 H 
ATOM     25  H   SGN d1219      25.296 -13.478  -5.403  0.00  0.00     0.131 H 
ATOM     26  H   SGN d1219      21.530 -10.986  -5.712  0.00  0.00     0.210 HD
ATOM     27  H   SGN d1219      26.187  -8.810  -6.716  0.00  0.00     0.231 HD
ATOM     28  H   SGN d1219      23.932  -9.062  -7.353  0.00  0.00     0.231 HD
ATOM     29  H   SGN d1219      25.035 -12.231  -2.877  0.00  0.00     0.212 HD
ATOM     30  H   SGN d1219      25.736 -10.990  -5.104  0.00  0.00     0.140 HD
ATOM     31  H   SGN d1219      26.356 -12.223  -7.284  0.00  0.00     0.231 HD
ATOM     32  H   SGN d1219      23.507 -13.228  -2.303  0.00  0.00     0.090 H 
ATOM     33  H   SGN d1219      21.342 -12.781  -4.305  0.00  0.00     0.091 H 
ATOM     34  C4  IDU d1218      18.658  -9.359  -1.441  0.00  0.00    -0.005 C 
ATOM     35  O61 IDU d1218      20.454  -6.874  -2.628  0.00  0.00    -0.646 OA
ATOM     36  O5  IDU d1218      19.850 -10.181  -3.371  0.00  0.00    -0.343 OA
ATOM     37  C1  IDU d1218      20.020 -11.515  -2.863  0.00  0.00     0.161 C 
ATOM     38  O62 IDU d1218      18.930  -7.691  -4.026  0.00  0.00    -0.646 OA
ATOM     39  O1S IDU d1218      16.731 -14.445  -3.353  0.00  0.00    -0.572 OA
ATOM     40  O3S IDU d1218      18.691 -14.792  -1.998  0.00  0.00    -0.572 OA
ATOM     41  O2  IDU d1218      17.852 -12.400  -2.321  0.00  0.00    -0.244 OA
ATOM     42  C6  IDU d1218      19.735  -7.815  -3.057  0.00  0.00     0.203 C 
ATOM     43  C5  IDU d1218      19.845  -9.151  -2.381  0.00  0.00     0.127 C 
ATOM     44  C2  IDU d1218      19.046 -11.885  -1.735  0.00  0.00     0.132 C 
ATOM     45  C3  IDU d1218      18.691 -10.738  -0.777  0.00  0.00     0.069 C 
ATOM     46  O3  IDU d1218      19.614 -10.721   0.318  0.00  0.00    -0.393 OA
ATOM     47  S   IDU d1218      17.464 -13.980  -2.153  0.00  0.00     0.252 S 
ATOM     48  O2S IDU d1218      16.616 -14.135  -0.951  0.00  0.00    -0.572 OA
ATOM     49  H   IDU d1218      18.685  -8.608  -0.679  0.00  0.00     0.041 H 
ATOM     50  H   IDU d1218      17.760  -9.290  -2.019  0.00  0.00     0.041 H 
ATOM     51  H   IDU d1218      19.778 -12.122  -3.710  0.00  0.00     0.133 H 
ATOM     52  H   IDU d1218      20.753  -9.187  -1.815  0.00  0.00     0.100 H 
ATOM     53  H   IDU d1218      19.549 -12.611  -1.131  0.00  0.00     0.097 H 
ATOM     54  H   IDU d1218      17.695 -10.932  -0.436  0.00  0.00     0.087 H 
ATOM     55  H   IDU d1218      20.507 -10.545  -0.015  0.00  0.00     0.210 HD
ENDROOT
TORSDOF 16
ENDMDL
MODEL 69
REMARK VINA RESULT:      -5.3      2.954      8.393
REMARK  0 active torsions:
REMARK  status: ('A' for Active; 'I' for Inactive)
REMARK       I    between atoms: C2_1  and  N_18 
REMARK       I    between atoms: O4_5  and  C1_17 
REMARK       I    between atoms: O4_5  and  C4_30 
REMARK       I    between atoms: O6_6  and  C6_7 
REMARK       I    between atoms: O6_6  and  S2_22 
REMARK       I    between atoms: C6_7  and  C5_28 
REMARK       I    between atoms: C3_8  and  O3_10 
REMARK       I    between atoms: C1_9  and  O1_16 
REMARK       I    between atoms: S1_12  and  N_18 
REMARK       I    between atoms: S1_12  and  O1S_13 
REMARK       I    between atoms: S1_12  and  O2S_15 
REMARK       I    between atoms: S1_12  and  O3S_26 
REMARK       I    between atoms: O2_24  and  C2_31 
REMARK       I    between atoms: O2_24  and  S_34 
REMARK       I    between atoms: C6_25  and  C5_27 
REMARK       I    between atoms: C3_32  and  O3_33 
ROOT
ATOM      1  C2  SGN d1219      20.714  -9.330  -1.724  0.00  0.00     0.081 C 
ATOM      2  O4  SGN d1219      22.846 -10.066  -4.740  0.00  0.00    -0.348 OA
ATOM      3  O6  SGN d1219      21.337 -13.675  -3.269  0.00  0.00    -0.254 OA
ATOM      4  C6  SGN d1219      21.575 -12.696  -4.260  0.00  0.00     0.067 C 
ATOM      5  C3  SGN d1219      21.769  -9.104  -2.815  0.00  0.00     0.083 C 
ATOM      6  C1  SGN d1219      19.630 -10.331  -2.148  0.00  0.00     0.147 C 
ATOM      7  O3  SGN d1219      22.900  -8.467  -2.254  0.00  0.00    -0.391 OA
ATOM      8  O4S SGN d1219      23.583 -14.540  -2.815  0.00  0.00    -0.572 OA
ATOM      9  S1  SGN d1219      19.972  -7.646   0.201  0.00  0.00     0.156 S 
ATOM     10  O1S SGN d1219      19.054  -6.510   0.244  0.00  0.00    -0.296 OA
ATOM     11  O5  SGN d1219      20.230 -11.516  -2.647  0.00  0.00    -0.350 OA
ATOM     12  O2S SGN d1219      21.313  -7.286   0.660  0.00  0.00    -0.296 OA
ATOM     13  O1  SGN d1219      18.764  -9.775  -3.118  0.00  0.00    -0.369 OA
ATOM     14  N   SGN d1219      20.108  -8.065  -1.341  0.00  0.00    -0.210 NA
ATOM     15  O5S SGN d1219      22.230 -15.539  -4.530  0.00  0.00    -0.572 OA
ATOM     16  S2  SGN d1219      22.234 -14.949  -3.197  0.00  0.00     0.251 S 
ATOM     17  O3S SGN d1219      19.438  -8.798   0.930  0.00  0.00    -0.296 OA
ATOM     18  C5  SGN d1219      21.043 -11.344  -3.800  0.00  0.00     0.091 C 
ATOM     19  O6S SGN d1219      21.634 -15.820  -2.194  0.00  0.00    -0.572 OA
ATOM     20  C4  SGN d1219      22.211 -10.394  -3.519  0.00  0.00     0.095 C 
ATOM     21  H   SGN d1219      21.220  -9.755  -0.882  0.00  0.00     0.076 H 
ATOM     22  H   SGN d1219      21.082 -12.982  -5.165  0.00  0.00     0.080 H 
ATOM     23  H   SGN d1219      22.629 -12.618  -4.428  0.00  0.00     0.080 H 
ATOM     24  H   SGN d1219      21.311  -8.486  -3.559  0.00  0.00     0.089 H 
ATOM     25  H   SGN d1219      19.045 -10.570  -1.284  0.00  0.00     0.131 H 
ATOM     26  H   SGN d1219      23.297  -9.044  -1.584  0.00  0.00     0.210 HD
ATOM     27  H   SGN d1219      19.437  -5.766  -0.248  0.00  0.00     0.231 HD
ATOM     28  H   SGN d1219      21.633  -6.521   0.156  0.00  0.00     0.231 HD
ATOM     29  H   SGN d1219      19.271  -9.549  -3.913  0.00  0.00     0.212 HD
ATOM     30  H   SGN d1219      19.163  -8.067  -1.725  0.00  0.00     0.140 HD
ATOM     31  H   SGN d1219      18.550  -9.006   0.599  0.00  0.00     0.231 HD
ATOM     32  H   SGN d1219      20.441 -10.912  -4.572  0.00  0.00     0.090 H 
ATOM     33  H   SGN d1219      22.884 -10.900  -2.860  0.00  0.00     0.091 H 
ATOM     34  C4  IDU d1218      25.910  -8.369  -6.259  0.00  0.00    -0.005 C 
ATOM     35  O61 IDU d1218      24.906  -5.470  -5.078  0.00  0.00    -0.646 OA
ATOM     36  O5  IDU d1218      24.811  -8.784  -4.151  0.00  0.00    -0.343 OA
ATOM     37  C1  IDU d1218      24.273 -10.061  -4.532  0.00  0.00     0.161 C 
ATOM     38  O62 IDU d1218      26.360  -6.559  -3.797  0.00  0.00    -0.646 OA
ATOM     39  O1S IDU d1218      26.824 -13.669  -4.180  0.00  0.00    -0.572 OA
ATOM     40  O3S IDU d1218      24.684 -13.601  -5.281  0.00  0.00    -0.572 OA
ATOM     41  O2  IDU d1218      26.090 -11.468  -5.239  0.00  0.00    -0.244 OA
ATOM     42  C6  IDU d1218      25.434  -6.534  -4.659  0.00  0.00     0.203 C 
ATOM     43  C5  IDU d1218      24.932  -7.836  -5.213  0.00  0.00     0.127 C 
ATOM     44  C2  IDU d1218      24.986 -10.710  -5.728  0.00  0.00     0.132 C 
ATOM     45  C3  IDU d1218      25.475  -9.731  -6.806  0.00  0.00     0.069 C 
ATOM     46  O3  IDU d1218      24.452  -9.547  -7.791  0.00  0.00    -0.393 OA
ATOM     47  S   IDU d1218      26.075 -13.101  -5.325  0.00  0.00     0.252 S 
ATOM     48  O2S IDU d1218      26.707 -13.514  -6.597  0.00  0.00    -0.572 OA
ATOM     49  H   IDU d1218      25.964  -7.672  -7.069  0.00  0.00     0.041 H 
ATOM     50  H   IDU d1218      26.865  -8.489  -5.789  0.00  0.00     0.041 H 
ATOM     51  H   IDU d1218      24.471 -10.667  -3.672  0.00  0.00     0.133 H 
ATOM     52  H   IDU d1218      23.978  -7.680  -5.672  0.00  0.00     0.100 H 
ATOM     53  H   IDU d1218      24.256 -11.323  -6.215  0.00  0.00     0.097 H 
ATOM     54  H   IDU d1218      26.347 -10.175  -7.237  0.00  0.00     0.087 H 
ATOM     55  H   IDU d1218      23.673  -9.144  -7.377  0.00  0.00     0.210 HD
ENDROOT
TORSDOF 16
ENDMDL
MODEL 70
REMARK VINA RESULT:      -5.2      2.630      3.529
REMARK  0 active torsions:
REMARK  status: ('A' for Active; 'I' for Inactive)
REMARK       I    between atoms: C2_1  and  N_18 
REMARK       I    between atoms: O4_5  and  C1_17 
REMARK       I    between atoms: O4_5  and  C4_30 
REMARK       I    between atoms: O6_6  and  C6_7 
REMARK       I    between atoms: O6_6  and  S2_22 
REMARK       I    between atoms: C6_7  and  C5_28 
REMARK       I    between atoms: C3_8  and  O3_10 
REMARK       I    between atoms: C1_9  and  O1_16 
REMARK       I    between atoms: S1_12  and  N_18 
REMARK       I    between atoms: S1_12  and  O1S_13 
REMARK       I    between atoms: S1_12  and  O2S_15 
REMARK       I    between atoms: S1_12  and  O3S_26 
REMARK       I    between atoms: O2_24  and  C2_31 
REMARK       I    between atoms: O2_24  and  S_34 
REMARK       I    between atoms: C6_25  and  C5_27 
REMARK       I    between atoms: C3_32  and  O3_33 
ROOT
ATOM      1  C2  SGN d1219      23.455 -14.567  -5.451  0.00  0.00     0.081 C 
ATOM      2  O4  SGN d1219      20.002 -13.960  -4.074  0.00  0.00    -0.348 OA
ATOM      3  O6  SGN d1219      21.403 -10.402  -5.760  0.00  0.00    -0.254 OA
ATOM      4  C6  SGN d1219      20.483 -11.459  -5.584  0.00  0.00     0.067 C 
ATOM      5  C3  SGN d1219      22.194 -14.799  -4.608  0.00  0.00     0.083 C 
ATOM      6  C1  SGN d1219      23.174 -13.760  -6.726  0.00  0.00     0.147 C 
ATOM      7  O3  SGN d1219      22.563 -15.224  -3.311  0.00  0.00    -0.391 OA
ATOM      8  O4S SGN d1219      21.290  -9.228  -3.613  0.00  0.00    -0.572 OA
ATOM      9  S1  SGN d1219      25.646 -16.077  -5.557  0.00  0.00     0.156 S 
ATOM     10  O1S SGN d1219      25.990 -17.300  -6.279  0.00  0.00    -0.296 OA
ATOM     11  O5  SGN d1219      22.448 -12.584  -6.408  0.00  0.00    -0.350 OA
ATOM     12  O2S SGN d1219      25.845 -16.216  -4.115  0.00  0.00    -0.296 OA
ATOM     13  O1  SGN d1219      22.466 -14.530  -7.678  0.00  0.00    -0.369 OA
ATOM     14  N   SGN d1219      24.077 -15.838  -5.785  0.00  0.00    -0.210 NA
ATOM     15  O5S SGN d1219      19.809  -8.614  -5.402  0.00  0.00    -0.572 OA
ATOM     16  S2  SGN d1219      21.162  -9.031  -5.054  0.00  0.00     0.251 S 
ATOM     17  O3S SGN d1219      26.356 -14.916  -6.095  0.00  0.00    -0.296 OA
ATOM     18  C5  SGN d1219      21.173 -12.798  -5.821  0.00  0.00     0.091 C 
ATOM     19  O6S SGN d1219      22.181  -8.120  -5.563  0.00  0.00    -0.572 OA
ATOM     20  C4  SGN d1219      21.292 -13.562  -4.499  0.00  0.00     0.095 C 
ATOM     21  H   SGN d1219      24.127 -13.985  -4.855  0.00  0.00     0.076 H 
ATOM     22  H   SGN d1219      19.678 -11.348  -6.280  0.00  0.00     0.080 H 
ATOM     23  H   SGN d1219      20.105 -11.433  -4.583  0.00  0.00     0.080 H 
ATOM     24  H   SGN d1219      21.625 -15.553  -5.111  0.00  0.00     0.089 H 
ATOM     25  H   SGN d1219      24.114 -13.487  -7.158  0.00  0.00     0.131 H 
ATOM     26  H   SGN d1219      23.076 -14.526  -2.876  0.00  0.00     0.210 HD
ATOM     27  H   SGN d1219      25.503 -18.047  -5.899  0.00  0.00     0.231 HD
ATOM     28  H   SGN d1219      25.361 -16.994  -3.795  0.00  0.00     0.231 HD
ATOM     29  H   SGN d1219      21.607 -14.790  -7.309  0.00  0.00     0.212 HD
ATOM     30  H   SGN d1219      23.901 -15.994  -6.778  0.00  0.00     0.140 HD
ATOM     31  H   SGN d1219      26.201 -14.856  -7.050  0.00  0.00     0.231 HD
ATOM     32  H   SGN d1219      20.589 -13.390  -6.495  0.00  0.00     0.090 H 
ATOM     33  H   SGN d1219      21.743 -12.903  -3.788  0.00  0.00     0.091 H 
ATOM     34  C4  IDU d1218      18.044 -15.457  -1.159  0.00  0.00    -0.005 C 
ATOM     35  O61 IDU d1218      19.683 -18.287  -1.495  0.00  0.00    -0.646 OA
ATOM     36  O5  IDU d1218      20.285 -14.919  -1.872  0.00  0.00    -0.343 OA
ATOM     37  C1  IDU d1218      19.905 -13.771  -2.648  0.00  0.00     0.161 C 
ATOM     38  O62 IDU d1218      20.519 -16.885   0.014  0.00  0.00    -0.646 OA
ATOM     39  O1S IDU d1218      19.365  -9.871  -0.612  0.00  0.00    -0.572 OA
ATOM     40  O3S IDU d1218      18.750 -10.327  -2.895  0.00  0.00    -0.572 OA
ATOM     41  O2  IDU d1218      18.701 -12.257  -1.221  0.00  0.00    -0.244 OA
ATOM     42  C6  IDU d1218      19.877 -17.125  -1.050  0.00  0.00     0.203 C 
ATOM     43  C5  IDU d1218      19.318 -15.970  -1.829  0.00  0.00     0.127 C 
ATOM     44  C2  IDU d1218      18.529 -13.194  -2.282  0.00  0.00     0.132 C 
ATOM     45  C3  IDU d1218      17.472 -14.233  -1.880  0.00  0.00     0.069 C 
ATOM     46  O3  IDU d1218      16.746 -14.657  -3.040  0.00  0.00    -0.393 OA
ATOM     47  S   IDU d1218      18.463 -10.660  -1.483  0.00  0.00     0.252 S 
ATOM     48  O2S IDU d1218      17.053 -10.335  -1.176  0.00  0.00    -0.572 OA
ATOM     49  H   IDU d1218      17.311 -16.237  -1.167  0.00  0.00     0.041 H 
ATOM     50  H   IDU d1218      18.288 -15.168  -0.158  0.00  0.00     0.041 H 
ATOM     51  H   IDU d1218      20.642 -13.045  -2.373  0.00  0.00     0.133 H 
ATOM     52  H   IDU d1218      19.087 -16.292  -2.823  0.00  0.00     0.100 H 
ATOM     53  H   IDU d1218      18.149 -12.737  -3.172  0.00  0.00     0.097 H 
ATOM     54  H   IDU d1218      16.826 -13.746  -1.181  0.00  0.00     0.087 H 
ATOM     55  H   IDU d1218      17.351 -15.095  -3.659  0.00  0.00     0.210 HD
ENDROOT
TORSDOF 16
ENDMDL
MODEL 71
REMARK VINA RESULT:      -5.2      2.884      8.008
REMARK  0 active torsions:
REMARK  status: ('A' for Active; 'I' for Inactive)
REMARK       I    between atoms: C2_1  and  N_18 
REMARK       I    between atoms: O4_5  and  C1_17 
REMARK       I    between atoms: O4_5  and  C4_30 
REMARK       I    between atoms: O6_6  and  C6_7 
REMARK       I    between atoms: O6_6  and  S2_22 
REMARK       I    between atoms: C6_7  and  C5_28 
REMARK       I    between atoms: C3_8  and  O3_10 
REMARK       I    between atoms: C1_9  and  O1_16 
REMARK       I    between atoms: S1_12  and  N_18 
REMARK       I    between atoms: S1_12  and  O1S_13 
REMARK       I    between atoms: S1_12  and  O2S_15 
REMARK       I    between atoms: S1_12  and  O3S_26 
REMARK       I    between atoms: O2_24  and  C2_31 
REMARK       I    between atoms: O2_24  and  S_34 
REMARK       I    between atoms: C6_25  and  C5_27 
REMARK       I    between atoms: C3_32  and  O3_33 
ROOT
ATOM      1  C2  SGN d1219      21.119  -8.826  -1.074  0.00  0.00     0.081 C 
ATOM      2  O4  SGN d1219      21.379 -10.897  -4.208  0.00  0.00    -0.348 OA
ATOM      3  O6  SGN d1219      17.991 -12.118  -2.088  0.00  0.00    -0.254 OA
ATOM      4  C6  SGN d1219      18.692 -11.653  -3.223  0.00  0.00     0.067 C 
ATOM      5  C3  SGN d1219      21.763  -9.470  -2.309  0.00  0.00     0.083 C 
ATOM      6  C1  SGN d1219      19.601  -8.654  -1.219  0.00  0.00     0.147 C 
ATOM      7  O3  SGN d1219      23.064  -9.916  -1.986  0.00  0.00    -0.391 OA
ATOM      8  O4S SGN d1219      18.866 -14.389  -1.809  0.00  0.00    -0.572 OA
ATOM      9  S1  SGN d1219      22.256  -7.181   0.687  0.00  0.00     0.156 S 
ATOM     10  O1S SGN d1219      22.524  -5.746   0.692  0.00  0.00    -0.296 OA
ATOM     11  O5  SGN d1219      19.009  -9.876  -1.627  0.00  0.00    -0.350 OA
ATOM     12  O2S SGN d1219      23.466  -7.968   0.920  0.00  0.00    -0.296 OA
ATOM     13  O1  SGN d1219      19.283  -7.626  -2.137  0.00  0.00    -0.369 OA
ATOM     14  N   SGN d1219      21.747  -7.545  -0.790  0.00  0.00    -0.210 NA
ATOM     15  O5S SGN d1219      16.940 -14.000  -3.191  0.00  0.00    -0.572 OA
ATOM     16  S2  SGN d1219      17.627 -13.630  -1.959  0.00  0.00     0.251 S 
ATOM     17  O3S SGN d1219      21.189  -7.534   1.625  0.00  0.00    -0.296 OA
ATOM     18  C5  SGN d1219      19.445 -10.371  -2.885  0.00  0.00     0.091 C 
ATOM     19  O6S SGN d1219      16.778 -13.751  -0.781  0.00  0.00    -0.572 OA
ATOM     20  C4  SGN d1219      20.953 -10.639  -2.883  0.00  0.00     0.095 C 
ATOM     21  H   SGN d1219      21.281  -9.494  -0.253  0.00  0.00     0.076 H 
ATOM     22  H   SGN d1219      17.997 -11.457  -4.013  0.00  0.00     0.080 H 
ATOM     23  H   SGN d1219      19.393 -12.399  -3.532  0.00  0.00     0.080 H 
ATOM     24  H   SGN d1219      21.793  -8.713  -3.066  0.00  0.00     0.089 H 
ATOM     25  H   SGN d1219      19.207  -8.373  -0.264  0.00  0.00     0.131 H 
ATOM     26  H   SGN d1219      23.010 -10.599  -1.300  0.00  0.00     0.210 HD
ATOM     27  H   SGN d1219      23.234  -5.547   0.061  0.00  0.00     0.231 HD
ATOM     28  H   SGN d1219      24.149  -7.708   0.282  0.00  0.00     0.231 HD
ATOM     29  H   SGN d1219      19.631  -7.857  -3.013  0.00  0.00     0.212 HD
ATOM     30  H   SGN d1219      21.070  -6.827  -1.048  0.00  0.00     0.140 HD
ATOM     31  H   SGN d1219      20.404  -6.994   1.440  0.00  0.00     0.231 HD
ATOM     32  H   SGN d1219      19.241  -9.627  -3.626  0.00  0.00     0.090 H 
ATOM     33  H   SGN d1219      21.127 -11.485  -2.253  0.00  0.00     0.091 H 
ATOM     34  C4  IDU d1218      24.327 -12.101  -6.315  0.00  0.00    -0.005 C 
ATOM     35  O61 IDU d1218      26.065  -9.460  -5.416  0.00  0.00    -0.646 OA
ATOM     36  O5  IDU d1218      23.701 -11.556  -4.049  0.00  0.00    -0.343 OA
ATOM     37  C1  IDU d1218      22.334 -11.978  -4.185  0.00  0.00     0.161 C 
ATOM     38  O62 IDU d1218      26.418 -11.283  -4.195  0.00  0.00    -0.646 OA
ATOM     39  O1S IDU d1218      21.338 -16.267  -3.676  0.00  0.00    -0.572 OA
ATOM     40  O3S IDU d1218      19.817 -14.590  -4.498  0.00  0.00    -0.572 OA
ATOM     41  O2  IDU d1218      22.316 -14.266  -4.920  0.00  0.00    -0.244 OA
ATOM     42  C6  IDU d1218      25.686 -10.557  -4.929  0.00  0.00     0.203 C 
ATOM     43  C5  IDU d1218      24.291 -11.020  -5.235  0.00  0.00     0.127 C 
ATOM     44  C2  IDU d1218      22.085 -12.931  -5.363  0.00  0.00     0.132 C 
ATOM     45  C3  IDU d1218      22.931 -12.655  -6.615  0.00  0.00     0.069 C 
ATOM     46  O3  IDU d1218      22.233 -11.750  -7.479  0.00  0.00    -0.393 OA
ATOM     47  S   IDU d1218      21.072 -15.319  -4.783  0.00  0.00     0.252 S 
ATOM     48  O2S IDU d1218      20.934 -16.057  -6.058  0.00  0.00    -0.572 OA
ATOM     49  H   IDU d1218      24.732 -11.681  -7.212  0.00  0.00     0.041 H 
ATOM     50  H   IDU d1218      24.934 -12.907  -5.958  0.00  0.00     0.041 H 
ATOM     51  H   IDU d1218      22.167 -12.530  -3.283  0.00  0.00     0.133 H 
ATOM     52  H   IDU d1218      23.712 -10.192  -5.587  0.00  0.00     0.100 H 
ATOM     53  H   IDU d1218      21.072 -12.773  -5.668  0.00  0.00     0.097 H 
ATOM     54  H   IDU d1218      23.078 -13.602  -7.090  0.00  0.00     0.087 H 
ATOM     55  H   IDU d1218      22.111 -10.901  -7.028  0.00  0.00     0.210 HD
ENDROOT
TORSDOF 16
ENDMDL
MODEL 72
REMARK VINA RESULT:      -5.2      3.960      8.106
REMARK  0 active torsions:
REMARK  status: ('A' for Active; 'I' for Inactive)
REMARK       I    between atoms: C2_1  and  N_18 
REMARK       I    between atoms: O4_5  and  C1_17 
REMARK       I    between atoms: O4_5  and  C4_30 
REMARK       I    between atoms: O6_6  and  C6_7 
REMARK       I    between atoms: O6_6  and  S2_22 
REMARK       I    between atoms: C6_7  and  C5_28 
REMARK       I    between atoms: C3_8  and  O3_10 
REMARK       I    between atoms: C1_9  and  O1_16 
REMARK       I    between atoms: S1_12  and  N_18 
REMARK       I    between atoms: S1_12  and  O1S_13 
REMARK       I    between atoms: S1_12  and  O2S_15 
REMARK       I    between atoms: S1_12  and  O3S_26 
REMARK       I    between atoms: O2_24  and  C2_31 
REMARK       I    between atoms: O2_24  and  S_34 
REMARK       I    between atoms: C6_25  and  C5_27 
REMARK       I    between atoms: C3_32  and  O3_33 
ROOT
ATOM      1  C2  SGN d1219      25.509  -7.695  -0.535  0.00  0.00     0.081 C 
ATOM      2  O4  SGN d1219      22.317  -8.946  -2.092  0.00  0.00    -0.348 OA
ATOM      3  O6  SGN d1219      24.178 -12.136  -0.136  0.00  0.00    -0.254 OA
ATOM      4  C6  SGN d1219      23.106 -11.262  -0.425  0.00  0.00     0.067 C 
ATOM      5  C3  SGN d1219      24.291  -7.720  -1.467  0.00  0.00     0.083 C 
ATOM      6  C1  SGN d1219      25.279  -8.486   0.761  0.00  0.00     0.147 C 
ATOM      7  O3  SGN d1219      24.674  -7.291  -2.758  0.00  0.00    -0.391 OA
ATOM      8  O4S SGN d1219      24.418 -13.399  -2.221  0.00  0.00    -0.572 OA
ATOM      9  S1  SGN d1219      27.399  -5.826  -0.370  0.00  0.00     0.156 S 
ATOM     10  O1S SGN d1219      27.478  -4.534   0.307  0.00  0.00    -0.296 OA
ATOM     11  O5  SGN d1219      24.788  -9.782   0.461  0.00  0.00    -0.350 OA
ATOM     12  O2S SGN d1219      27.674  -5.714  -1.802  0.00  0.00    -0.296 OA
ATOM     13  O1  SGN d1219      24.385  -7.811   1.625  0.00  0.00    -0.369 OA
ATOM     14  N   SGN d1219      25.881  -6.323  -0.229  0.00  0.00    -0.210 NA
ATOM     15  O5S SGN d1219      22.940 -14.186  -0.500  0.00  0.00    -0.572 OA
ATOM     16  S2  SGN d1219      24.224 -13.556  -0.782  0.00  0.00     0.251 S 
ATOM     17  O3S SGN d1219      28.256  -6.824   0.272  0.00  0.00    -0.296 OA
ATOM     18  C5  SGN d1219      23.540  -9.815  -0.216  0.00  0.00     0.091 C 
ATOM     19  O6S SGN d1219      25.343 -14.255  -0.163  0.00  0.00    -0.572 OA
ATOM     20  C4  SGN d1219      23.622  -9.097  -1.567  0.00  0.00     0.095 C 
ATOM     21  H   SGN d1219      26.311  -8.177  -1.055  0.00  0.00     0.076 H 
ATOM     22  H   SGN d1219      22.285 -11.482   0.223  0.00  0.00     0.080 H 
ATOM     23  H   SGN d1219      22.811 -11.395  -1.445  0.00  0.00     0.080 H 
ATOM     24  H   SGN d1219      23.568  -7.055  -1.041  0.00  0.00     0.089 H 
ATOM     25  H   SGN d1219      26.219  -8.573   1.266  0.00  0.00     0.131 H 
ATOM     26  H   SGN d1219      25.327  -7.907  -3.122  0.00  0.00     0.210 HD
ATOM     27  H   SGN d1219      26.899  -3.898  -0.142  0.00  0.00     0.231 HD
ATOM     28  H   SGN d1219      27.089  -5.045  -2.192  0.00  0.00     0.231 HD
ATOM     29  H   SGN d1219      23.523  -7.718   1.189  0.00  0.00     0.212 HD
ATOM     30  H   SGN d1219      25.611  -6.159   0.741  0.00  0.00     0.140 HD
ATOM     31  H   SGN d1219      28.046  -6.870   1.218  0.00  0.00     0.231 HD
ATOM     32  H   SGN d1219      22.818  -9.306   0.387  0.00  0.00     0.090 H 
ATOM     33  H   SGN d1219      24.228  -9.697  -2.212  0.00  0.00     0.091 H 
ATOM     34  C4  IDU d1218      20.346  -7.932  -5.201  0.00  0.00    -0.005 C 
ATOM     35  O61 IDU d1218      21.452  -4.849  -4.912  0.00  0.00    -0.646 OA
ATOM     36  O5  IDU d1218      22.589  -8.044  -4.320  0.00  0.00    -0.343 OA
ATOM     37  C1  IDU d1218      22.355  -9.208  -3.510  0.00  0.00     0.161 C 
ATOM     38  O62 IDU d1218      22.619  -6.147  -6.288  0.00  0.00    -0.646 OA
ATOM     39  O1S IDU d1218      22.631 -13.223  -5.368  0.00  0.00    -0.572 OA
ATOM     40  O3S IDU d1218      21.786 -12.787  -3.155  0.00  0.00    -0.572 OA
ATOM     41  O2  IDU d1218      21.530 -10.965  -4.928  0.00  0.00    -0.244 OA
ATOM     42  C6  IDU d1218      21.872  -5.978  -5.281  0.00  0.00     0.203 C 
ATOM     43  C5  IDU d1218      21.463  -7.180  -4.479  0.00  0.00     0.127 C 
ATOM     44  C2  IDU d1218      21.127 -10.028  -3.931  0.00  0.00     0.132 C 
ATOM     45  C3  IDU d1218      19.940  -9.205  -4.453  0.00  0.00     0.069 C 
ATOM     46  O3  IDU d1218      19.072  -8.866  -3.365  0.00  0.00    -0.393 OA
ATOM     47  S   IDU d1218      21.549 -12.567  -4.598  0.00  0.00     0.252 S 
ATOM     48  O2S IDU d1218      20.240 -13.143  -4.976  0.00  0.00    -0.572 OA
ATOM     49  H   IDU d1218      19.493  -7.291  -5.280  0.00  0.00     0.041 H 
ATOM     50  H   IDU d1218      20.706  -8.215  -6.168  0.00  0.00     0.041 H 
ATOM     51  H   IDU d1218      23.222  -9.806  -3.699  0.00  0.00     0.133 H 
ATOM     52  H   IDU d1218      21.111  -6.861  -3.520  0.00  0.00     0.100 H 
ATOM     53  H   IDU d1218      20.768 -10.508  -3.044  0.00  0.00     0.097 H 
ATOM     54  H   IDU d1218      19.438  -9.825  -5.166  0.00  0.00     0.087 H 
ATOM     55  H   IDU d1218      19.548  -8.305  -2.734  0.00  0.00     0.210 HD
ENDROOT
TORSDOF 16
ENDMDL
MODEL 73
REMARK VINA RESULT:      -5.2      3.713      6.860
REMARK  0 active torsions:
REMARK  status: ('A' for Active; 'I' for Inactive)
REMARK       I    between atoms: C2_1  and  N_18 
REMARK       I    between atoms: O4_5  and  C1_17 
REMARK       I    between atoms: O4_5  and  C4_30 
REMARK       I    between atoms: O6_6  and  C6_7 
REMARK       I    between atoms: O6_6  and  S2_22 
REMARK       I    between atoms: C6_7  and  C5_28 
REMARK       I    between atoms: C3_8  and  O3_10 
REMARK       I    between atoms: C1_9  and  O1_16 
REMARK       I    between atoms: S1_12  and  N_18 
REMARK       I    between atoms: S1_12  and  O1S_13 
REMARK       I    between atoms: S1_12  and  O2S_15 
REMARK       I    between atoms: S1_12  and  O3S_26 
REMARK       I    between atoms: O2_24  and  C2_31 
REMARK       I    between atoms: O2_24  and  S_34 
REMARK       I    between atoms: C6_25  and  C5_27 
REMARK       I    between atoms: C3_32  and  O3_33 
ROOT
ATOM      1  C2  SGN d1219      24.339  -7.615  -5.237  0.00  0.00     0.081 C 
ATOM      2  O4  SGN d1219      24.216  -9.681  -2.090  0.00  0.00    -0.348 OA
ATOM      3  O6  SGN d1219      22.086 -11.684  -5.076  0.00  0.00    -0.254 OA
ATOM      4  C6  SGN d1219      23.073 -11.559  -4.073  0.00  0.00     0.067 C 
ATOM      5  C3  SGN d1219      24.434  -7.943  -3.741  0.00  0.00     0.083 C 
ATOM      6  C1  SGN d1219      24.571  -8.844  -6.128  0.00  0.00     0.147 C 
ATOM      7  O3  SGN d1219      23.877  -6.885  -2.988  0.00  0.00    -0.391 OA
ATOM      8  O4S SGN d1219      20.001 -11.574  -3.796  0.00  0.00    -0.572 OA
ATOM      9  S1  SGN d1219      24.810  -5.280  -6.427  0.00  0.00     0.156 S 
ATOM     10  O1S SGN d1219      26.028  -4.602  -6.863  0.00  0.00    -0.296 OA
ATOM     11  O5  SGN d1219      23.747  -9.917  -5.702  0.00  0.00    -0.350 OA
ATOM     12  O2S SGN d1219      24.010  -4.449  -5.528  0.00  0.00    -0.296 OA
ATOM     13  O1  SGN d1219      25.930  -9.237  -6.121  0.00  0.00    -0.369 OA
ATOM     14  N   SGN d1219      25.277  -6.559  -5.580  0.00  0.00    -0.210 NA
ATOM     15  O5S SGN d1219      21.068 -13.691  -4.183  0.00  0.00    -0.572 OA
ATOM     16  S2  SGN d1219      20.734 -12.394  -4.758  0.00  0.00     0.251 S 
ATOM     17  O3S SGN d1219      24.025  -5.762  -7.565  0.00  0.00    -0.296 OA
ATOM     18  C5  SGN d1219      23.983 -10.374  -4.378  0.00  0.00     0.091 C 
ATOM     19  O6S SGN d1219      20.018 -12.505  -6.023  0.00  0.00    -0.572 OA
ATOM     20  C4  SGN d1219      23.744  -9.258  -3.356  0.00  0.00     0.095 C 
ATOM     21  H   SGN d1219      23.339  -7.281  -5.421  0.00  0.00     0.076 H 
ATOM     22  H   SGN d1219      23.658 -12.454  -4.037  0.00  0.00     0.080 H 
ATOM     23  H   SGN d1219      22.595 -11.399  -3.129  0.00  0.00     0.080 H 
ATOM     24  H   SGN d1219      25.475  -8.064  -3.521  0.00  0.00     0.089 H 
ATOM     25  H   SGN d1219      24.312  -8.578  -7.131  0.00  0.00     0.131 H 
ATOM     26  H   SGN d1219      22.936  -6.796  -3.204  0.00  0.00     0.210 HD
ATOM     27  H   SGN d1219      26.523  -4.297  -6.087  0.00  0.00     0.231 HD
ATOM     28  H   SGN d1219      24.562  -4.149  -4.788  0.00  0.00     0.231 HD
ATOM     29  H   SGN d1219      26.190  -9.484  -5.219  0.00  0.00     0.212 HD
ATOM     30  H   SGN d1219      26.028  -7.000  -6.112  0.00  0.00     0.140 HD
ATOM     31  H   SGN d1219      24.586  -6.308  -8.137  0.00  0.00     0.231 HD
ATOM     32  H   SGN d1219      25.006 -10.677  -4.306  0.00  0.00     0.090 H 
ATOM     33  H   SGN d1219      22.692  -9.068  -3.329  0.00  0.00     0.091 H 
ATOM     34  C4  IDU d1218      24.277  -8.801   1.625  0.00  0.00    -0.005 C 
ATOM     35  O61 IDU d1218      26.045  -6.107   0.971  0.00  0.00    -0.646 OA
ATOM     36  O5  IDU d1218      23.557  -7.962  -0.520  0.00  0.00    -0.343 OA
ATOM     37  C1  IDU d1218      23.278  -9.256  -1.081  0.00  0.00     0.161 C 
ATOM     38  O62 IDU d1218      23.849  -5.786   1.109  0.00  0.00    -0.646 OA
ATOM     39  O1S IDU d1218      19.365 -11.166  -0.253  0.00  0.00    -0.572 OA
ATOM     40  O3S IDU d1218      21.233 -12.260  -1.308  0.00  0.00    -0.572 OA
ATOM     41  O2  IDU d1218      21.714 -10.382   0.356  0.00  0.00    -0.244 OA
ATOM     42  C6  IDU d1218      24.856  -6.512   0.864  0.00  0.00     0.203 C 
ATOM     43  C5  IDU d1218      24.631  -7.929   0.421  0.00  0.00     0.127 C 
ATOM     44  C2  IDU d1218      23.085 -10.364  -0.035  0.00  0.00     0.132 C 
ATOM     45  C3  IDU d1218      23.971 -10.244   1.214  0.00  0.00     0.069 C 
ATOM     46  O3  IDU d1218      25.199 -10.953   1.004  0.00  0.00    -0.393 OA
ATOM     47  S   IDU d1218      20.754 -11.641  -0.053  0.00  0.00     0.252 S 
ATOM     48  O2S IDU d1218      20.794 -12.642   1.036  0.00  0.00    -0.572 OA
ATOM     49  H   IDU d1218      25.102  -8.803   2.306  0.00  0.00     0.041 H 
ATOM     50  H   IDU d1218      23.399  -8.394   2.083  0.00  0.00     0.041 H 
ATOM     51  H   IDU d1218      22.336  -9.104  -1.566  0.00  0.00     0.133 H 
ATOM     52  H   IDU d1218      25.525  -8.303  -0.033  0.00  0.00     0.100 H 
ATOM     53  H   IDU d1218      23.386 -11.277  -0.507  0.00  0.00     0.097 H 
ATOM     54  H   IDU d1218      23.412 -10.675   2.018  0.00  0.00     0.087 H 
ATOM     55  H   IDU d1218      25.686 -10.545   0.272  0.00  0.00     0.210 HD
ENDROOT
TORSDOF 16
ENDMDL
MODEL 74
REMARK VINA RESULT:      -5.2      3.296      5.894
REMARK  0 active torsions:
REMARK  status: ('A' for Active; 'I' for Inactive)
REMARK       I    between atoms: C2_1  and  N_18 
REMARK       I    between atoms: O4_5  and  C1_17 
REMARK       I    between atoms: O4_5  and  C4_30 
REMARK       I    between atoms: O6_6  and  C6_7 
REMARK       I    between atoms: O6_6  and  S2_22 
REMARK       I    between atoms: C6_7  and  C5_28 
REMARK       I    between atoms: C3_8  and  O3_10 
REMARK       I    between atoms: C1_9  and  O1_16 
REMARK       I    between atoms: S1_12  and  N_18 
REMARK       I    between atoms: S1_12  and  O1S_13 
REMARK       I    between atoms: S1_12  and  O2S_15 
REMARK       I    between atoms: S1_12  and  O3S_26 
REMARK       I    between atoms: O2_24  and  C2_31 
REMARK       I    between atoms: O2_24  and  S_34 
REMARK       I    between atoms: C6_25  and  C5_27 
REMARK       I    between atoms: C3_32  and  O3_33 
ROOT
ATOM      1  C2  SGN d1219      23.235 -11.686  -5.667  0.00  0.00     0.081 C 
ATOM      2  O4  SGN d1219      23.544 -10.260  -2.195  0.00  0.00    -0.348 OA
ATOM      3  O6  SGN d1219      19.795 -12.071  -2.557  0.00  0.00    -0.254 OA
ATOM      4  C6  SGN d1219      21.056 -11.848  -1.962  0.00  0.00     0.067 C 
ATOM      5  C3  SGN d1219      23.773 -10.812  -4.527  0.00  0.00     0.083 C 
ATOM      6  C1  SGN d1219      22.576 -12.977  -5.164  0.00  0.00     0.147 C 
ATOM      7  O3  SGN d1219      24.040  -9.512  -5.012  0.00  0.00    -0.391 OA
ATOM      8  O4S SGN d1219      18.628  -9.955  -2.154  0.00  0.00    -0.572 OA
ATOM      9  S1  SGN d1219      24.097 -11.793  -8.185  0.00  0.00     0.156 S 
ATOM     10  O1S SGN d1219      25.202 -12.487  -8.840  0.00  0.00    -0.296 OA
ATOM     11  O5  SGN d1219      21.631 -12.678  -4.149  0.00  0.00    -0.350 OA
ATOM     12  O2S SGN d1219      24.130 -10.351  -8.431  0.00  0.00    -0.296 OA
ATOM     13  O1  SGN d1219      23.539 -13.894  -4.680  0.00  0.00    -0.369 OA
ATOM     14  N   SGN d1219      24.299 -11.997  -6.607  0.00  0.00    -0.210 NA
ATOM     15  O5S SGN d1219      18.496 -11.731  -0.542  0.00  0.00    -0.572 OA
ATOM     16  S2  SGN d1219      18.519 -11.399  -1.961  0.00  0.00     0.251 S 
ATOM     17  O3S SGN d1219      22.804 -12.376  -8.547  0.00  0.00    -0.296 OA
ATOM     18  C5  SGN d1219      22.165 -12.060  -2.987  0.00  0.00     0.091 C 
ATOM     19  O6S SGN d1219      17.383 -11.953  -2.688  0.00  0.00    -0.572 OA
ATOM     20  C4  SGN d1219      22.825 -10.720  -3.324  0.00  0.00     0.095 C 
ATOM     21  H   SGN d1219      22.473 -11.119  -6.162  0.00  0.00     0.076 H 
ATOM     22  H   SGN d1219      21.189 -12.531  -1.149  0.00  0.00     0.080 H 
ATOM     23  H   SGN d1219      21.101 -10.841  -1.602  0.00  0.00     0.080 H 
ATOM     24  H   SGN d1219      24.669 -11.283  -4.178  0.00  0.00     0.089 H 
ATOM     25  H   SGN d1219      22.072 -13.435  -5.989  0.00  0.00     0.131 H 
ATOM     26  H   SGN d1219      23.215  -9.107  -5.320  0.00  0.00     0.210 HD
ATOM     27  H   SGN d1219      26.042 -12.077  -8.579  0.00  0.00     0.231 HD
ATOM     28  H   SGN d1219      25.000 -10.001  -8.180  0.00  0.00     0.231 HD
ATOM     29  H   SGN d1219      24.011 -13.501  -3.929  0.00  0.00     0.212 HD
ATOM     30  H   SGN d1219      24.529 -12.981  -6.470  0.00  0.00     0.140 HD
ATOM     31  H   SGN d1219      22.819 -13.330  -8.371  0.00  0.00     0.231 HD
ATOM     32  H   SGN d1219      22.914 -12.706  -2.578  0.00  0.00     0.090 H 
ATOM     33  H   SGN d1219      22.045 -10.037  -3.587  0.00  0.00     0.091 H 
ATOM     34  C4  IDU d1218      25.421  -7.266  -0.751  0.00  0.00    -0.005 C 
ATOM     35  O61 IDU d1218      27.710  -7.555  -3.093  0.00  0.00    -0.646 OA
ATOM     36  O5  IDU d1218      24.319  -8.038  -2.753  0.00  0.00    -0.343 OA
ATOM     37  C1  IDU d1218      23.342  -8.838  -2.066  0.00  0.00     0.161 C 
ATOM     38  O62 IDU d1218      26.086  -6.103  -3.533  0.00  0.00    -0.646 OA
ATOM     39  O1S IDU d1218      19.672  -6.900  -0.510  0.00  0.00    -0.572 OA
ATOM     40  O3S IDU d1218      20.350  -9.157  -0.016  0.00  0.00    -0.572 OA
ATOM     41  O2  IDU d1218      22.167  -7.430  -0.512  0.00  0.00    -0.244 OA
ATOM     42  C6  IDU d1218      26.525  -7.147  -2.969  0.00  0.00     0.203 C 
ATOM     43  C5  IDU d1218      25.590  -7.946  -2.109  0.00  0.00     0.127 C 
ATOM     44  C2  IDU d1218      23.149  -8.461  -0.590  0.00  0.00     0.132 C 
ATOM     45  C3  IDU d1218      24.423  -8.010   0.140  0.00  0.00     0.069 C 
ATOM     46  O3  IDU d1218      25.064  -9.143   0.737  0.00  0.00    -0.393 OA
ATOM     47  S   IDU d1218      20.704  -7.731   0.153  0.00  0.00     0.252 S 
ATOM     48  O2S IDU d1218      20.763  -7.406   1.596  0.00  0.00    -0.572 OA
ATOM     49  H   IDU d1218      26.370  -7.238  -0.257  0.00  0.00     0.041 H 
ATOM     50  H   IDU d1218      25.045  -6.278  -0.919  0.00  0.00     0.041 H 
ATOM     51  H   IDU d1218      22.436  -8.598  -2.581  0.00  0.00     0.133 H 
ATOM     52  H   IDU d1218      25.995  -8.926  -1.963  0.00  0.00     0.100 H 
ATOM     53  H   IDU d1218      22.840  -9.356  -0.090  0.00  0.00     0.097 H 
ATOM     54  H   IDU d1218      24.106  -7.312   0.886  0.00  0.00     0.087 H 
ATOM     55  H   IDU d1218      25.341  -9.761   0.042  0.00  0.00     0.210 HD
ENDROOT
TORSDOF 16
ENDMDL
MODEL 75
REMARK VINA RESULT:      -3.0      3.533      9.019
REMARK  0 active torsions:
REMARK  status: ('A' for Active; 'I' for Inactive)
REMARK       I    between atoms: C2_1  and  N_18 
REMARK       I    between atoms: O4_5  and  C1_17 
REMARK       I    between atoms: O4_5  and  C4_30 
REMARK       I    between atoms: O6_6  and  C6_7 
REMARK       I    between atoms: O6_6  and  S2_22 
REMARK       I    between atoms: C6_7  and  C5_28 
REMARK       I    between atoms: C3_8  and  O3_10 
REMARK       I    between atoms: C1_9  and  O1_16 
REMARK       I    between atoms: S1_12  and  N_18 
REMARK       I    between atoms: S1_12  and  O1S_13 
REMARK       I    between atoms: S1_12  and  O2S_15 
REMARK       I    between atoms: S1_12  and  O3S_26 
REMARK       I    between atoms: O2_24  and  C2_31 
REMARK       I    between atoms: O2_24  and  S_34 
REMARK       I    between atoms: C6_25  and  C5_27 
REMARK       I    between atoms: C3_32  and  O3_33 
ROOT
ATOM      1  C2  SGN d1219      21.653  -9.096  -3.248  0.00  0.00     0.081 C 
ATOM      2  O4  SGN d1219      23.454  -9.478  -6.534  0.00  0.00    -0.348 OA
ATOM      3  O6  SGN d1219      21.878 -13.193  -5.445  0.00  0.00    -0.254 OA
ATOM      4  C6  SGN d1219      22.082 -12.091  -6.306  0.00  0.00     0.067 C 
ATOM      5  C3  SGN d1219      22.616  -8.761  -4.395  0.00  0.00     0.083 C 
ATOM      6  C1  SGN d1219      20.479  -9.976  -3.700  0.00  0.00     0.147 C 
ATOM      7  O3  SGN d1219      23.828  -8.264  -3.865  0.00  0.00    -0.391 OA
ATOM      8  O4S SGN d1219      24.102 -14.213  -5.343  0.00  0.00    -0.572 OA
ATOM      9  S1  SGN d1219      21.190  -7.681  -1.041  0.00  0.00     0.156 S 
ATOM     10  O1S SGN d1219      20.348  -6.524  -0.747  0.00  0.00    -0.296 OA
ATOM     11  O5  SGN d1219      20.961 -11.100  -4.418  0.00  0.00    -0.350 OA
ATOM     12  O2S SGN d1219      22.587  -7.452  -0.671  0.00  0.00    -0.296 OA
ATOM     13  O1  SGN d1219      19.562  -9.246  -4.491  0.00  0.00    -0.369 OA
ATOM     14  N   SGN d1219      21.160  -7.876  -2.632  0.00  0.00    -0.210 NA
ATOM     15  O5S SGN d1219      22.542 -14.890  -7.039  0.00  0.00    -0.572 OA
ATOM     16  S2  SGN d1219      22.702 -14.503  -5.643  0.00  0.00     0.251 S 
ATOM     17  O3S SGN d1219      20.659  -8.902  -0.432  0.00  0.00    -0.296 OA
ATOM     18  C5  SGN d1219      21.673 -10.798  -5.610  0.00  0.00     0.091 C 
ATOM     19  O6S SGN d1219      22.146 -15.483  -4.718  0.00  0.00    -0.572 OA
ATOM     20  C4  SGN d1219      22.915  -9.952  -5.314  0.00  0.00     0.095 C 
ATOM     21  H   SGN d1219      22.209  -9.662  -2.529  0.00  0.00     0.076 H 
ATOM     22  H   SGN d1219      21.492 -12.219  -7.190  0.00  0.00     0.080 H 
ATOM     23  H   SGN d1219      23.118 -12.036  -6.566  0.00  0.00     0.080 H 
ATOM     24  H   SGN d1219      22.128  -8.021  -4.996  0.00  0.00     0.089 H 
ATOM     25  H   SGN d1219      19.963 -10.313  -2.825  0.00  0.00     0.131 H 
ATOM     26  H   SGN d1219      24.250  -8.950  -3.326  0.00  0.00     0.210 HD
ATOM     27  H   SGN d1219      20.727  -5.734  -1.164  0.00  0.00     0.231 HD
ATOM     28  H   SGN d1219      22.903  -6.637  -1.091  0.00  0.00     0.231 HD
ATOM     29  H   SGN d1219      20.006  -8.929  -5.292  0.00  0.00     0.212 HD
ATOM     30  H   SGN d1219      20.186  -7.780  -2.917  0.00  0.00     0.140 HD
ATOM     31  H   SGN d1219      19.734  -9.020  -0.700  0.00  0.00     0.231 HD
ATOM     32  H   SGN d1219      21.030 -10.232  -6.250  0.00  0.00     0.090 H 
ATOM     33  H   SGN d1219      23.615 -10.579  -4.803  0.00  0.00     0.091 H 
ATOM     34  C4  IDU d1218      26.460  -7.715  -8.094  0.00  0.00    -0.005 C 
ATOM     35  O61 IDU d1218      25.739  -4.978  -6.421  0.00  0.00    -0.646 OA
ATOM     36  O5  IDU d1218      25.536  -8.385  -5.967  0.00  0.00    -0.343 OA
ATOM     37  C1  IDU d1218      24.892  -9.567  -6.470  0.00  0.00     0.161 C 
ATOM     38  O62 IDU d1218      27.238  -6.307  -5.458  0.00  0.00    -0.646 OA
ATOM     39  O1S IDU d1218      27.250 -13.298  -6.885  0.00  0.00    -0.572 OA
ATOM     40  O3S IDU d1218      25.025 -12.974  -7.748  0.00  0.00    -0.572 OA
ATOM     41  O2  IDU d1218      26.551 -10.935  -7.544  0.00  0.00    -0.244 OA
ATOM     42  C6  IDU d1218      26.240  -6.115  -6.211  0.00  0.00     0.203 C 
ATOM     43  C5  IDU d1218      25.614  -7.298  -6.891  0.00  0.00     0.127 C 
ATOM     44  C2  IDU d1218      25.453 -10.066  -7.810  0.00  0.00     0.132 C 
ATOM     45  C3  IDU d1218      25.898  -8.962  -8.782  0.00  0.00     0.069 C 
ATOM     46  O3  IDU d1218      24.801  -8.591  -9.625  0.00  0.00    -0.393 OA
ATOM     47  S   IDU d1218      26.433 -12.536  -7.858  0.00  0.00     0.252 S 
ATOM     48  O2S IDU d1218      26.921 -12.786  -9.232  0.00  0.00    -0.572 OA
ATOM     49  H   IDU d1218      26.480  -6.911  -8.799  0.00  0.00     0.041 H 
ATOM     50  H   IDU d1218      27.445  -7.945  -7.743  0.00  0.00     0.041 H 
ATOM     51  H   IDU d1218      25.132 -10.300  -5.728  0.00  0.00     0.133 H 
ATOM     52  H   IDU d1218      24.633  -7.034  -7.227  0.00  0.00     0.100 H 
ATOM     53  H   IDU d1218      24.647 -10.567  -8.304  0.00  0.00     0.097 H 
ATOM     54  H   IDU d1218      26.700  -9.377  -9.356  0.00  0.00     0.087 H 
ATOM     55  H   IDU d1218      24.088  -8.219  -9.083  0.00  0.00     0.210 HD
ENDROOT
TORSDOF 16
ENDMDL
