MODEL 1
REMARK VINA RESULT:     -15.0      0.000      0.000
REMARK  0 active torsions:
REMARK  status: ('A' for Active; 'I' for Inactive)
REMARK       I    between atoms: N_1  and  C2_65 
REMARK       I    between atoms: N_1  and  S1_100 
REMARK       I    between atoms: O2S_4  and  S1_36 
REMARK       I    between atoms: O2S_5  and  S1_100 
REMARK       I    between atoms: C5_7  and  C6_64 
REMARK       I    between atoms: O3_11  and  C3_17 
REMARK       I    between atoms: C1_12  and  O4_28 
REMARK       I    between atoms: C5_13  and  C6_35 
REMARK       I    between atoms: C5_14  and  C6_52 
REMARK       I    between atoms: O2S_16  and  S1_75 
REMARK       I    between atoms: C2_18  and  O2_63 
REMARK       I    between atoms: C5_19  and  C6_22 
REMARK       I    between atoms: O2_20  and  C2_53 
REMARK       I    between atoms: O2_20  and  S_86 
REMARK       I    between atoms: O4_21  and  C1_67 
REMARK       I    between atoms: O4_21  and  C4_48 
REMARK       I    between atoms: O3_26  and  C3_72 
REMARK       I    between atoms: O4_28  and  C4_71 
REMARK       I    between atoms: O3_30  and  C3_94 
REMARK       I    between atoms: N_33  and  C2_82 
REMARK       I    between atoms: N_33  and  S1_75 
REMARK       I    between atoms: C6_35  and  O6_59 
REMARK       I    between atoms: S1_36  and  N_37 
REMARK       I    between atoms: S1_36  and  O1S_89 
REMARK       I    between atoms: S1_36  and  O3S_97 
REMARK       I    between atoms: N_37  and  C2_78 
REMARK       I    between atoms: C3_38  and  O3_81 
REMARK       I    between atoms: O4_39  and  C1_85 
REMARK       I    between atoms: O4_39  and  C4_69 
REMARK       I    between atoms: O3_40  and  C3_47 
REMARK       I    between atoms: O4_41  and  C1_76 
REMARK       I    between atoms: O4_41  and  C4_43 
REMARK       I    between atoms: S2_44  and  O6_80 
REMARK       I    between atoms: S_46  and  O2_57 
REMARK       I    between atoms: O3S_49  and  S1_75 
REMARK       I    between atoms: C1_54  and  O4_96 
REMARK       I    between atoms: O2_57  and  C2_66 
REMARK       I    between atoms: O6_58  and  C6_64 
REMARK       I    between atoms: O6_58  and  S2_101 
REMARK       I    between atoms: O6_59  and  S2_73 
REMARK       I    between atoms: O3_61  and  C3_77 
REMARK       I    between atoms: O2_63  and  S_104 
REMARK       I    between atoms: S1_75  and  O1S_92 
REMARK       I    between atoms: O6_80  and  C6_88 
REMARK       I    between atoms: C5_83  and  C6_88 
REMARK       I    between atoms: O3S_84  and  S1_100 
REMARK       I    between atoms: C5_87  and  C6_103 
REMARK       I    between atoms: O1S_91  and  S1_100 
REMARK       I    between atoms: O4_96  and  C4_99 
ROOT
ATOM      1  N   SGN d 304      21.567  14.893  12.991  0.00  0.00    -0.210 NA
ATOM      2  O2S SGN d 304      20.187  16.704  13.997  0.00  0.00    -0.296 OA
ATOM      3  C5  SGN d 304      18.664  14.020  10.113  0.00  0.00     0.091 C 
ATOM      4  O5S SGN d 304      14.946  13.288   8.590  0.00  0.00    -0.572 OA
ATOM      5  O3  SGN d 304      20.683  12.123  12.647  0.00  0.00    -0.391 OA
ATOM      6  C3  SGN d 304      20.418  13.121  11.679  0.00  0.00     0.083 C 
ATOM      7  O4  SGN d 304      18.863  11.600  10.565  0.00  0.00    -0.348 OA
ATOM      8  O5  SGN d 304      18.803  15.306  10.688  0.00  0.00    -0.349 OA
ATOM      9  C4  SGN d 304      18.986  12.926  11.158  0.00  0.00     0.095 C 
ATOM     10  O4S SGN d 304      14.948  15.419   7.259  0.00  0.00    -0.572 OA
ATOM     11  O6S SGN d 304      14.406  15.378   9.588  0.00  0.00    -0.572 OA
ATOM     12  O6  SGN d 304      16.747  14.882   8.742  0.00  0.00    -0.254 OA
ATOM     13  C6  SGN d 304      17.165  13.902   9.681  0.00  0.00     0.067 C 
ATOM     14  C2  SGN d 304      20.357  14.525  12.343  0.00  0.00     0.081 C 
ATOM     15  O3S SGN d 304      20.457  14.659  15.275  0.00  0.00    -0.296 OA
ATOM     16  C1  SGN d 304      20.126  15.583  11.264  0.00  0.00     0.150 C 
ATOM     17  O1S SGN d 304      22.428  16.020  15.017  0.00  0.00    -0.296 OA
ATOM     18  S1  SGN d 304      21.185  15.681  14.387  0.00  0.00     0.156 S 
ATOM     19  S2  SGN d 304      15.212  14.701   8.475  0.00  0.00     0.251 S 
ATOM     20  H   SGN d 304      22.111  15.507  12.385  0.00  0.00     0.140 HD
ATOM     21  H   SGN d 304      19.422  16.270  13.589  0.00  0.00     0.231 HD
ATOM     22  H   SGN d 304      19.332  13.892   9.288  0.00  0.00     0.090 H 
ATOM     23  H   SGN d 304      21.585  12.232  12.986  0.00  0.00     0.210 HD
ATOM     24  H   SGN d 304      21.179  13.051  10.929  0.00  0.00     0.089 H 
ATOM     25  H   SGN d 304      18.291  13.009  11.966  0.00  0.00     0.091 H 
ATOM     26  H   SGN d 304      16.556  13.995  10.556  0.00  0.00     0.080 H 
ATOM     27  H   SGN d 304      17.060  12.953   9.199  0.00  0.00     0.080 H 
ATOM     28  H   SGN d 304      19.569  14.475  13.065  0.00  0.00     0.076 H 
ATOM     29  H   SGN d 304      19.612  14.417  14.864  0.00  0.00     0.231 HD
ATOM     30  H   SGN d 304      20.099  16.602  11.589  0.00  0.00     0.131 H 
ATOM     31  H   SGN d 304      22.902  16.666  14.470  0.00  0.00     0.231 HD
ATOM     32  O6S SGN d 306      25.805  12.952   5.328  0.00  0.00    -0.572 OA
ATOM     33  O5S SGN d 306      28.043  13.665   5.935  0.00  0.00    -0.572 OA
ATOM     34  O2S SGN d 306      21.676  19.777   3.643  0.00  0.00    -0.296 OA
ATOM     35  C1  SGN d 306      24.732  18.583   4.325  0.00  0.00     0.038 C 
ATOM     36  N   SGN d 306      23.556  20.554   4.992  0.00  0.00    -0.212 NA
ATOM     37  O3  SGN d 306      23.441  19.789   7.604  0.00  0.00    -0.391 OA
ATOM     38  S2  SGN d 306      27.012  13.815   4.907  0.00  0.00     0.251 S 
ATOM     39  C3  SGN d 306      24.363  19.151   6.711  0.00  0.00     0.081 C 
ATOM     40  O3S SGN d 306      21.155  20.478   5.919  0.00  0.00    -0.296 OA
ATOM     41  O4S SGN d 306      27.272  13.568   3.510  0.00  0.00    -0.572 OA
ATOM     42  O5  SGN d 306      24.978  17.207   4.645  0.00  0.00    -0.379 OA
ATOM     43  S1  SGN d 306      21.983  20.832   4.642  0.00  0.00     0.156 S 
ATOM     44  O6  SGN d 306      26.644  15.297   4.979  0.00  0.00    -0.254 OA
ATOM     45  C2  SGN d 306      23.794  19.205   5.334  0.00  0.00     0.054 C 
ATOM     46  C5  SGN d 306      25.531  17.078   5.974  0.00  0.00     0.087 C 
ATOM     47  C6  SGN d 306      25.792  15.584   6.128  0.00  0.00     0.067 C 
ATOM     48  O1S SGN d 306      21.898  22.268   4.336  0.00  0.00    -0.296 OA
ATOM     49  O4  SGN d 306      25.095  17.570   8.452  0.00  0.00    -0.348 OA
ATOM     50  C4  SGN d 306      24.564  17.669   7.055  0.00  0.00     0.095 C 
ATOM     51  H   SGN d 306      21.794  18.904   4.047  0.00  0.00     0.231 HD
ATOM     52  H   SGN d 306      25.659  19.117   4.331  0.00  0.00     0.077 H 
ATOM     53  H   SGN d 306      24.281  18.637   3.356  0.00  0.00     0.077 H 
ATOM     54  H   SGN d 306      24.121  20.791   4.177  0.00  0.00     0.140 HD
ATOM     55  H   SGN d 306      23.342  20.721   7.354  0.00  0.00     0.210 HD
ATOM     56  H   SGN d 306      25.301  19.660   6.790  0.00  0.00     0.089 H 
ATOM     57  H   SGN d 306      21.228  19.527   6.099  0.00  0.00     0.231 HD
ATOM     58  H   SGN d 306      22.881  18.648   5.320  0.00  0.00     0.072 H 
ATOM     59  H   SGN d 306      26.433  17.637   6.113  0.00  0.00     0.090 H 
ATOM     60  H   SGN d 306      26.296  15.372   7.047  0.00  0.00     0.080 H 
ATOM     61  H   SGN d 306      24.900  14.994   6.158  0.00  0.00     0.080 H 
ATOM     62  H   SGN d 306      22.420  22.460   3.540  0.00  0.00     0.231 HD
ATOM     63  H   SGN d 306      23.656  17.105   7.035  0.00  0.00     0.091 H 
ATOM     64  O6S SGN d 302      17.938   3.469  17.365  0.00  0.00    -0.572 OA
ATOM     65  O2S SGN d 302      17.062   5.896   9.459  0.00  0.00    -0.296 OA
ATOM     66  O5S SGN d 302      16.702   5.121  18.642  0.00  0.00    -0.572 OA
ATOM     67  C5  SGN d 302      15.840   6.015  14.676  0.00  0.00     0.091 C 
ATOM     68  O4  SGN d 302      13.573   5.447  15.341  0.00  0.00    -0.348 OA
ATOM     69  O3  SGN d 302      12.817   5.609  12.458  0.00  0.00    -0.391 OA
ATOM     70  C6  SGN d 302      16.321   5.310  15.959  0.00  0.00     0.067 C 
ATOM     71  S1  SGN d 302      15.654   5.931   9.167  0.00  0.00     0.156 S 
ATOM     72  N   SGN d 302      14.847   6.485  10.552  0.00  0.00    -0.210 NA
ATOM     73  O4S SGN d 302      19.192   5.332  18.121  0.00  0.00    -0.572 OA
ATOM     74  O6  SGN d 302      17.523   5.820  16.475  0.00  0.00    -0.254 OA
ATOM     75  O5  SGN d 302      16.872   5.892  13.620  0.00  0.00    -0.349 OA
ATOM     76  C4  SGN d 302      14.524   5.377  14.224  0.00  0.00     0.095 C 
ATOM     77  S2  SGN d 302      17.858   4.957  17.743  0.00  0.00     0.251 S 
ATOM     78  C1  SGN d 302      16.497   6.433  12.285  0.00  0.00     0.150 C 
ATOM     79  C2  SGN d 302      15.131   5.886  11.854  0.00  0.00     0.081 C 
ATOM     80  O1S SGN d 302      15.121   6.753   8.113  0.00  0.00    -0.296 OA
ATOM     81  C3  SGN d 302      14.050   6.139  12.931  0.00  0.00     0.083 C 
ATOM     82  O3S SGN d 302      15.329   4.474   8.881  0.00  0.00    -0.296 OA
ATOM     83  H   SGN d 302      17.374   6.792   9.658  0.00  0.00     0.231 HD
ATOM     84  H   SGN d 302      15.678   7.055  14.868  0.00  0.00     0.090 H 
ATOM     85  H   SGN d 302      12.125   5.759  13.121  0.00  0.00     0.210 HD
ATOM     86  H   SGN d 302      16.463   4.273  15.739  0.00  0.00     0.080 H 
ATOM     87  H   SGN d 302      15.570   5.476  16.703  0.00  0.00     0.080 H 
ATOM     88  H   SGN d 302      13.849   6.358  10.382  0.00  0.00     0.140 HD
ATOM     89  H   SGN d 302      14.621   4.342  13.968  0.00  0.00     0.091 H 
ATOM     90  H   SGN d 302      17.278   6.091  11.639  0.00  0.00     0.131 H 
ATOM     91  H   SGN d 302      15.135   4.820  11.756  0.00  0.00     0.076 H 
ATOM     92  H   SGN d 302      15.328   7.683   8.294  0.00  0.00     0.231 HD
ATOM     93  H   SGN d 302      13.914   7.179  13.142  0.00  0.00     0.089 H 
ATOM     94  H   SGN d 302      15.688   3.917   9.591  0.00  0.00     0.231 HD
ATOM     95  O5  IDS d 303      17.060  10.730  11.981  0.00  0.00    -0.340 OA
ATOM     96  O2S IDS d 303      16.519  11.268   7.650  0.00  0.00    -0.572 OA
ATOM     97  O4  IDS d 303      16.510   7.863  12.148  0.00  0.00    -0.348 OA
ATOM     98  O1S IDS d 303      14.397   9.923   7.679  0.00  0.00    -0.572 OA
ATOM     99  C4  IDS d 303      17.833   8.385  12.014  0.00  0.00     0.103 C 
ATOM    100  S   IDS d 303      15.803  10.025   7.858  0.00  0.00     0.252 S 
ATOM    101  O2  IDS d 303      16.106   9.573   9.391  0.00  0.00    -0.244 OA
ATOM    102  O3  IDS d 303      19.703   8.977  10.655  0.00  0.00    -0.390 OA
ATOM    103  O61 IDS d 303      16.291  10.097  14.591  0.00  0.00    -0.646 OA
ATOM    104  C2  IDS d 303      17.559   9.738   9.721  0.00  0.00     0.134 C 
ATOM    105  C1  IDS d 303      17.570  10.995  10.604  0.00  0.00     0.161 C 
ATOM    106  O3S IDS d 303      16.418   9.017   6.877  0.00  0.00    -0.572 OA
ATOM    107  C3  IDS d 303      18.333   8.558  10.533  0.00  0.00     0.094 C 
ATOM    108  C5  IDS d 303      17.858   9.738  12.739  0.00  0.00     0.152 C 
ATOM    109  O62 IDS d 303      17.890   8.618  14.982  0.00  0.00    -0.646 OA
ATOM    110  C6  IDS d 303      17.293   9.506  14.181  0.00  0.00     0.206 C 
ATOM    111  H   IDS d 303      18.507   7.673  12.441  0.00  0.00     0.092 H 
ATOM    112  H   IDS d 303      20.207   8.301  11.135  0.00  0.00     0.210 HD
ATOM    113  H   IDS d 303      18.090   9.757   8.791  0.00  0.00     0.097 H 
ATOM    114  H   IDS d 303      16.877  11.707  10.206  0.00  0.00     0.133 H 
ATOM    115  H   IDS d 303      18.171   7.644  10.001  0.00  0.00     0.091 H 
ATOM    116  H   IDS d 303      18.852  10.129  12.808  0.00  0.00     0.104 H 
ATOM    117  C1  UAP d 301      12.978   6.620  15.864  0.00  0.00     0.167 C 
ATOM    118  C5  UAP d 301      10.840   7.659  15.976  0.00  0.00     0.147 C 
ATOM    119  O61 UAP d 301       8.790   8.874  15.628  0.00  0.00    -0.642 OA
ATOM    120  C2  UAP d 301      12.925   6.440  17.449  0.00  0.00     0.135 C 
ATOM    121  O62 UAP d 301       9.406   7.512  13.942  0.00  0.00    -0.642 OA
ATOM    122  O3  UAP d 301      13.307   8.828  18.014  0.00  0.00    -0.389 OA
ATOM    123  O5  UAP d 301      11.635   6.754  15.337  0.00  0.00    -0.311 OA
ATOM    124  C6  UAP d 301       9.613   8.064  15.183  0.00  0.00     0.233 C 
ATOM    125  O2  UAP d 301      12.061   5.266  17.864  0.00  0.00    -0.244 OA
ATOM    126  C3  UAP d 301      12.310   7.773  18.048  0.00  0.00     0.086 C 
ATOM    127  O2S UAP d 301      13.933   3.762  17.329  0.00  0.00    -0.572 OA
ATOM    128  C4  UAP d 301      11.067   8.189  17.211  0.00  0.00    -0.034 C 
ATOM    129  O3S UAP d 301      13.738   4.440  19.676  0.00  0.00    -0.572 OA
ATOM    130  O1S UAP d 301      12.027   2.948  18.810  0.00  0.00    -0.572 OA
ATOM    131  S   UAP d 301      12.945   4.010  18.402  0.00  0.00     0.252 S 
ATOM    132  H   UAP d 301      13.534   7.494  15.597  0.00  0.00     0.134 H 
ATOM    133  H   UAP d 301      13.913   6.248  17.814  0.00  0.00     0.097 H 
ATOM    134  H   UAP d 301      14.079   8.561  18.537  0.00  0.00     0.210 HD
ATOM    135  H   UAP d 301      12.013   7.607  19.062  0.00  0.00     0.093 H 
ATOM    136  H   UAP d 301      10.403   8.877  17.597  0.00  0.00     0.085 H 
ATOM    137  C5  IDS d 305      22.502  16.131   8.322  0.00  0.00     0.152 C 
ATOM    138  O2  IDS d 305      23.990  15.936  11.646  0.00  0.00    -0.244 OA
ATOM    139  C6  IDS d 305      21.681  15.122   7.546  0.00  0.00     0.206 C 
ATOM    140  O61 IDS d 305      22.103  13.975   7.353  0.00  0.00    -0.646 OA
ATOM    141  O2S IDS d 305      26.424  16.150  11.928  0.00  0.00    -0.572 OA
ATOM    142  O62 IDS d 305      20.494  15.506   7.053  0.00  0.00    -0.646 OA
ATOM    143  O5  IDS d 305      23.773  15.511   8.738  0.00  0.00    -0.340 OA
ATOM    144  C3  IDS d 305      22.607  17.653  10.407  0.00  0.00     0.094 C 
ATOM    145  O4  IDS d 305      21.289  15.447  10.328  0.00  0.00    -0.348 OA
ATOM    146  O1S IDS d 305      25.048  14.939  13.612  0.00  0.00    -0.572 OA
ATOM    147  C2  IDS d 305      24.045  17.054  10.710  0.00  0.00     0.134 C 
ATOM    148  C1  IDS d 305      24.668  16.492   9.385  0.00  0.00     0.161 C 
ATOM    149  C4  IDS d 305      21.695  16.624   9.576  0.00  0.00     0.103 C 
ATOM    150  O3  IDS d 305      22.826  18.775   9.576  0.00  0.00    -0.390 OA
ATOM    151  S   IDS d 305      25.195  16.046  12.701  0.00  0.00     0.252 S 
ATOM    152  O3S IDS d 305      25.011  17.363  13.485  0.00  0.00    -0.572 OA
ATOM    153  H   IDS d 305      22.713  16.976   7.700  0.00  0.00     0.104 H 
ATOM    154  H   IDS d 305      22.110  17.879  11.328  0.00  0.00     0.091 H 
ATOM    155  H   IDS d 305      24.627  17.848  11.130  0.00  0.00     0.097 H 
ATOM    156  H   IDS d 305      25.562  15.971   9.658  0.00  0.00     0.133 H 
ATOM    157  H   IDS d 305      20.806  17.159   9.315  0.00  0.00     0.092 H 
ATOM    158  H   IDS d 305      23.278  18.493   8.765  0.00  0.00     0.210 HD
ENDROOT
TORSDOF 49
ENDMDL
MODEL 2
REMARK VINA RESULT:     -12.9      2.804      4.053
REMARK  0 active torsions:
REMARK  status: ('A' for Active; 'I' for Inactive)
REMARK       I    between atoms: N_1  and  C2_65 
REMARK       I    between atoms: N_1  and  S1_100 
REMARK       I    between atoms: O2S_4  and  S1_36 
REMARK       I    between atoms: O2S_5  and  S1_100 
REMARK       I    between atoms: C5_7  and  C6_64 
REMARK       I    between atoms: O3_11  and  C3_17 
REMARK       I    between atoms: C1_12  and  O4_28 
REMARK       I    between atoms: C5_13  and  C6_35 
REMARK       I    between atoms: C5_14  and  C6_52 
REMARK       I    between atoms: O2S_16  and  S1_75 
REMARK       I    between atoms: C2_18  and  O2_63 
REMARK       I    between atoms: C5_19  and  C6_22 
REMARK       I    between atoms: O2_20  and  C2_53 
REMARK       I    between atoms: O2_20  and  S_86 
REMARK       I    between atoms: O4_21  and  C1_67 
REMARK       I    between atoms: O4_21  and  C4_48 
REMARK       I    between atoms: O3_26  and  C3_72 
REMARK       I    between atoms: O4_28  and  C4_71 
REMARK       I    between atoms: O3_30  and  C3_94 
REMARK       I    between atoms: N_33  and  C2_82 
REMARK       I    between atoms: N_33  and  S1_75 
REMARK       I    between atoms: C6_35  and  O6_59 
REMARK       I    between atoms: S1_36  and  N_37 
REMARK       I    between atoms: S1_36  and  O1S_89 
REMARK       I    between atoms: S1_36  and  O3S_97 
REMARK       I    between atoms: N_37  and  C2_78 
REMARK       I    between atoms: C3_38  and  O3_81 
REMARK       I    between atoms: O4_39  and  C1_85 
REMARK       I    between atoms: O4_39  and  C4_69 
REMARK       I    between atoms: O3_40  and  C3_47 
REMARK       I    between atoms: O4_41  and  C1_76 
REMARK       I    between atoms: O4_41  and  C4_43 
REMARK       I    between atoms: S2_44  and  O6_80 
REMARK       I    between atoms: S_46  and  O2_57 
REMARK       I    between atoms: O3S_49  and  S1_75 
REMARK       I    between atoms: C1_54  and  O4_96 
REMARK       I    between atoms: O2_57  and  C2_66 
REMARK       I    between atoms: O6_58  and  C6_64 
REMARK       I    between atoms: O6_58  and  S2_101 
REMARK       I    between atoms: O6_59  and  S2_73 
REMARK       I    between atoms: O3_61  and  C3_77 
REMARK       I    between atoms: O2_63  and  S_104 
REMARK       I    between atoms: S1_75  and  O1S_92 
REMARK       I    between atoms: O6_80  and  C6_88 
REMARK       I    between atoms: C5_83  and  C6_88 
REMARK       I    between atoms: O3S_84  and  S1_100 
REMARK       I    between atoms: C5_87  and  C6_103 
REMARK       I    between atoms: O1S_91  and  S1_100 
REMARK       I    between atoms: O4_96  and  C4_99 
ROOT
ATOM      1  N   SGN d 304      21.539  14.796  12.706  0.00  0.00    -0.210 NA
ATOM      2  O2S SGN d 304      20.175  16.703  11.870  0.00  0.00    -0.296 OA
ATOM      3  C5  SGN d 304      19.765  12.112  10.038  0.00  0.00     0.091 C 
ATOM      4  O5S SGN d 304      16.776  10.257   7.964  0.00  0.00    -0.572 OA
ATOM      5  O3  SGN d 304      20.437  12.283  13.728  0.00  0.00    -0.391 OA
ATOM      6  C3  SGN d 304      20.687  12.488  12.350  0.00  0.00     0.083 C 
ATOM      7  O4  SGN d 304      19.429  10.456  11.840  0.00  0.00    -0.348 OA
ATOM      8  O5  SGN d 304      19.878  13.495   9.762  0.00  0.00    -0.349 OA
ATOM      9  C4  SGN d 304      19.526  11.882  11.548  0.00  0.00     0.095 C 
ATOM     10  O4S SGN d 304      17.571  11.183   5.768  0.00  0.00    -0.572 OA
ATOM     11  O6S SGN d 304      16.231  12.467   7.276  0.00  0.00    -0.572 OA
ATOM     12  O6  SGN d 304      18.618  11.805   7.827  0.00  0.00    -0.254 OA
ATOM     13  C6  SGN d 304      18.521  11.613   9.231  0.00  0.00     0.067 C 
ATOM     14  C2  SGN d 304      20.601  13.999  11.996  0.00  0.00     0.081 C 
ATOM     15  O3S SGN d 304      19.663  15.842  14.080  0.00  0.00    -0.296 OA
ATOM     16  C1  SGN d 304      20.933  14.189  10.515  0.00  0.00     0.150 C 
ATOM     17  O1S SGN d 304      21.773  16.979  13.844  0.00  0.00    -0.296 OA
ATOM     18  S1  SGN d 304      20.803  16.212  13.118  0.00  0.00     0.156 S 
ATOM     19  S2  SGN d 304      17.272  11.349   7.164  0.00  0.00     0.251 S 
ATOM     20  H   SGN d 304      22.348  14.986  12.115  0.00  0.00     0.140 HD
ATOM     21  H   SGN d 304      19.552  16.039  11.538  0.00  0.00     0.231 HD
ATOM     22  H   SGN d 304      20.658  11.589   9.765  0.00  0.00     0.090 H 
ATOM     23  H   SGN d 304      21.163  12.661  14.248  0.00  0.00     0.210 HD
ATOM     24  H   SGN d 304      21.647  12.066  12.132  0.00  0.00     0.089 H 
ATOM     25  H   SGN d 304      18.607  12.354  11.826  0.00  0.00     0.091 H 
ATOM     26  H   SGN d 304      17.660  12.142   9.583  0.00  0.00     0.080 H 
ATOM     27  H   SGN d 304      18.457  10.557   9.392  0.00  0.00     0.080 H 
ATOM     28  H   SGN d 304      19.609  14.305  12.253  0.00  0.00     0.076 H 
ATOM     29  H   SGN d 304      18.995  15.322  13.606  0.00  0.00     0.231 HD
ATOM     30  H   SGN d 304      20.942  15.195  10.151  0.00  0.00     0.131 H 
ATOM     31  H   SGN d 304      22.502  17.222  13.252  0.00  0.00     0.231 HD
ATOM     32  O6S SGN d 306      27.904   9.151   9.866  0.00  0.00    -0.572 OA
ATOM     33  O5S SGN d 306      29.855  10.304  10.732  0.00  0.00    -0.572 OA
ATOM     34  O2S SGN d 306      25.715  13.221   3.149  0.00  0.00    -0.296 OA
ATOM     35  C1  SGN d 306      28.110  12.970   5.479  0.00  0.00     0.038 C 
ATOM     36  N   SGN d 306      27.079  14.826   4.382  0.00  0.00    -0.212 NA
ATOM     37  O3  SGN d 306      25.924  15.739   6.674  0.00  0.00    -0.391 OA
ATOM     38  S2  SGN d 306      29.296   9.716   9.515  0.00  0.00     0.251 S 
ATOM     39  C3  SGN d 306      26.999  14.793   6.741  0.00  0.00     0.081 C 
ATOM     40  O3S SGN d 306      24.523  15.071   4.198  0.00  0.00    -0.296 OA
ATOM     41  O4S SGN d 306      29.999   8.721   8.743  0.00  0.00    -0.572 OA
ATOM     42  O5  SGN d 306      28.018  12.080   6.600  0.00  0.00    -0.379 OA
ATOM     43  S1  SGN d 306      25.796  14.686   3.378  0.00  0.00     0.156 S 
ATOM     44  O6  SGN d 306      29.151  10.910   8.571  0.00  0.00    -0.254 OA
ATOM     45  C2  SGN d 306      26.976  13.969   5.500  0.00  0.00     0.054 C 
ATOM     46  C5  SGN d 306      28.032  12.813   7.844  0.00  0.00     0.087 C 
ATOM     47  C6  SGN d 306      27.995  11.732   8.918  0.00  0.00     0.067 C 
ATOM     48  O1S SGN d 306      26.041  15.649   2.294  0.00  0.00    -0.296 OA
ATOM     49  O4  SGN d 306      26.815  14.624   9.192  0.00  0.00    -0.348 OA
ATOM     50  C4  SGN d 306      26.841  13.827   7.923  0.00  0.00     0.095 C 
ATOM     51  H   SGN d 306      25.549  12.770   3.992  0.00  0.00     0.231 HD
ATOM     52  H   SGN d 306      29.042  13.495   5.523  0.00  0.00     0.077 H 
ATOM     53  H   SGN d 306      28.050  12.397   4.577  0.00  0.00     0.077 H 
ATOM     54  H   SGN d 306      27.927  14.592   3.866  0.00  0.00     0.140 HD
ATOM     55  H   SGN d 306      26.060  16.329   5.917  0.00  0.00     0.210 HD
ATOM     56  H   SGN d 306      27.910  15.342   6.856  0.00  0.00     0.089 H 
ATOM     57  H   SGN d 306      24.385  14.421   4.905  0.00  0.00     0.231 HD
ATOM     58  H   SGN d 306      26.057  13.423   5.470  0.00  0.00     0.072 H 
ATOM     59  H   SGN d 306      28.897  13.433   7.960  0.00  0.00     0.090 H 
ATOM     60  H   SGN d 306      28.099  12.153   9.896  0.00  0.00     0.080 H 
ATOM     61  H   SGN d 306      27.075  11.187   8.946  0.00  0.00     0.080 H 
ATOM     62  H   SGN d 306      26.835  15.387   1.802  0.00  0.00     0.231 HD
ATOM     63  H   SGN d 306      25.927  13.272   7.894  0.00  0.00     0.091 H 
ATOM     64  O6S SGN d 302      14.932   7.846  21.123  0.00  0.00    -0.572 OA
ATOM     65  O2S SGN d 302      17.319   5.050  13.663  0.00  0.00    -0.296 OA
ATOM     66  O5S SGN d 302      13.580   9.800  20.629  0.00  0.00    -0.572 OA
ATOM     67  C5  SGN d 302      14.340   8.096  16.916  0.00  0.00     0.091 C 
ATOM     68  O4  SGN d 302      11.928   7.805  16.876  0.00  0.00    -0.348 OA
ATOM     69  O3  SGN d 302      12.288   6.162  14.410  0.00  0.00    -0.391 OA
ATOM     70  C6  SGN d 302      14.219   8.333  18.433  0.00  0.00     0.067 C 
ATOM     71  S1  SGN d 302      16.131   4.766  12.903  0.00  0.00     0.156 S 
ATOM     72  N   SGN d 302      14.972   5.945  13.284  0.00  0.00    -0.210 NA
ATOM     73  O4S SGN d 302      16.092   9.911  21.063  0.00  0.00    -0.572 OA
ATOM     74  O6  SGN d 302      15.217   9.166  18.963  0.00  0.00    -0.254 OA
ATOM     75  O5  SGN d 302      15.651   7.478  16.609  0.00  0.00    -0.349 OA
ATOM     76  C4  SGN d 302      13.194   7.186  16.464  0.00  0.00     0.095 C 
ATOM     77  S2  SGN d 302      14.943   9.254  20.506  0.00  0.00     0.251 S 
ATOM     78  C1  SGN d 302      15.864   7.088  15.188  0.00  0.00     0.150 C 
ATOM     79  C2  SGN d 302      14.679   6.260  14.681  0.00  0.00     0.081 C 
ATOM     80  O1S SGN d 302      16.139   4.751  11.465  0.00  0.00    -0.296 OA
ATOM     81  C3  SGN d 302      13.334   6.988  14.909  0.00  0.00     0.083 C 
ATOM     82  O3S SGN d 302      15.717   3.396  13.418  0.00  0.00    -0.296 OA
ATOM     83  H   SGN d 302      17.668   5.917  13.406  0.00  0.00     0.231 HD
ATOM     84  H   SGN d 302      14.276   9.027  16.392  0.00  0.00     0.090 H 
ATOM     85  H   SGN d 302      11.435   6.603  14.545  0.00  0.00     0.210 HD
ATOM     86  H   SGN d 302      14.274   7.386  18.927  0.00  0.00     0.080 H 
ATOM     87  H   SGN d 302      13.285   8.829  18.595  0.00  0.00     0.080 H 
ATOM     88  H   SGN d 302      14.095   5.643  12.860  0.00  0.00     0.140 HD
ATOM     89  H   SGN d 302      13.222   6.215  16.913  0.00  0.00     0.091 H 
ATOM     90  H   SGN d 302      16.765   6.512  15.211  0.00  0.00     0.131 H 
ATOM     91  H   SGN d 302      14.559   5.347  15.227  0.00  0.00     0.076 H 
ATOM     92  H   SGN d 302      16.403   5.624  11.135  0.00  0.00     0.231 HD
ATOM     93  H   SGN d 302      13.287   7.933  14.409  0.00  0.00     0.089 H 
ATOM     94  H   SGN d 302      15.711   3.403  14.388  0.00  0.00     0.231 HD
ATOM     95  O5  IDS d 303      17.130  10.412  12.693  0.00  0.00    -0.340 OA
ATOM     96  O2S IDS d 303      18.263   8.239   9.041  0.00  0.00    -0.572 OA
ATOM     97  O4  IDS d 303      16.137   8.156  14.266  0.00  0.00    -0.348 OA
ATOM     98  O1S IDS d 303      16.098   6.966   9.045  0.00  0.00    -0.572 OA
ATOM     99  C4  IDS d 303      17.482   8.628  14.363  0.00  0.00     0.103 C 
ATOM    100  S   IDS d 303      17.344   7.293   9.642  0.00  0.00     0.252 S 
ATOM    101  O2  IDS d 303      17.007   7.864  11.129  0.00  0.00    -0.244 OA
ATOM    102  O3  IDS d 303      19.781   8.489  13.737  0.00  0.00    -0.390 OA
ATOM    103  O61 IDS d 303      15.391  11.364  14.662  0.00  0.00    -0.646 OA
ATOM    104  C2  IDS d 303      18.252   8.336  11.816  0.00  0.00     0.134 C 
ATOM    105  C1  IDS d 303      18.132   9.865  11.733  0.00  0.00     0.161 C 
ATOM    106  O3S IDS d 303      18.113   5.969   9.746  0.00  0.00    -0.572 OA
ATOM    107  C3  IDS d 303      18.499   7.945  13.378  0.00  0.00     0.094 C 
ATOM    108  C5  IDS d 303      17.446  10.143  14.115  0.00  0.00     0.152 C 
ATOM    109  O62 IDS d 303      16.506  10.569  16.400  0.00  0.00    -0.646 OA
ATOM    110  C6  IDS d 303      16.374  10.749  15.083  0.00  0.00     0.206 C 
ATOM    111  H   IDS d 303      17.845   8.375  15.337  0.00  0.00     0.092 H 
ATOM    112  H   IDS d 303      19.973   8.280  14.665  0.00  0.00     0.210 HD
ATOM    113  H   IDS d 303      19.077   7.857  11.331  0.00  0.00     0.097 H 
ATOM    114  H   IDS d 303      17.742  10.132  10.773  0.00  0.00     0.133 H 
ATOM    115  H   IDS d 303      18.405   6.882  13.461  0.00  0.00     0.091 H 
ATOM    116  H   IDS d 303      18.395  10.596  14.312  0.00  0.00     0.104 H 
ATOM    117  C1  UAP d 301      11.366   8.995  16.354  0.00  0.00     0.167 C 
ATOM    118  C5  UAP d 301       9.509   9.680  15.032  0.00  0.00     0.147 C 
ATOM    119  O61 UAP d 301       7.924  10.244  13.309  0.00  0.00    -0.642 OA
ATOM    120  C2  UAP d 301      10.722   9.777  17.587  0.00  0.00     0.135 C 
ATOM    121  O62 UAP d 301       8.895   8.221  13.106  0.00  0.00    -0.642 OA
ATOM    122  O3  UAP d 301      11.226  12.064  16.757  0.00  0.00    -0.389 OA
ATOM    123  O5  UAP d 301      10.337   8.657  15.391  0.00  0.00    -0.311 OA
ATOM    124  C6  UAP d 301       8.723   9.416  13.764  0.00  0.00     0.233 C 
ATOM    125  O2  UAP d 301       9.603   8.994  18.242  0.00  0.00    -0.244 OA
ATOM    126  C3  UAP d 301      10.138  11.138  17.019  0.00  0.00     0.086 C 
ATOM    127  O2S UAP d 301      11.296   7.660  19.426  0.00  0.00    -0.572 OA
ATOM    128  C4  UAP d 301       9.354  10.855  15.706  0.00  0.00    -0.034 C 
ATOM    129  O3S UAP d 301      10.376   9.566  20.661  0.00  0.00    -0.572 OA
ATOM    130  O1S UAP d 301       8.888   7.688  20.256  0.00  0.00    -0.572 OA
ATOM    131  S   UAP d 301      10.039   8.391  19.690  0.00  0.00     0.252 S 
ATOM    132  H   UAP d 301      12.103   9.594  15.863  0.00  0.00     0.134 H 
ATOM    133  H   UAP d 301      11.473   9.937  18.332  0.00  0.00     0.097 H 
ATOM    134  H   UAP d 301      11.710  12.235  17.580  0.00  0.00     0.210 HD
ATOM    135  H   UAP d 301       9.476  11.572  17.738  0.00  0.00     0.093 H 
ATOM    136  H   UAP d 301       8.706  11.568  15.338  0.00  0.00     0.085 H 
ATOM    137  C5  IDS d 305      24.258  13.133   8.957  0.00  0.00     0.152 C 
ATOM    138  O2  IDS d 305      24.409  15.083  12.036  0.00  0.00    -0.244 OA
ATOM    139  C6  IDS d 305      23.630  11.785   8.672  0.00  0.00     0.206 C 
ATOM    140  O61 IDS d 305      23.918  10.795   9.353  0.00  0.00    -0.646 OA
ATOM    141  O2S IDS d 305      26.583  15.664  13.030  0.00  0.00    -0.572 OA
ATOM    142  O62 IDS d 305      22.770  11.684   7.647  0.00  0.00    -0.646 OA
ATOM    143  O5  IDS d 305      25.189  13.008  10.094  0.00  0.00    -0.340 OA
ATOM    144  C3  IDS d 305      23.833  15.593   9.627  0.00  0.00     0.094 C 
ATOM    145  O4  IDS d 305      22.320  13.645  10.352  0.00  0.00    -0.348 OA
ATOM    146  O1S IDS d 305      24.532  15.546  14.434  0.00  0.00    -0.572 OA
ATOM    147  C2  IDS d 305      24.961  15.434  10.733  0.00  0.00     0.134 C 
ATOM    148  C1  IDS d 305      25.928  14.266  10.331  0.00  0.00     0.161 C 
ATOM    149  C4  IDS d 305      23.138  14.187   9.279  0.00  0.00     0.103 C 
ATOM    150  O3  IDS d 305      24.500  16.025   8.458  0.00  0.00    -0.390 OA
ATOM    151  S   IDS d 305      25.158  15.912  13.189  0.00  0.00     0.252 S 
ATOM    152  O3S IDS d 305      24.903  17.413  12.926  0.00  0.00    -0.572 OA
ATOM    153  H   IDS d 305      24.801  13.466   8.098  0.00  0.00     0.104 H 
ATOM    154  H   IDS d 305      23.078  16.266   9.977  0.00  0.00     0.091 H 
ATOM    155  H   IDS d 305      25.465  16.376  10.795  0.00  0.00     0.097 H 
ATOM    156  H   IDS d 305      26.576  14.098  11.165  0.00  0.00     0.133 H 
ATOM    157  H   IDS d 305      22.491  14.374   8.447  0.00  0.00     0.092 H 
ATOM    158  H   IDS d 305      25.164  15.367   8.203  0.00  0.00     0.210 HD
ENDROOT
TORSDOF 49
ENDMDL
MODEL 3
REMARK VINA RESULT:     -11.9      4.049     15.234
REMARK  0 active torsions:
REMARK  status: ('A' for Active; 'I' for Inactive)
REMARK       I    between atoms: N_1  and  C2_65 
REMARK       I    between atoms: N_1  and  S1_100 
REMARK       I    between atoms: O2S_4  and  S1_36 
REMARK       I    between atoms: O2S_5  and  S1_100 
REMARK       I    between atoms: C5_7  and  C6_64 
REMARK       I    between atoms: O3_11  and  C3_17 
REMARK       I    between atoms: C1_12  and  O4_28 
REMARK       I    between atoms: C5_13  and  C6_35 
REMARK       I    between atoms: C5_14  and  C6_52 
REMARK       I    between atoms: O2S_16  and  S1_75 
REMARK       I    between atoms: C2_18  and  O2_63 
REMARK       I    between atoms: C5_19  and  C6_22 
REMARK       I    between atoms: O2_20  and  C2_53 
REMARK       I    between atoms: O2_20  and  S_86 
REMARK       I    between atoms: O4_21  and  C1_67 
REMARK       I    between atoms: O4_21  and  C4_48 
REMARK       I    between atoms: O3_26  and  C3_72 
REMARK       I    between atoms: O4_28  and  C4_71 
REMARK       I    between atoms: O3_30  and  C3_94 
REMARK       I    between atoms: N_33  and  C2_82 
REMARK       I    between atoms: N_33  and  S1_75 
REMARK       I    between atoms: C6_35  and  O6_59 
REMARK       I    between atoms: S1_36  and  N_37 
REMARK       I    between atoms: S1_36  and  O1S_89 
REMARK       I    between atoms: S1_36  and  O3S_97 
REMARK       I    between atoms: N_37  and  C2_78 
REMARK       I    between atoms: C3_38  and  O3_81 
REMARK       I    between atoms: O4_39  and  C1_85 
REMARK       I    between atoms: O4_39  and  C4_69 
REMARK       I    between atoms: O3_40  and  C3_47 
REMARK       I    between atoms: O4_41  and  C1_76 
REMARK       I    between atoms: O4_41  and  C4_43 
REMARK       I    between atoms: S2_44  and  O6_80 
REMARK       I    between atoms: S_46  and  O2_57 
REMARK       I    between atoms: O3S_49  and  S1_75 
REMARK       I    between atoms: C1_54  and  O4_96 
REMARK       I    between atoms: O2_57  and  C2_66 
REMARK       I    between atoms: O6_58  and  C6_64 
REMARK       I    between atoms: O6_58  and  S2_101 
REMARK       I    between atoms: O6_59  and  S2_73 
REMARK       I    between atoms: O3_61  and  C3_77 
REMARK       I    between atoms: O2_63  and  S_104 
REMARK       I    between atoms: S1_75  and  O1S_92 
REMARK       I    between atoms: O6_80  and  C6_88 
REMARK       I    between atoms: C5_83  and  C6_88 
REMARK       I    between atoms: O3S_84  and  S1_100 
REMARK       I    between atoms: C5_87  and  C6_103 
REMARK       I    between atoms: O1S_91  and  S1_100 
REMARK       I    between atoms: O4_96  and  C4_99 
ROOT
ATOM      1  N   SGN d 304      23.017   5.771   8.812  0.00  0.00    -0.210 NA
ATOM      2  O2S SGN d 304      22.325   5.438   6.444  0.00  0.00    -0.296 OA
ATOM      3  C5  SGN d 304      19.810   8.337   9.586  0.00  0.00     0.091 C 
ATOM      4  O5S SGN d 304      17.176  11.395   8.966  0.00  0.00    -0.572 OA
ATOM      5  O3  SGN d 304      23.536   8.376  10.042  0.00  0.00    -0.391 OA
ATOM      6  C3  SGN d 304      22.238   7.814   9.994  0.00  0.00     0.083 C 
ATOM      7  O4  SGN d 304      21.303   9.960  10.696  0.00  0.00    -0.348 OA
ATOM      8  O5  SGN d 304      19.752   7.325   8.599  0.00  0.00    -0.349 OA
ATOM      9  C4  SGN d 304      21.235   8.930   9.666  0.00  0.00     0.095 C 
ATOM     10  O4S SGN d 304      15.237   9.820   8.691  0.00  0.00    -0.572 OA
ATOM     11  O6S SGN d 304      16.761  10.280   6.907  0.00  0.00    -0.572 OA
ATOM     12  O6  SGN d 304      17.466   9.003   8.984  0.00  0.00    -0.254 OA
ATOM     13  C6  SGN d 304      18.809   9.446   9.123  0.00  0.00     0.067 C 
ATOM     14  C2  SGN d 304      22.101   6.857   8.778  0.00  0.00     0.081 C 
ATOM     15  O3S SGN d 304      24.316   6.761   6.853  0.00  0.00    -0.296 OA
ATOM     16  C1  SGN d 304      20.708   6.224   8.789  0.00  0.00     0.150 C 
ATOM     17  O1S SGN d 304      24.480   4.411   7.354  0.00  0.00    -0.296 OA
ATOM     18  S1  SGN d 304      23.549   5.499   7.275  0.00  0.00     0.156 S 
ATOM     19  S2  SGN d 304      16.601  10.187   8.427  0.00  0.00     0.251 S 
ATOM     20  H   SGN d 304      22.552   4.937   9.169  0.00  0.00     0.140 HD
ATOM     21  H   SGN d 304      21.834   6.269   6.529  0.00  0.00     0.231 HD
ATOM     22  H   SGN d 304      19.562   7.948  10.552  0.00  0.00     0.090 H 
ATOM     23  H   SGN d 304      24.182   7.683  10.249  0.00  0.00     0.210 HD
ATOM     24  H   SGN d 304      22.067   7.321  10.929  0.00  0.00     0.089 H 
ATOM     25  H   SGN d 304      21.477   9.370   8.722  0.00  0.00     0.091 H 
ATOM     26  H   SGN d 304      19.138   9.821   8.176  0.00  0.00     0.080 H 
ATOM     27  H   SGN d 304      18.805  10.193   9.889  0.00  0.00     0.080 H 
ATOM     28  H   SGN d 304      22.290   7.454   7.911  0.00  0.00     0.076 H 
ATOM     29  H   SGN d 304      23.702   7.509   6.795  0.00  0.00     0.231 HD
ATOM     30  H   SGN d 304      20.498   5.514   8.016  0.00  0.00     0.131 H 
ATOM     31  H   SGN d 304      24.012   3.603   7.619  0.00  0.00     0.231 HD
ATOM     32  O6S SGN d 306      20.094   4.066  17.117  0.00  0.00    -0.572 OA
ATOM     33  O5S SGN d 306      21.325   2.021  17.546  0.00  0.00    -0.572 OA
ATOM     34  O2S SGN d 306      13.843   1.938  12.334  0.00  0.00    -0.296 OA
ATOM     35  C1  SGN d 306      16.358   0.709  14.176  0.00  0.00     0.038 C 
ATOM     36  N   SGN d 306      15.438   0.112  12.053  0.00  0.00    -0.212 NA
ATOM     37  O3  SGN d 306      17.699   0.807  10.702  0.00  0.00    -0.391 OA
ATOM     38  S2  SGN d 306      19.981   2.599  17.579  0.00  0.00     0.251 S 
ATOM     39  C3  SGN d 306      17.744   0.611  12.122  0.00  0.00     0.081 C 
ATOM     40  O3S SGN d 306      15.015   1.845  10.198  0.00  0.00    -0.296 OA
ATOM     41  O4S SGN d 306      19.154   2.565  18.760  0.00  0.00    -0.572 OA
ATOM     42  O5  SGN d 306      17.321   1.542  14.837  0.00  0.00    -0.379 OA
ATOM     43  S1  SGN d 306      14.291   0.987  11.285  0.00  0.00     0.156 S 
ATOM     44  O6  SGN d 306      19.212   1.783  16.541  0.00  0.00    -0.254 OA
ATOM     45  C2  SGN d 306      16.401   0.931  12.681  0.00  0.00     0.054 C 
ATOM     46  C5  SGN d 306      18.653   1.286  14.340  0.00  0.00     0.087 C 
ATOM     47  C6  SGN d 306      19.547   2.191  15.180  0.00  0.00     0.067 C 
ATOM     48  O1S SGN d 306      13.391   0.000  10.669  0.00  0.00    -0.296 OA
ATOM     49  O4  SGN d 306      20.109   1.291  12.230  0.00  0.00    -0.348 OA
ATOM     50  C4  SGN d 306      18.749   1.552  12.800  0.00  0.00     0.095 C 
ATOM     51  H   SGN d 306      14.588   2.498  12.602  0.00  0.00     0.231 HD
ATOM     52  H   SGN d 306      16.579  -0.317  14.385  0.00  0.00     0.077 H 
ATOM     53  H   SGN d 306      15.382   0.958  14.535  0.00  0.00     0.077 H 
ATOM     54  H   SGN d 306      14.989  -0.469  12.761  0.00  0.00     0.140 HD
ATOM     55  H   SGN d 306      17.055   0.195  10.312  0.00  0.00     0.210 HD
ATOM     56  H   SGN d 306      18.036  -0.403  12.302  0.00  0.00     0.089 H 
ATOM     57  H   SGN d 306      15.601   2.487  10.629  0.00  0.00     0.231 HD
ATOM     58  H   SGN d 306      16.192   1.964  12.497  0.00  0.00     0.072 H 
ATOM     59  H   SGN d 306      18.951   0.263  14.436  0.00  0.00     0.090 H 
ATOM     60  H   SGN d 306      20.581   2.018  14.968  0.00  0.00     0.080 H 
ATOM     61  H   SGN d 306      19.395   3.234  14.996  0.00  0.00     0.080 H 
ATOM     62  H   SGN d 306      12.955  -0.518  11.364  0.00  0.00     0.231 HD
ATOM     63  H   SGN d 306      18.540   2.587  12.625  0.00  0.00     0.091 H 
ATOM     64  O6S SGN d 302      29.564  16.644  10.129  0.00  0.00    -0.572 OA
ATOM     65  O2S SGN d 302      22.080  15.303  13.500  0.00  0.00    -0.296 OA
ATOM     66  O5S SGN d 302      29.216  16.332   7.748  0.00  0.00    -0.572 OA
ATOM     67  C5  SGN d 302      25.398  16.185   9.384  0.00  0.00     0.091 C 
ATOM     68  O4  SGN d 302      25.055  18.176   8.035  0.00  0.00    -0.348 OA
ATOM     69  O3  SGN d 302      22.430  18.512   9.417  0.00  0.00    -0.391 OA
ATOM     70  C6  SGN d 302      26.912  16.393   9.187  0.00  0.00     0.067 C 
ATOM     71  S1  SGN d 302      21.162  16.242  12.913  0.00  0.00     0.156 S 
ATOM     72  N   SGN d 302      21.583  16.432  11.280  0.00  0.00    -0.210 NA
ATOM     73  O4S SGN d 302      29.932  14.449   9.315  0.00  0.00    -0.572 OA
ATOM     74  O6  SGN d 302      27.663  15.208   9.226  0.00  0.00    -0.254 OA
ATOM     75  O5  SGN d 302      25.149  15.536  10.693  0.00  0.00    -0.349 OA
ATOM     76  C4  SGN d 302      24.697  17.544   9.312  0.00  0.00     0.095 C 
ATOM     77  S2  SGN d 302      29.163  15.631   9.044  0.00  0.00     0.251 S 
ATOM     78  C1  SGN d 302      23.718  15.372  11.070  0.00  0.00     0.150 C 
ATOM     79  C2  SGN d 302      22.970  16.700  10.907  0.00  0.00     0.081 C 
ATOM     80  O1S SGN d 302      19.747  15.990  12.871  0.00  0.00    -0.296 OA
ATOM     81  C3  SGN d 302      23.154  17.289   9.489  0.00  0.00     0.083 C 
ATOM     82  O3S SGN d 302      21.424  17.513  13.704  0.00  0.00    -0.296 OA
ATOM     83  H   SGN d 302      21.991  14.444  13.059  0.00  0.00     0.231 HD
ATOM     84  H   SGN d 302      25.012  15.549   8.615  0.00  0.00     0.090 H 
ATOM     85  H   SGN d 302      22.534  18.897   8.532  0.00  0.00     0.210 HD
ATOM     86  H   SGN d 302      27.266  17.041   9.962  0.00  0.00     0.080 H 
ATOM     87  H   SGN d 302      27.041  16.810   8.210  0.00  0.00     0.080 H 
ATOM     88  H   SGN d 302      21.027  17.208  10.922  0.00  0.00     0.140 HD
ATOM     89  H   SGN d 302      25.001  18.219  10.085  0.00  0.00     0.091 H 
ATOM     90  H   SGN d 302      23.754  15.065  12.094  0.00  0.00     0.131 H 
ATOM     91  H   SGN d 302      23.362  17.466  11.544  0.00  0.00     0.076 H 
ATOM     92  H   SGN d 302      19.578  15.179  12.367  0.00  0.00     0.231 HD
ATOM     93  H   SGN d 302      22.795  16.636   8.722  0.00  0.00     0.089 H 
ATOM     94  H   SGN d 302      22.378  17.685  13.734  0.00  0.00     0.231 HD
ATOM     95  O5  IDS d 303      21.887  11.868   9.270  0.00  0.00    -0.340 OA
ATOM     96  O2S IDS d 303      18.102  11.749  11.507  0.00  0.00    -0.572 OA
ATOM     97  O4  IDS d 303      22.997  14.325  10.400  0.00  0.00    -0.348 OA
ATOM     98  O1S IDS d 303      17.685  14.186  11.066  0.00  0.00    -0.572 OA
ATOM     99  C4  IDS d 303      23.307  13.032  10.920  0.00  0.00     0.103 C 
ATOM    100  S   IDS d 303      18.456  13.146  11.652  0.00  0.00     0.252 S 
ATOM    101  O2  IDS d 303      19.964  13.302  11.060  0.00  0.00    -0.244 OA
ATOM    102  O3  IDS d 303      22.921  11.280  12.495  0.00  0.00    -0.390 OA
ATOM    103  O61 IDS d 303      23.773  12.920   7.497  0.00  0.00    -0.646 OA
ATOM    104  C2  IDS d 303      20.844  12.187  11.540  0.00  0.00     0.134 C 
ATOM    105  C1  IDS d 303      20.972  11.291  10.297  0.00  0.00     0.161 C 
ATOM    106  O3S IDS d 303      18.448  13.427  13.161  0.00  0.00    -0.572 OA
ATOM    107  C3  IDS d 303      22.349  12.526  12.060  0.00  0.00     0.094 C 
ATOM    108  C5  IDS d 303      23.280  12.053   9.738  0.00  0.00     0.152 C 
ATOM    109  O62 IDS d 303      25.487  12.895   8.896  0.00  0.00    -0.646 OA
ATOM    110  C6  IDS d 303      24.203  12.646   8.619  0.00  0.00     0.206 C 
ATOM    111  H   IDS d 303      24.268  13.092  11.387  0.00  0.00     0.092 H 
ATOM    112  H   IDS d 303      23.824  11.433  12.816  0.00  0.00     0.210 HD
ATOM    113  H   IDS d 303      20.386  11.785  12.420  0.00  0.00     0.097 H 
ATOM    114  H   IDS d 303      20.024  11.245   9.802  0.00  0.00     0.133 H 
ATOM    115  H   IDS d 303      22.266  13.286  12.809  0.00  0.00     0.091 H 
ATOM    116  H   IDS d 303      23.642  11.086  10.019  0.00  0.00     0.104 H 
ATOM    117  C1  UAP d 301      24.654  17.751   6.746  0.00  0.00     0.167 C 
ATOM    118  C5  UAP d 301      23.252  18.478   4.966  0.00  0.00     0.147 C 
ATOM    119  O61 UAP d 301      21.467  19.006   3.437  0.00  0.00    -0.642 OA
ATOM    120  C2  UAP d 301      25.910  17.956   5.784  0.00  0.00     0.135 C 
ATOM    121  O62 UAP d 301      21.078  19.525   5.594  0.00  0.00    -0.642 OA
ATOM    122  O3  UAP d 301      25.482  15.978   4.343  0.00  0.00    -0.389 OA
ATOM    123  O5  UAP d 301      23.546  18.568   6.294  0.00  0.00    -0.311 OA
ATOM    124  C6  UAP d 301      21.881  19.012   4.603  0.00  0.00     0.233 C 
ATOM    125  O2  UAP d 301      26.319  19.412   5.677  0.00  0.00    -0.244 OA
ATOM    126  C3  UAP d 301      25.486  17.431   4.349  0.00  0.00     0.086 C 
ATOM    127  O2S UAP d 301      27.473  19.195   7.838  0.00  0.00    -0.572 OA
ATOM    128  C4  UAP d 301      24.069  17.967   4.001  0.00  0.00    -0.034 C 
ATOM    129  O3S UAP d 301      28.865  18.896   5.844  0.00  0.00    -0.572 OA
ATOM    130  O1S UAP d 301      28.031  21.135   6.285  0.00  0.00    -0.572 OA
ATOM    131  S   UAP d 301      27.702  19.723   6.476  0.00  0.00     0.252 S 
ATOM    132  H   UAP d 301      24.338  16.729   6.751  0.00  0.00     0.134 H 
ATOM    133  H   UAP d 301      26.747  17.422   6.181  0.00  0.00     0.097 H 
ATOM    134  H   UAP d 301      26.369  15.651   4.561  0.00  0.00     0.210 HD
ATOM    135  H   UAP d 301      26.185  17.780   3.618  0.00  0.00     0.093 H 
ATOM    136  H   UAP d 301      23.741  17.937   3.023  0.00  0.00     0.085 H 
ATOM    137  C5  IDS d 305      19.384   4.118  11.688  0.00  0.00     0.152 C 
ATOM    138  O2  IDS d 305      22.712   3.312  10.432  0.00  0.00    -0.244 OA
ATOM    139  C6  IDS d 305      18.838   5.396  12.291  0.00  0.00     0.206 C 
ATOM    140  O61 IDS d 305      19.396   5.929  13.258  0.00  0.00    -0.646 OA
ATOM    141  O2S IDS d 305      24.010   1.484  11.446  0.00  0.00    -0.572 OA
ATOM    142  O62 IDS d 305      17.723   5.925  11.767  0.00  0.00    -0.646 OA
ATOM    143  O5  IDS d 305      20.584   3.699  12.434  0.00  0.00    -0.340 OA
ATOM    144  C3  IDS d 305      20.355   2.995   9.573  0.00  0.00     0.094 C 
ATOM    145  O4  IDS d 305      20.619   5.498  10.096  0.00  0.00    -0.348 OA
ATOM    146  O1S IDS d 305      25.151   3.350  10.258  0.00  0.00    -0.572 OA
ATOM    147  C2  IDS d 305      21.541   2.443  10.472  0.00  0.00     0.134 C 
ATOM    148  C1  IDS d 305      21.081   2.387  11.971  0.00  0.00     0.161 C 
ATOM    149  C4  IDS d 305      19.732   4.348  10.174  0.00  0.00     0.103 C 
ATOM    150  O3  IDS d 305      19.340   2.012   9.631  0.00  0.00    -0.390 OA
ATOM    151  S   IDS d 305      24.047   2.427  10.336  0.00  0.00     0.252 S 
ATOM    152  O3S IDS d 305      23.980   1.619   9.022  0.00  0.00    -0.572 OA
ATOM    153  H   IDS d 305      18.646   3.347  11.754  0.00  0.00     0.104 H 
ATOM    154  H   IDS d 305      20.715   3.197   8.586  0.00  0.00     0.091 H 
ATOM    155  H   IDS d 305      21.794   1.477  10.087  0.00  0.00     0.097 H 
ATOM    156  H   IDS d 305      21.948   2.154  12.553  0.00  0.00     0.133 H 
ATOM    157  H   IDS d 305      18.870   4.569   9.578  0.00  0.00     0.092 H 
ATOM    158  H   IDS d 305      19.066   1.885  10.553  0.00  0.00     0.210 HD
ENDROOT
TORSDOF 49
ENDMDL
MODEL 4
REMARK VINA RESULT:     -11.6      4.291     15.450
REMARK  0 active torsions:
REMARK  status: ('A' for Active; 'I' for Inactive)
REMARK       I    between atoms: N_1  and  C2_65 
REMARK       I    between atoms: N_1  and  S1_100 
REMARK       I    between atoms: O2S_4  and  S1_36 
REMARK       I    between atoms: O2S_5  and  S1_100 
REMARK       I    between atoms: C5_7  and  C6_64 
REMARK       I    between atoms: O3_11  and  C3_17 
REMARK       I    between atoms: C1_12  and  O4_28 
REMARK       I    between atoms: C5_13  and  C6_35 
REMARK       I    between atoms: C5_14  and  C6_52 
REMARK       I    between atoms: O2S_16  and  S1_75 
REMARK       I    between atoms: C2_18  and  O2_63 
REMARK       I    between atoms: C5_19  and  C6_22 
REMARK       I    between atoms: O2_20  and  C2_53 
REMARK       I    between atoms: O2_20  and  S_86 
REMARK       I    between atoms: O4_21  and  C1_67 
REMARK       I    between atoms: O4_21  and  C4_48 
REMARK       I    between atoms: O3_26  and  C3_72 
REMARK       I    between atoms: O4_28  and  C4_71 
REMARK       I    between atoms: O3_30  and  C3_94 
REMARK       I    between atoms: N_33  and  C2_82 
REMARK       I    between atoms: N_33  and  S1_75 
REMARK       I    between atoms: C6_35  and  O6_59 
REMARK       I    between atoms: S1_36  and  N_37 
REMARK       I    between atoms: S1_36  and  O1S_89 
REMARK       I    between atoms: S1_36  and  O3S_97 
REMARK       I    between atoms: N_37  and  C2_78 
REMARK       I    between atoms: C3_38  and  O3_81 
REMARK       I    between atoms: O4_39  and  C1_85 
REMARK       I    between atoms: O4_39  and  C4_69 
REMARK       I    between atoms: O3_40  and  C3_47 
REMARK       I    between atoms: O4_41  and  C1_76 
REMARK       I    between atoms: O4_41  and  C4_43 
REMARK       I    between atoms: S2_44  and  O6_80 
REMARK       I    between atoms: S_46  and  O2_57 
REMARK       I    between atoms: O3S_49  and  S1_75 
REMARK       I    between atoms: C1_54  and  O4_96 
REMARK       I    between atoms: O2_57  and  C2_66 
REMARK       I    between atoms: O6_58  and  C6_64 
REMARK       I    between atoms: O6_58  and  S2_101 
REMARK       I    between atoms: O6_59  and  S2_73 
REMARK       I    between atoms: O3_61  and  C3_77 
REMARK       I    between atoms: O2_63  and  S_104 
REMARK       I    between atoms: S1_75  and  O1S_92 
REMARK       I    between atoms: O6_80  and  C6_88 
REMARK       I    between atoms: C5_83  and  C6_88 
REMARK       I    between atoms: O3S_84  and  S1_100 
REMARK       I    between atoms: C5_87  and  C6_103 
REMARK       I    between atoms: O1S_91  and  S1_100 
REMARK       I    between atoms: O4_96  and  C4_99 
ROOT
ATOM      1  N   SGN d 304      22.929   5.585   7.606  0.00  0.00    -0.210 NA
ATOM      2  O2S SGN d 304      21.885   5.255   5.370  0.00  0.00    -0.296 OA
ATOM      3  C5  SGN d 304      19.919   8.213   8.833  0.00  0.00     0.091 C 
ATOM      4  O5S SGN d 304      17.276  11.316   8.593  0.00  0.00    -0.572 OA
ATOM      5  O3  SGN d 304      23.672   8.186   8.728  0.00  0.00    -0.391 OA
ATOM      6  C3  SGN d 304      22.372   7.647   8.878  0.00  0.00     0.083 C 
ATOM      7  O4  SGN d 304      21.591   9.813   9.697  0.00  0.00    -0.348 OA
ATOM      8  O5  SGN d 304      19.697   7.198   7.873  0.00  0.00    -0.349 OA
ATOM      9  C4  SGN d 304      21.351   8.780   8.696  0.00  0.00     0.095 C 
ATOM     10  O4S SGN d 304      15.291   9.776   8.622  0.00  0.00    -0.572 OA
ATOM     11  O6S SGN d 304      16.539  10.200   6.627  0.00  0.00    -0.572 OA
ATOM     12  O6  SGN d 304      17.524   8.919   8.583  0.00  0.00    -0.254 OA
ATOM     13  C6  SGN d 304      18.880   9.338   8.518  0.00  0.00     0.067 C 
ATOM     14  C2  SGN d 304      22.037   6.687   7.702  0.00  0.00     0.081 C 
ATOM     15  O3S SGN d 304      23.938   6.543   5.469  0.00  0.00    -0.296 OA
ATOM     16  C1  SGN d 304      20.651   6.081   7.925  0.00  0.00     0.150 C 
ATOM     17  O1S SGN d 304      24.133   4.192   5.955  0.00  0.00    -0.296 OA
ATOM     18  S1  SGN d 304      23.220   5.297   6.010  0.00  0.00     0.156 S 
ATOM     19  S2  SGN d 304      16.606  10.116   8.155  0.00  0.00     0.251 S 
ATOM     20  H   SGN d 304      22.508   4.761   8.035  0.00  0.00     0.140 HD
ATOM     21  H   SGN d 304      21.427   6.096   5.523  0.00  0.00     0.231 HD
ATOM     22  H   SGN d 304      19.812   7.833   9.828  0.00  0.00     0.090 H 
ATOM     23  H   SGN d 304      24.329   7.481   8.840  0.00  0.00     0.210 HD
ATOM     24  H   SGN d 304      22.334   7.162   9.831  0.00  0.00     0.089 H 
ATOM     25  H   SGN d 304      21.457   9.212   7.723  0.00  0.00     0.091 H 
ATOM     26  H   SGN d 304      19.071   9.703   7.529  0.00  0.00     0.080 H 
ATOM     27  H   SGN d 304      19.004  10.089   9.270  0.00  0.00     0.080 H 
ATOM     28  H   SGN d 304      22.105   7.277   6.813  0.00  0.00     0.076 H 
ATOM     29  H   SGN d 304      23.335   7.302   5.498  0.00  0.00     0.231 HD
ATOM     30  H   SGN d 304      20.315   5.371   7.198  0.00  0.00     0.131 H 
ATOM     31  H   SGN d 304      23.697   3.395   6.293  0.00  0.00     0.231 HD
ATOM     32  O6S SGN d 306      21.251   3.969  16.267  0.00  0.00    -0.572 OA
ATOM     33  O5S SGN d 306      22.496   1.903  16.521  0.00  0.00    -0.572 OA
ATOM     34  O2S SGN d 306      14.319   1.936  12.486  0.00  0.00    -0.296 OA
ATOM     35  C1  SGN d 306      17.059   0.669  13.940  0.00  0.00     0.038 C 
ATOM     36  N   SGN d 306      15.821   0.080  11.982  0.00  0.00    -0.212 NA
ATOM     37  O3  SGN d 306      17.867   0.728  10.304  0.00  0.00    -0.391 OA
ATOM     38  S2  SGN d 306      21.183   2.506  16.751  0.00  0.00     0.251 S 
ATOM     39  C3  SGN d 306      18.121   0.537  11.702  0.00  0.00     0.081 C 
ATOM     40  O3S SGN d 306      15.156   1.813  10.199  0.00  0.00    -0.296 OA
ATOM     41  O4S SGN d 306      20.541   2.492  18.042  0.00  0.00    -0.572 OA
ATOM     42  O5  SGN d 306      18.124   1.487  14.444  0.00  0.00    -0.379 OA
ATOM     43  S1  SGN d 306      14.588   0.973  11.388  0.00  0.00     0.156 S 
ATOM     44  O6  SGN d 306      20.253   1.700  15.845  0.00  0.00    -0.254 OA
ATOM     45  C2  SGN d 306      16.882   0.884  12.454  0.00  0.00     0.054 C 
ATOM     46  C5  SGN d 306      19.362   1.205  13.755  0.00  0.00     0.087 C 
ATOM     47  C6  SGN d 306      20.388   2.096  14.446  0.00  0.00     0.067 C 
ATOM     48  O1S SGN d 306      13.589   0.000  10.920  0.00  0.00    -0.296 OA
ATOM     49  O4  SGN d 306      20.487   1.174  11.451  0.00  0.00    -0.348 OA
ATOM     50  C4  SGN d 306      19.232   1.462  12.216  0.00  0.00     0.095 C 
ATOM     51  H   SGN d 306      15.106   2.484  12.636  0.00  0.00     0.231 HD
ATOM     52  H   SGN d 306      17.291  -0.360  14.121  0.00  0.00     0.077 H 
ATOM     53  H   SGN d 306      16.152   0.938  14.439  0.00  0.00     0.077 H 
ATOM     54  H   SGN d 306      15.473  -0.489  12.753  0.00  0.00     0.140 HD
ATOM     55  H   SGN d 306      17.161   0.127  10.019  0.00  0.00     0.210 HD
ATOM     56  H   SGN d 306      18.418  -0.482  11.844  0.00  0.00     0.089 H 
ATOM     57  H   SGN d 306      15.811   2.446  10.534  0.00  0.00     0.231 HD
ATOM     58  H   SGN d 306      16.666   1.920  12.296  0.00  0.00     0.072 H 
ATOM     59  H   SGN d 306      19.654   0.176  13.813  0.00  0.00     0.090 H 
ATOM     60  H   SGN d 306      21.375   1.903  14.083  0.00  0.00     0.080 H 
ATOM     61  H   SGN d 306      20.229   3.141  14.280  0.00  0.00     0.080 H 
ATOM     62  H   SGN d 306      13.253  -0.507  11.677  0.00  0.00     0.231 HD
ATOM     63  H   SGN d 306      19.018   2.500  12.068  0.00  0.00     0.091 H 
ATOM     64  O6S SGN d 302      29.789  16.341   7.856  0.00  0.00    -0.572 OA
ATOM     65  O2S SGN d 302      22.871  15.152  12.317  0.00  0.00    -0.296 OA
ATOM     66  O5S SGN d 302      29.084  16.026   5.556  0.00  0.00    -0.572 OA
ATOM     67  C5  SGN d 302      25.552  15.956   7.745  0.00  0.00     0.091 C 
ATOM     68  O4  SGN d 302      25.046  17.947   6.449  0.00  0.00    -0.348 OA
ATOM     69  O3  SGN d 302      22.663  18.337   8.204  0.00  0.00    -0.391 OA
ATOM     70  C6  SGN d 302      27.022  16.136   7.323  0.00  0.00     0.067 C 
ATOM     71  S1  SGN d 302      21.892  16.105  11.866  0.00  0.00     0.156 S 
ATOM     72  N   SGN d 302      22.068  16.281  10.188  0.00  0.00    -0.210 NA
ATOM     73  O4S SGN d 302      29.993  14.137   7.011  0.00  0.00    -0.572 OA
ATOM     74  O6  SGN d 302      27.750  14.937   7.257  0.00  0.00    -0.254 OA
ATOM     75  O5  SGN d 302      25.490  15.317   9.081  0.00  0.00    -0.349 OA
ATOM     76  C4  SGN d 302      24.871  17.327   7.769  0.00  0.00     0.095 C 
ATOM     77  S2  SGN d 302      29.213  15.332   6.850  0.00  0.00     0.251 S 
ATOM     78  C1  SGN d 302      24.129  15.181   9.668  0.00  0.00     0.150 C 
ATOM     79  C2  SGN d 302      23.388  16.521   9.610  0.00  0.00     0.081 C 
ATOM     80  O1S SGN d 302      20.483  15.880  12.038  0.00  0.00    -0.296 OA
ATOM     81  C3  SGN d 302      23.368  17.101   8.177  0.00  0.00     0.083 C 
ATOM     82  O3S SGN d 302      22.292  17.375  12.601  0.00  0.00    -0.296 OA
ATOM     83  H   SGN d 302      22.702  14.293  11.899  0.00  0.00     0.231 HD
ATOM     84  H   SGN d 302      25.044  15.324   7.047  0.00  0.00     0.090 H 
ATOM     85  H   SGN d 302      22.641  18.717   7.312  0.00  0.00     0.210 HD
ATOM     86  H   SGN d 302      27.499  16.780   8.032  0.00  0.00     0.080 H 
ATOM     87  H   SGN d 302      27.012  16.546   6.334  0.00  0.00     0.080 H 
ATOM     88  H   SGN d 302      21.478  17.065   9.911  0.00  0.00     0.140 HD
ATOM     89  H   SGN d 302      25.299  18.000   8.483  0.00  0.00     0.091 H 
ATOM     90  H   SGN d 302      24.312  14.877  10.678  0.00  0.00     0.131 H 
ATOM     91  H   SGN d 302      23.884  17.283  10.176  0.00  0.00     0.076 H 
ATOM     92  H   SGN d 302      20.226  15.070  11.570  0.00  0.00     0.231 HD
ATOM     93  H   SGN d 302      22.887  16.452   7.476  0.00  0.00     0.089 H 
ATOM     94  H   SGN d 302      23.243  17.529  12.487  0.00  0.00     0.231 HD
ATOM     95  O5  IDS d 303      21.987  11.704   8.186  0.00  0.00    -0.340 OA
ATOM     96  O2S IDS d 303      18.579  11.664  10.964  0.00  0.00    -0.572 OA
ATOM     97  O4  IDS d 303      23.297  14.145   9.121  0.00  0.00    -0.348 OA
ATOM     98  O1S IDS d 303      18.143  14.106  10.574  0.00  0.00    -0.572 OA
ATOM     99  C4  IDS d 303      23.659  12.848   9.598  0.00  0.00     0.103 C 
ATOM    100  S   IDS d 303      18.974  13.055  11.045  0.00  0.00     0.252 S 
ATOM    101  O2  IDS d 303      20.379  13.180  10.234  0.00  0.00    -0.244 OA
ATOM    102  O3  IDS d 303      23.482  11.110  11.225  0.00  0.00    -0.390 OA
ATOM    103  O61 IDS d 303      23.605  12.713   6.144  0.00  0.00    -0.646 OA
ATOM    104  C2  IDS d 303      21.301  12.051  10.584  0.00  0.00     0.134 C 
ATOM    105  C1  IDS d 303      21.226  11.148   9.343  0.00  0.00     0.161 C 
ATOM    106  O3S IDS d 303      19.197  13.342  12.536  0.00  0.00    -0.572 OA
ATOM    107  C3  IDS d 303      22.873  12.365  10.872  0.00  0.00     0.094 C 
ATOM    108  C5  IDS d 303      23.438  11.865   8.440  0.00  0.00     0.152 C 
ATOM    109  O62 IDS d 303      25.509  12.662   7.271  0.00  0.00    -0.646 OA
ATOM    110  C6  IDS d 303      24.194  12.436   7.192  0.00  0.00     0.206 C 
ATOM    111  H   IDS d 303      24.680  12.892   9.916  0.00  0.00     0.092 H 
ATOM    112  H   IDS d 303      24.425  11.248  11.406  0.00  0.00     0.210 HD
ATOM    113  H   IDS d 303      20.974  11.661  11.526  0.00  0.00     0.097 H 
ATOM    114  H   IDS d 303      20.215  11.118   8.995  0.00  0.00     0.133 H 
ATOM    115  H   IDS d 303      22.916  13.130  11.619  0.00  0.00     0.091 H 
ATOM    116  H   IDS d 303      23.821  10.893   8.670  0.00  0.00     0.104 H 
ATOM    117  C1  UAP d 301      24.449  17.524   5.237  0.00  0.00     0.167 C 
ATOM    118  C5  UAP d 301      22.810  18.269   3.681  0.00  0.00     0.147 C 
ATOM    119  O61 UAP d 301      20.826  18.824   2.433  0.00  0.00    -0.642 OA
ATOM    120  C2  UAP d 301      25.550  17.702   4.096  0.00  0.00     0.135 C 
ATOM    121  O62 UAP d 301      20.773  19.359   4.620  0.00  0.00    -0.642 OA
ATOM    122  O3  UAP d 301      24.877  15.727   2.749  0.00  0.00    -0.389 OA
ATOM    123  O5  UAP d 301      23.300  18.360   4.950  0.00  0.00    -0.311 OA
ATOM    124  C6  UAP d 301      21.409  18.827   3.524  0.00  0.00     0.233 C 
ATOM    125  O2  UAP d 301      25.964  19.150   3.920  0.00  0.00    -0.244 OA
ATOM    126  C3  UAP d 301      24.908  17.179   2.745  0.00  0.00     0.086 C 
ATOM    127  O2S UAP d 301      27.425  18.921   5.886  0.00  0.00    -0.572 OA
ATOM    128  C4  UAP d 301      23.464  17.740   2.608  0.00  0.00    -0.034 C 
ATOM    129  O3S UAP d 301      28.497  18.587   3.708  0.00  0.00    -0.572 OA
ATOM    130  O1S UAP d 301      27.778  20.843   4.253  0.00  0.00    -0.572 OA
ATOM    131  S   UAP d 301      27.457  19.439   4.501  0.00  0.00     0.252 S 
ATOM    132  H   UAP d 301      24.120  16.508   5.296  0.00  0.00     0.134 H 
ATOM    133  H   UAP d 301      26.428  17.154   4.368  0.00  0.00     0.097 H 
ATOM    134  H   UAP d 301      25.781  15.384   2.835  0.00  0.00     0.210 HD
ATOM    135  H   UAP d 301      25.495  17.513   1.915  0.00  0.00     0.093 H 
ATOM    136  H   UAP d 301      22.993  17.712   1.691  0.00  0.00     0.085 H 
ATOM    137  C5  IDS d 305      19.739   4.012  11.005  0.00  0.00     0.152 C 
ATOM    138  O2  IDS d 305      22.827   3.139   9.271  0.00  0.00    -0.244 OA
ATOM    139  C6  IDS d 305      19.312   5.301  11.674  0.00  0.00     0.206 C 
ATOM    140  O61 IDS d 305      20.017   5.829  12.542  0.00  0.00    -0.646 OA
ATOM    141  O2S IDS d 305      24.229   1.292  10.092  0.00  0.00    -0.572 OA
ATOM    142  O62 IDS d 305      18.140   5.849  11.318  0.00  0.00    -0.646 OA
ATOM    143  O5  IDS d 305      21.030   3.573  11.566  0.00  0.00    -0.340 OA
ATOM    144  C3  IDS d 305      20.362   2.862   8.776  0.00  0.00     0.094 C 
ATOM    145  O4  IDS d 305      20.746   5.361   9.236  0.00  0.00    -0.348 OA
ATOM    146  O1S IDS d 305      25.212   3.132   8.734  0.00  0.00    -0.572 OA
ATOM    147  C2  IDS d 305      21.660   2.292   9.491  0.00  0.00     0.134 C 
ATOM    148  C1  IDS d 305      21.428   2.251  11.042  0.00  0.00     0.161 C 
ATOM    149  C4  IDS d 305      19.860   4.229   9.454  0.00  0.00     0.103 C 
ATOM    150  O3  IDS d 305      19.351   1.898   8.992  0.00  0.00    -0.390 OA
ATOM    151  S   IDS d 305      24.117   2.229   8.983  0.00  0.00     0.252 S 
ATOM    152  O3S IDS d 305      23.840   1.417   7.699  0.00  0.00    -0.572 OA
ATOM    153  H   IDS d 305      19.005   3.254  11.185  0.00  0.00     0.104 H 
ATOM    154  H   IDS d 305      20.574   3.053   7.745  0.00  0.00     0.091 H 
ATOM    155  H   IDS d 305      21.836   1.320   9.079  0.00  0.00     0.097 H 
ATOM    156  H   IDS d 305      22.368   2.004  11.490  0.00  0.00     0.133 H 
ATOM    157  H   IDS d 305      18.923   4.462   8.992  0.00  0.00     0.092 H 
ATOM    158  H   IDS d 305      19.215   1.780   9.945  0.00  0.00     0.210 HD
ENDROOT
TORSDOF 49
ENDMDL
MODEL 5
REMARK VINA RESULT:     -11.4      5.322     12.570
REMARK  0 active torsions:
REMARK  status: ('A' for Active; 'I' for Inactive)
REMARK       I    between atoms: N_1  and  C2_65 
REMARK       I    between atoms: N_1  and  S1_100 
REMARK       I    between atoms: O2S_4  and  S1_36 
REMARK       I    between atoms: O2S_5  and  S1_100 
REMARK       I    between atoms: C5_7  and  C6_64 
REMARK       I    between atoms: O3_11  and  C3_17 
REMARK       I    between atoms: C1_12  and  O4_28 
REMARK       I    between atoms: C5_13  and  C6_35 
REMARK       I    between atoms: C5_14  and  C6_52 
REMARK       I    between atoms: O2S_16  and  S1_75 
REMARK       I    between atoms: C2_18  and  O2_63 
REMARK       I    between atoms: C5_19  and  C6_22 
REMARK       I    between atoms: O2_20  and  C2_53 
REMARK       I    between atoms: O2_20  and  S_86 
REMARK       I    between atoms: O4_21  and  C1_67 
REMARK       I    between atoms: O4_21  and  C4_48 
REMARK       I    between atoms: O3_26  and  C3_72 
REMARK       I    between atoms: O4_28  and  C4_71 
REMARK       I    between atoms: O3_30  and  C3_94 
REMARK       I    between atoms: N_33  and  C2_82 
REMARK       I    between atoms: N_33  and  S1_75 
REMARK       I    between atoms: C6_35  and  O6_59 
REMARK       I    between atoms: S1_36  and  N_37 
REMARK       I    between atoms: S1_36  and  O1S_89 
REMARK       I    between atoms: S1_36  and  O3S_97 
REMARK       I    between atoms: N_37  and  C2_78 
REMARK       I    between atoms: C3_38  and  O3_81 
REMARK       I    between atoms: O4_39  and  C1_85 
REMARK       I    between atoms: O4_39  and  C4_69 
REMARK       I    between atoms: O3_40  and  C3_47 
REMARK       I    between atoms: O4_41  and  C1_76 
REMARK       I    between atoms: O4_41  and  C4_43 
REMARK       I    between atoms: S2_44  and  O6_80 
REMARK       I    between atoms: S_46  and  O2_57 
REMARK       I    between atoms: O3S_49  and  S1_75 
REMARK       I    between atoms: C1_54  and  O4_96 
REMARK       I    between atoms: O2_57  and  C2_66 
REMARK       I    between atoms: O6_58  and  C6_64 
REMARK       I    between atoms: O6_58  and  S2_101 
REMARK       I    between atoms: O6_59  and  S2_73 
REMARK       I    between atoms: O3_61  and  C3_77 
REMARK       I    between atoms: O2_63  and  S_104 
REMARK       I    between atoms: S1_75  and  O1S_92 
REMARK       I    between atoms: O6_80  and  C6_88 
REMARK       I    between atoms: C5_83  and  C6_88 
REMARK       I    between atoms: O3S_84  and  S1_100 
REMARK       I    between atoms: C5_87  and  C6_103 
REMARK       I    between atoms: O1S_91  and  S1_100 
REMARK       I    between atoms: O4_96  and  C4_99 
ROOT
ATOM      1  N   SGN d 304      16.594  10.058  15.762  0.00  0.00    -0.210 NA
ATOM      2  O2S SGN d 304      17.171  11.266  17.861  0.00  0.00    -0.296 OA
ATOM      3  C5  SGN d 304      19.201  12.394  13.478  0.00  0.00     0.091 C 
ATOM      4  O5S SGN d 304      21.042  15.773  12.110  0.00  0.00    -0.572 OA
ATOM      5  O3  SGN d 304      15.601  11.340  13.324  0.00  0.00    -0.391 OA
ATOM      6  C3  SGN d 304      16.985  11.207  13.592  0.00  0.00     0.083 C 
ATOM      7  O4  SGN d 304      17.469  12.740  11.752  0.00  0.00    -0.348 OA
ATOM      8  O5  SGN d 304      19.410  12.148  14.855  0.00  0.00    -0.349 OA
ATOM      9  C4  SGN d 304      17.689  12.506  13.174  0.00  0.00     0.095 C 
ATOM     10  O4S SGN d 304      23.256  15.099  13.089  0.00  0.00    -0.572 OA
ATOM     11  O6S SGN d 304      21.544  16.121  14.408  0.00  0.00    -0.572 OA
ATOM     12  O6  SGN d 304      21.290  13.785  13.450  0.00  0.00    -0.254 OA
ATOM     13  C6  SGN d 304      19.896  13.762  13.176  0.00  0.00     0.067 C 
ATOM     14  C2  SGN d 304      17.242  11.150  15.123  0.00  0.00     0.081 C 
ATOM     15  O3S SGN d 304      14.970  11.652  16.914  0.00  0.00    -0.296 OA
ATOM     16  C1  SGN d 304      18.737  10.949  15.376  0.00  0.00     0.150 C 
ATOM     17  O1S SGN d 304      15.367   9.457  17.823  0.00  0.00    -0.296 OA
ATOM     18  S1  SGN d 304      16.027  10.578  17.219  0.00  0.00     0.156 S 
ATOM     19  S2  SGN d 304      21.830  15.235  13.192  0.00  0.00     0.251 S 
ATOM     20  H   SGN d 304      17.257   9.296  15.901  0.00  0.00     0.140 HD
ATOM     21  H   SGN d 304      17.470  11.993  17.293  0.00  0.00     0.231 HD
ATOM     22  H   SGN d 304      19.598  11.600  12.879  0.00  0.00     0.090 H 
ATOM     23  H   SGN d 304      15.141  10.527  13.583  0.00  0.00     0.210 HD
ATOM     24  H   SGN d 304      17.327  10.330  13.082  0.00  0.00     0.089 H 
ATOM     25  H   SGN d 304      17.289  13.330  13.726  0.00  0.00     0.091 H 
ATOM     26  H   SGN d 304      19.425  14.516  13.772  0.00  0.00     0.080 H 
ATOM     27  H   SGN d 304      19.789  13.934  12.125  0.00  0.00     0.080 H 
ATOM     28  H   SGN d 304      16.864  12.069  15.519  0.00  0.00     0.076 H 
ATOM     29  H   SGN d 304      15.398  12.420  16.504  0.00  0.00     0.231 HD
ATOM     30  H   SGN d 304      19.044  10.858  16.397  0.00  0.00     0.131 H 
ATOM     31  H   SGN d 304      16.020   8.768  18.024  0.00  0.00     0.231 HD
ATOM     32  O6S SGN d 306      20.411   4.717   9.651  0.00  0.00    -0.572 OA
ATOM     33  O5S SGN d 306      19.697   2.568  10.519  0.00  0.00    -0.572 OA
ATOM     34  O2S SGN d 306      26.617   7.076  14.384  0.00  0.00    -0.296 OA
ATOM     35  C1  SGN d 306      24.575   4.505  13.712  0.00  0.00     0.038 C 
ATOM     36  N   SGN d 306      25.450   5.417  15.740  0.00  0.00    -0.212 NA
ATOM     37  O3  SGN d 306      23.000   6.221  16.619  0.00  0.00    -0.391 OA
ATOM     38  S2  SGN d 306      20.878   3.311  10.081  0.00  0.00     0.251 S 
ATOM     39  C3  SGN d 306      23.101   5.263  15.557  0.00  0.00     0.081 C 
ATOM     40  O3S SGN d 306      25.345   7.931  16.279  0.00  0.00    -0.296 OA
ATOM     41  O4S SGN d 306      21.775   2.810   9.068  0.00  0.00    -0.572 OA
ATOM     42  O5  SGN d 306      23.502   4.589  12.763  0.00  0.00    -0.379 OA
ATOM     43  S1  SGN d 306      26.316   6.801  15.812  0.00  0.00     0.156 S 
ATOM     44  O6  SGN d 306      21.732   3.409  11.344  0.00  0.00    -0.254 OA
ATOM     45  C2  SGN d 306      24.377   5.507  14.827  0.00  0.00     0.054 C 
ATOM     46  C5  SGN d 306      22.228   4.364  13.405  0.00  0.00     0.087 C 
ATOM     47  C6  SGN d 306      21.218   4.419  12.264  0.00  0.00     0.067 C 
ATOM     48  O1S SGN d 306      27.366   6.555  16.813  0.00  0.00    -0.296 OA
ATOM     49  O4  SGN d 306      20.658   5.219  15.244  0.00  0.00    -0.348 OA
ATOM     50  C4  SGN d 306      21.965   5.413  14.537  0.00  0.00     0.095 C 
ATOM     51  H   SGN d 306      25.788   7.208  13.898  0.00  0.00     0.231 HD
ATOM     52  H   SGN d 306      24.602   3.519  14.126  0.00  0.00     0.077 H 
ATOM     53  H   SGN d 306      25.496   4.722  13.211  0.00  0.00     0.077 H 
ATOM     54  H   SGN d 306      26.066   4.658  15.450  0.00  0.00     0.140 HD
ATOM     55  H   SGN d 306      23.733   6.093  17.240  0.00  0.00     0.210 HD
ATOM     56  H   SGN d 306      23.055   4.286  15.993  0.00  0.00     0.089 H 
ATOM     57  H   SGN d 306      24.664   8.073  15.603  0.00  0.00     0.231 HD
ATOM     58  H   SGN d 306      24.339   6.482  14.389  0.00  0.00     0.072 H 
ATOM     59  H   SGN d 306      22.171   3.425  13.916  0.00  0.00     0.090 H 
ATOM     60  H   SGN d 306      20.235   4.169  12.604  0.00  0.00     0.080 H 
ATOM     61  H   SGN d 306      21.122   5.390  11.824  0.00  0.00     0.080 H 
ATOM     62  H   SGN d 306      27.954   5.850  16.498  0.00  0.00     0.231 HD
ATOM     63  H   SGN d 306      21.926   6.384  14.090  0.00  0.00     0.091 H 
ATOM     64  O6S SGN d 302       7.916  16.558   9.034  0.00  0.00    -0.572 OA
ATOM     65  O2S SGN d 302      15.734  15.276   6.502  0.00  0.00    -0.296 OA
ATOM     66  O5S SGN d 302       8.153  17.714  11.155  0.00  0.00    -0.572 OA
ATOM     67  C5  SGN d 302      12.016  17.536   9.632  0.00  0.00     0.091 C 
ATOM     68  O4  SGN d 302      11.812  19.957   9.614  0.00  0.00    -0.348 OA
ATOM     69  O3  SGN d 302      14.390  20.041   8.111  0.00  0.00    -0.391 OA
ATOM     70  C6  SGN d 302      10.483  17.475   9.778  0.00  0.00     0.067 C 
ATOM     71  S1  SGN d 302      16.377  16.560   6.403  0.00  0.00     0.156 S 
ATOM     72  N   SGN d 302      15.808  17.528   7.675  0.00  0.00    -0.210 NA
ATOM     73  O4S SGN d 302       7.985  15.175  10.956  0.00  0.00    -0.572 OA
ATOM     74  O6  SGN d 302      10.018  16.338  10.458  0.00  0.00    -0.254 OA
ATOM     75  O5  SGN d 302      12.495  16.343   8.895  0.00  0.00    -0.349 OA
ATOM     76  C4  SGN d 302      12.392  18.819   8.887  0.00  0.00     0.095 C 
ATOM     77  S2  SGN d 302       8.452  16.443  10.471  0.00  0.00     0.251 S 
ATOM     78  C1  SGN d 302      13.950  16.321   8.581  0.00  0.00     0.150 C 
ATOM     79  C2  SGN d 302      14.373  17.640   7.925  0.00  0.00     0.081 C 
ATOM     80  O1S SGN d 302      17.806  16.697   6.485  0.00  0.00    -0.296 OA
ATOM     81  C3  SGN d 302      13.962  18.861   8.781  0.00  0.00     0.083 C 
ATOM     82  O3S SGN d 302      15.898  17.077   5.056  0.00  0.00    -0.296 OA
ATOM     83  H   SGN d 302      15.978  14.855   7.341  0.00  0.00     0.231 HD
ATOM     84  H   SGN d 302      12.477  17.542  10.597  0.00  0.00     0.090 H 
ATOM     85  H   SGN d 302      14.140  20.819   8.634  0.00  0.00     0.210 HD
ATOM     86  H   SGN d 302      10.052  17.482   8.799  0.00  0.00     0.080 H 
ATOM     87  H   SGN d 302      10.195  18.324  10.363  0.00  0.00     0.080 H 
ATOM     88  H   SGN d 302      16.152  18.472   7.502  0.00  0.00     0.140 HD
ATOM     89  H   SGN d 302      12.003  18.861   7.891  0.00  0.00     0.091 H 
ATOM     90  H   SGN d 302      14.057  15.496   7.908  0.00  0.00     0.131 H 
ATOM     91  H   SGN d 302      13.868  17.811   6.997  0.00  0.00     0.076 H 
ATOM     92  H   SGN d 302      18.113  16.367   7.344  0.00  0.00     0.231 HD
ATOM     93  H   SGN d 302      14.400  18.847   9.757  0.00  0.00     0.089 H 
ATOM     94  H   SGN d 302      14.933  16.985   4.998  0.00  0.00     0.231 HD
ATOM     95  O5  IDS d 303      16.377  14.931  11.905  0.00  0.00    -0.340 OA
ATOM     96  O2S IDS d 303      20.245  14.433   9.872  0.00  0.00    -0.572 OA
ATOM     97  O4  IDS d 303      14.835  16.019   9.672  0.00  0.00    -0.348 OA
ATOM     98  O1S IDS d 303      20.080  16.721   8.849  0.00  0.00    -0.572 OA
ATOM     99  C4  IDS d 303      14.857  14.624   9.984  0.00  0.00     0.103 C 
ATOM    100  S   IDS d 303      19.603  15.391   8.995  0.00  0.00     0.252 S 
ATOM    101  O2  IDS d 303      18.059  15.508   9.498  0.00  0.00    -0.244 OA
ATOM    102  O3  IDS d 303      15.733  12.432   9.634  0.00  0.00    -0.390 OA
ATOM    103  O61 IDS d 303      14.183  16.339  12.909  0.00  0.00    -0.646 OA
ATOM    104  C2  IDS d 303      17.484  14.153   9.781  0.00  0.00     0.134 C 
ATOM    105  C1  IDS d 303      17.469  14.101  11.317  0.00  0.00     0.161 C 
ATOM    106  O3S IDS d 303      19.657  14.776   7.590  0.00  0.00    -0.572 OA
ATOM    107  C3  IDS d 303      15.982  13.799   9.260  0.00  0.00     0.094 C 
ATOM    108  C5  IDS d 303      15.015  14.507  11.506  0.00  0.00     0.152 C 
ATOM    109  O62 IDS d 303      12.622  15.157  11.878  0.00  0.00    -0.646 OA
ATOM    110  C6  IDS d 303      13.906  15.399  12.161  0.00  0.00     0.206 C 
ATOM    111  H   IDS d 303      13.943  14.198   9.627  0.00  0.00     0.092 H 
ATOM    112  H   IDS d 303      14.844  12.174   9.342  0.00  0.00     0.210 HD
ATOM    113  H   IDS d 303      18.081  13.443   9.247  0.00  0.00     0.097 H 
ATOM    114  H   IDS d 303      18.365  14.551  11.690  0.00  0.00     0.133 H 
ATOM    115  H   IDS d 303      15.949  14.008   8.211  0.00  0.00     0.091 H 
ATOM    116  H   IDS d 303      14.897  13.497  11.837  0.00  0.00     0.104 H 
ATOM    117  C1  UAP d 301      12.204  20.425  10.891  0.00  0.00     0.167 C 
ATOM    118  C5  UAP d 301      13.278  22.311  11.866  0.00  0.00     0.147 C 
ATOM    119  O61 UAP d 301      14.788  23.984  12.718  0.00  0.00    -0.642 OA
ATOM    120  C2  UAP d 301      10.868  20.846  11.655  0.00  0.00     0.135 C 
ATOM    121  O62 UAP d 301      15.206  23.283  10.618  0.00  0.00    -0.642 OA
ATOM    122  O3  UAP d 301      11.618  20.162  13.923  0.00  0.00    -0.389 OA
ATOM    123  O5  UAP d 301      13.068  21.578  10.736  0.00  0.00    -0.311 OA
ATOM    124  C6  UAP d 301      14.468  23.247  11.777  0.00  0.00     0.233 C 
ATOM    125  O2  UAP d 301      10.140  21.977  10.958  0.00  0.00    -0.244 OA
ATOM    126  C3  UAP d 301      11.293  21.320  13.107  0.00  0.00     0.086 C 
ATOM    127  O2S UAP d 301       9.221  20.342   9.367  0.00  0.00    -0.572 OA
ATOM    128  C4  UAP d 301      12.527  22.259  13.002  0.00  0.00    -0.034 C 
ATOM    129  O3S UAP d 301       7.790  20.904  11.276  0.00  0.00    -0.572 OA
ATOM    130  O1S UAP d 301       8.138  22.635   9.606  0.00  0.00    -0.572 OA
ATOM    131  S   UAP d 301       8.783  21.473  10.214  0.00  0.00     0.252 S 
ATOM    132  H   UAP d 301      12.737  19.675  11.437  0.00  0.00     0.134 H 
ATOM    133  H   UAP d 301      10.200  20.010  11.680  0.00  0.00     0.097 H 
ATOM    134  H   UAP d 301      10.843  19.581  13.983  0.00  0.00     0.210 HD
ATOM    135  H   UAP d 301      10.484  21.851  13.563  0.00  0.00     0.093 H 
ATOM    136  H   UAP d 301      12.783  22.853  13.806  0.00  0.00     0.085 H 
ATOM    137  C5  IDS d 305      20.699   7.943  14.066  0.00  0.00     0.152 C 
ATOM    138  O2  IDS d 305      17.551   7.256  15.774  0.00  0.00    -0.244 OA
ATOM    139  C6  IDS d 305      20.991   8.751  12.818  0.00  0.00     0.206 C 
ATOM    140  O61 IDS d 305      20.400   8.514  11.757  0.00  0.00    -0.646 OA
ATOM    141  O2S IDS d 305      16.766   4.941  16.041  0.00  0.00    -0.572 OA
ATOM    142  O62 IDS d 305      21.921   9.715  12.883  0.00  0.00    -0.646 OA
ATOM    143  O5  IDS d 305      19.678   6.925  13.762  0.00  0.00    -0.340 OA
ATOM    144  C3  IDS d 305      19.852   8.008  16.506  0.00  0.00     0.094 C 
ATOM    145  O4  IDS d 305      19.079   9.659  14.694  0.00  0.00    -0.348 OA
ATOM    146  O1S IDS d 305      15.158   6.840  16.057  0.00  0.00    -0.572 OA
ATOM    147  C2  IDS d 305      18.884   6.801  16.149  0.00  0.00     0.134 C 
ATOM    148  C1  IDS d 305      19.452   6.023  14.910  0.00  0.00     0.161 C 
ATOM    149  C4  IDS d 305      20.202   8.894  15.213  0.00  0.00     0.103 C 
ATOM    150  O3  IDS d 305      21.060   7.415  16.940  0.00  0.00    -0.390 OA
ATOM    151  S   IDS d 305      16.441   6.304  16.435  0.00  0.00     0.252 S 
ATOM    152  O3S IDS d 305      16.591   6.406  17.968  0.00  0.00    -0.572 OA
ATOM    153  H   IDS d 305      21.593   7.454  14.393  0.00  0.00     0.104 H 
ATOM    154  H   IDS d 305      19.386   8.639  17.233  0.00  0.00     0.091 H 
ATOM    155  H   IDS d 305      18.824   6.186  17.023  0.00  0.00     0.097 H 
ATOM    156  H   IDS d 305      18.703   5.319  14.615  0.00  0.00     0.133 H 
ATOM    157  H   IDS d 305      20.948   9.594  15.526  0.00  0.00     0.092 H 
ATOM    158  H   IDS d 305      21.421   6.861  16.231  0.00  0.00     0.210 HD
ENDROOT
TORSDOF 49
ENDMDL
MODEL 6
REMARK VINA RESULT:     -11.3      3.780      4.985
REMARK  0 active torsions:
REMARK  status: ('A' for Active; 'I' for Inactive)
REMARK       I    between atoms: N_1  and  C2_65 
REMARK       I    between atoms: N_1  and  S1_100 
REMARK       I    between atoms: O2S_4  and  S1_36 
REMARK       I    between atoms: O2S_5  and  S1_100 
REMARK       I    between atoms: C5_7  and  C6_64 
REMARK       I    between atoms: O3_11  and  C3_17 
REMARK       I    between atoms: C1_12  and  O4_28 
REMARK       I    between atoms: C5_13  and  C6_35 
REMARK       I    between atoms: C5_14  and  C6_52 
REMARK       I    between atoms: O2S_16  and  S1_75 
REMARK       I    between atoms: C2_18  and  O2_63 
REMARK       I    between atoms: C5_19  and  C6_22 
REMARK       I    between atoms: O2_20  and  C2_53 
REMARK       I    between atoms: O2_20  and  S_86 
REMARK       I    between atoms: O4_21  and  C1_67 
REMARK       I    between atoms: O4_21  and  C4_48 
REMARK       I    between atoms: O3_26  and  C3_72 
REMARK       I    between atoms: O4_28  and  C4_71 
REMARK       I    between atoms: O3_30  and  C3_94 
REMARK       I    between atoms: N_33  and  C2_82 
REMARK       I    between atoms: N_33  and  S1_75 
REMARK       I    between atoms: C6_35  and  O6_59 
REMARK       I    between atoms: S1_36  and  N_37 
REMARK       I    between atoms: S1_36  and  O1S_89 
REMARK       I    between atoms: S1_36  and  O3S_97 
REMARK       I    between atoms: N_37  and  C2_78 
REMARK       I    between atoms: C3_38  and  O3_81 
REMARK       I    between atoms: O4_39  and  C1_85 
REMARK       I    between atoms: O4_39  and  C4_69 
REMARK       I    between atoms: O3_40  and  C3_47 
REMARK       I    between atoms: O4_41  and  C1_76 
REMARK       I    between atoms: O4_41  and  C4_43 
REMARK       I    between atoms: S2_44  and  O6_80 
REMARK       I    between atoms: S_46  and  O2_57 
REMARK       I    between atoms: O3S_49  and  S1_75 
REMARK       I    between atoms: C1_54  and  O4_96 
REMARK       I    between atoms: O2_57  and  C2_66 
REMARK       I    between atoms: O6_58  and  C6_64 
REMARK       I    between atoms: O6_58  and  S2_101 
REMARK       I    between atoms: O6_59  and  S2_73 
REMARK       I    between atoms: O3_61  and  C3_77 
REMARK       I    between atoms: O2_63  and  S_104 
REMARK       I    between atoms: S1_75  and  O1S_92 
REMARK       I    between atoms: O6_80  and  C6_88 
REMARK       I    between atoms: C5_83  and  C6_88 
REMARK       I    between atoms: O3S_84  and  S1_100 
REMARK       I    between atoms: C5_87  and  C6_103 
REMARK       I    between atoms: O1S_91  and  S1_100 
REMARK       I    between atoms: O4_96  and  C4_99 
ROOT
ATOM      1  N   SGN d 304      24.744   9.194  13.997  0.00  0.00    -0.210 NA
ATOM      2  O2S SGN d 304      24.516  10.745  15.931  0.00  0.00    -0.296 OA
ATOM      3  C5  SGN d 304      21.786  11.180  11.813  0.00  0.00     0.091 C 
ATOM      4  O5S SGN d 304      18.217  13.026  11.086  0.00  0.00    -0.572 OA
ATOM      5  O3  SGN d 304      22.546   7.648  12.836  0.00  0.00    -0.391 OA
ATOM      6  C3  SGN d 304      22.830   8.973  12.427  0.00  0.00     0.083 C 
ATOM      7  O4  SGN d 304      20.702   9.039  11.228  0.00  0.00    -0.348 OA
ATOM      8  O5  SGN d 304      22.578  11.832  12.787  0.00  0.00    -0.349 OA
ATOM      9  C4  SGN d 304      21.501   9.720  12.239  0.00  0.00     0.095 C 
ATOM     10  O4S SGN d 304      19.315  15.257  10.727  0.00  0.00    -0.572 OA
ATOM     11  O6S SGN d 304      18.851  14.408  12.914  0.00  0.00    -0.572 OA
ATOM     12  O6  SGN d 304      20.585  13.344  11.397  0.00  0.00    -0.254 OA
ATOM     13  C6  SGN d 304      20.440  11.975  11.750  0.00  0.00     0.067 C 
ATOM     14  C2  SGN d 304      23.514   9.766  13.576  0.00  0.00     0.081 C 
ATOM     15  O3S SGN d 304      23.695   8.480  16.209  0.00  0.00    -0.296 OA
ATOM     16  C1  SGN d 304      23.858  11.172  13.082  0.00  0.00     0.150 C 
ATOM     17  O1S SGN d 304      26.083   8.729  16.024  0.00  0.00    -0.296 OA
ATOM     18  S1  SGN d 304      24.840   9.330  15.637  0.00  0.00     0.156 S 
ATOM     19  S2  SGN d 304      19.178  14.032  11.465  0.00  0.00     0.251 S 
ATOM     20  H   SGN d 304      25.523   9.690  13.564  0.00  0.00     0.140 HD
ATOM     21  H   SGN d 304      23.634  10.954  15.587  0.00  0.00     0.231 HD
ATOM     22  H   SGN d 304      22.282  11.153  10.865  0.00  0.00     0.090 H 
ATOM     23  H   SGN d 304      23.376   7.162  12.960  0.00  0.00     0.210 HD
ATOM     24  H   SGN d 304      23.437   8.914  11.548  0.00  0.00     0.089 H 
ATOM     25  H   SGN d 304      20.957   9.732  13.160  0.00  0.00     0.091 H 
ATOM     26  H   SGN d 304      19.976  11.925  12.713  0.00  0.00     0.080 H 
ATOM     27  H   SGN d 304      19.853  11.521  10.979  0.00  0.00     0.080 H 
ATOM     28  H   SGN d 304      22.821   9.759  14.391  0.00  0.00     0.076 H 
ATOM     29  H   SGN d 304      22.843   8.871  15.957  0.00  0.00     0.231 HD
ATOM     30  H   SGN d 304      24.367  11.811  13.773  0.00  0.00     0.131 H 
ATOM     31  H   SGN d 304      26.819   9.254  15.672  0.00  0.00     0.231 HD
ATOM     32  O6S SGN d 306      27.287   9.279   5.397  0.00  0.00    -0.572 OA
ATOM     33  O5S SGN d 306      29.575   8.518   5.665  0.00  0.00    -0.572 OA
ATOM     34  O2S SGN d 306      27.296  17.143   7.551  0.00  0.00    -0.296 OA
ATOM     35  C1  SGN d 306      29.291  14.519   6.947  0.00  0.00     0.038 C 
ATOM     36  N   SGN d 306      29.317  16.254   8.591  0.00  0.00    -0.212 NA
ATOM     37  O3  SGN d 306      28.844  14.528  10.645  0.00  0.00    -0.391 OA
ATOM     38  S2  SGN d 306      28.763   9.575   5.061  0.00  0.00     0.251 S 
ATOM     39  C3  SGN d 306      29.292  14.028   9.378  0.00  0.00     0.081 C 
ATOM     40  O3S SGN d 306      27.235  16.873   9.974  0.00  0.00    -0.296 OA
ATOM     41  O4S SGN d 306      28.845   9.907   3.660  0.00  0.00    -0.572 OA
ATOM     42  O5  SGN d 306      28.788  13.212   6.640  0.00  0.00    -0.379 OA
ATOM     43  S1  SGN d 306      28.115  17.347   8.773  0.00  0.00     0.156 S 
ATOM     44  O6  SGN d 306      29.220  10.840   5.788  0.00  0.00    -0.254 OA
ATOM     45  C2  SGN d 306      28.822  14.960   8.315  0.00  0.00     0.054 C 
ATOM     46  C5  SGN d 306      29.205  12.251   7.635  0.00  0.00     0.087 C 
ATOM     47  C6  SGN d 306      28.652  10.924   7.130  0.00  0.00     0.067 C 
ATOM     48  O1S SGN d 306      28.787  18.620   9.077  0.00  0.00    -0.296 OA
ATOM     49  O4  SGN d 306      29.110  11.691  10.136  0.00  0.00    -0.348 OA
ATOM     50  C4  SGN d 306      28.696  12.650   9.061  0.00  0.00     0.095 C 
ATOM     51  H   SGN d 306      26.946  16.239   7.544  0.00  0.00     0.231 HD
ATOM     52  H   SGN d 306      30.361  14.497   6.933  0.00  0.00     0.077 H 
ATOM     53  H   SGN d 306      28.925  15.210   6.217  0.00  0.00     0.077 H 
ATOM     54  H   SGN d 306      29.915  16.548   7.820  0.00  0.00     0.140 HD
ATOM     55  H   SGN d 306      29.242  15.398  10.808  0.00  0.00     0.210 HD
ATOM     56  H   SGN d 306      30.358  13.949   9.417  0.00  0.00     0.089 H 
ATOM     57  H   SGN d 306      26.805  16.034   9.747  0.00  0.00     0.231 HD
ATOM     58  H   SGN d 306      27.752  14.962   8.310  0.00  0.00     0.072 H 
ATOM     59  H   SGN d 306      30.267  12.199   7.754  0.00  0.00     0.090 H 
ATOM     60  H   SGN d 306      28.980  10.110   7.742  0.00  0.00     0.080 H 
ATOM     61  H   SGN d 306      27.583  10.870   7.147  0.00  0.00     0.080 H 
ATOM     62  H   SGN d 306      29.325  18.891   8.316  0.00  0.00     0.231 HD
ATOM     63  H   SGN d 306      27.626  12.647   9.048  0.00  0.00     0.091 H 
ATOM     64  O6S SGN d 302      15.741   0.158  14.353  0.00  0.00    -0.572 OA
ATOM     65  O2S SGN d 302      16.187   6.028   8.478  0.00  0.00    -0.296 OA
ATOM     66  O5S SGN d 302      15.557   1.399  16.431  0.00  0.00    -0.572 OA
ATOM     67  C5  SGN d 302      15.251   4.292  13.462  0.00  0.00     0.091 C 
ATOM     68  O4  SGN d 302      13.025   4.595  14.388  0.00  0.00    -0.348 OA
ATOM     69  O3  SGN d 302      12.438   6.385  12.073  0.00  0.00    -0.391 OA
ATOM     70  C6  SGN d 302      15.306   2.947  14.212  0.00  0.00     0.067 C 
ATOM     71  S1  SGN d 302      15.000   6.836   8.577  0.00  0.00     0.156 S 
ATOM     72  N   SGN d 302      14.610   6.993  10.221  0.00  0.00    -0.210 NA
ATOM     73  O4S SGN d 302      17.788   0.655  15.440  0.00  0.00    -0.572 OA
ATOM     74  O6  SGN d 302      16.602   2.547  14.574  0.00  0.00    -0.254 OA
ATOM     75  O5  SGN d 302      16.059   4.207  12.223  0.00  0.00    -0.349 OA
ATOM     76  C4  SGN d 302      13.791   4.617  13.135  0.00  0.00     0.095 C 
ATOM     77  S2  SGN d 302      16.451   1.155  15.285  0.00  0.00     0.251 S 
ATOM     78  C1  SGN d 302      16.008   5.403  11.337  0.00  0.00     0.150 C 
ATOM     79  C2  SGN d 302      14.554   5.810  11.077  0.00  0.00     0.081 C 
ATOM     80  O1S SGN d 302      14.963   8.188   8.089  0.00  0.00    -0.296 OA
ATOM     81  C3  SGN d 302      13.771   6.006  12.396  0.00  0.00     0.083 C 
ATOM     82  O3S SGN d 302      13.962   6.005   7.839  0.00  0.00    -0.296 OA
ATOM     83  H   SGN d 302      16.921   6.477   8.926  0.00  0.00     0.231 HD
ATOM     84  H   SGN d 302      15.655   5.070  14.075  0.00  0.00     0.090 H 
ATOM     85  H   SGN d 302      11.931   6.513  12.890  0.00  0.00     0.210 HD
ATOM     86  H   SGN d 302      14.886   2.192  13.580  0.00  0.00     0.080 H 
ATOM     87  H   SGN d 302      14.758   3.077  15.121  0.00  0.00     0.080 H 
ATOM     88  H   SGN d 302      13.691   7.432  10.264  0.00  0.00     0.140 HD
ATOM     89  H   SGN d 302      13.333   3.901  12.483  0.00  0.00     0.091 H 
ATOM     90  H   SGN d 302      16.492   5.080  10.439  0.00  0.00     0.131 H 
ATOM     91  H   SGN d 302      14.001   5.042  10.576  0.00  0.00     0.076 H 
ATOM     92  H   SGN d 302      15.625   8.719   8.559  0.00  0.00     0.231 HD
ATOM     93  H   SGN d 302      14.197   6.764  13.020  0.00  0.00     0.089 H 
ATOM     94  H   SGN d 302      13.985   5.092   8.166  0.00  0.00     0.231 HD
ATOM     95  O5  IDS d 303      18.721   8.555  12.592  0.00  0.00    -0.340 OA
ATOM     96  O2S IDS d 303      18.500  11.196   9.083  0.00  0.00    -0.572 OA
ATOM     97  O4  IDS d 303      16.762   6.549  11.766  0.00  0.00    -0.348 OA
ATOM     98  O1S IDS d 303      15.990  11.133   9.107  0.00  0.00    -0.572 OA
ATOM     99  C4  IDS d 303      18.162   6.400  11.525  0.00  0.00     0.103 C 
ATOM    100  S   IDS d 303      17.245  10.483   8.961  0.00  0.00     0.252 S 
ATOM    101  O2  IDS d 303      17.281   9.298  10.075  0.00  0.00    -0.244 OA
ATOM    102  O3  IDS d 303      20.055   6.615  10.087  0.00  0.00    -0.390 OA
ATOM    103  O61 IDS d 303      17.758   7.231  14.855  0.00  0.00    -0.646 OA
ATOM    104  C2  IDS d 303      18.612   8.606  10.077  0.00  0.00     0.134 C 
ATOM    105  C1  IDS d 303      19.282   9.154  11.346  0.00  0.00     0.161 C 
ATOM    106  O3S IDS d 303      17.237   9.883   7.549  0.00  0.00    -0.572 OA
ATOM    107  C3  IDS d 303      18.666   6.980  10.153  0.00  0.00     0.094 C 
ATOM    108  C5  IDS d 303      18.893   7.087  12.687  0.00  0.00     0.152 C 
ATOM    109  O62 IDS d 303      18.358   5.192  14.240  0.00  0.00    -0.646 OA
ATOM    110  C6  IDS d 303      18.302   6.509  14.017  0.00  0.00     0.206 C 
ATOM    111  H   IDS d 303      18.371   5.353  11.463  0.00  0.00     0.092 H 
ATOM    112  H   IDS d 303      20.138   5.649  10.129  0.00  0.00     0.210 HD
ATOM    113  H   IDS d 303      19.066   8.803   9.128  0.00  0.00     0.097 H 
ATOM    114  H   IDS d 303      19.057  10.196  11.437  0.00  0.00     0.133 H 
ATOM    115  H   IDS d 303      18.047   6.602   9.366  0.00  0.00     0.091 H 
ATOM    116  H   IDS d 303      19.946   6.896  12.656  0.00  0.00     0.104 H 
ATOM    117  C1  UAP d 301      13.131   5.522  15.453  0.00  0.00     0.167 C 
ATOM    118  C5  UAP d 301      11.847   7.243  16.477  0.00  0.00     0.147 C 
ATOM    119  O61 UAP d 301      10.724   9.268  17.140  0.00  0.00    -0.642 OA
ATOM    120  C2  UAP d 301      13.006   4.683  16.805  0.00  0.00     0.135 C 
ATOM    121  O62 UAP d 301      10.528   8.721  14.964  0.00  0.00    -0.642 OA
ATOM    122  O3  UAP d 301      14.580   6.067  18.138  0.00  0.00    -0.389 OA
ATOM    123  O5  UAP d 301      12.049   6.481  15.365  0.00  0.00    -0.311 OA
ATOM    124  C6  UAP d 301      11.003   8.477  16.230  0.00  0.00     0.233 C 
ATOM    125  O2  UAP d 301      11.661   3.995  16.931  0.00  0.00    -0.244 OA
ATOM    126  C3  UAP d 301      13.179   5.706  18.004  0.00  0.00     0.086 C 
ATOM    127  O2S UAP d 301      12.473   2.236  15.415  0.00  0.00    -0.572 OA
ATOM    128  C4  UAP d 301      12.327   6.976  17.725  0.00  0.00    -0.034 C 
ATOM    129  O3S UAP d 301      12.679   1.768  17.812  0.00  0.00    -0.572 OA
ATOM    130  O1S UAP d 301      10.435   1.813  16.883  0.00  0.00    -0.572 OA
ATOM    131  S   UAP d 301      11.768   2.387  16.707  0.00  0.00     0.252 S 
ATOM    132  H   UAP d 301      14.058   6.055  15.418  0.00  0.00     0.134 H 
ATOM    133  H   UAP d 301      13.753   3.917  16.813  0.00  0.00     0.097 H 
ATOM    134  H   UAP d 301      15.105   5.270  18.311  0.00  0.00     0.210 HD
ATOM    135  H   UAP d 301      12.848   5.252  18.914  0.00  0.00     0.093 H 
ATOM    136  H   UAP d 301      12.121   7.629  18.498  0.00  0.00     0.085 H 
ATOM    137  C5  IDS d 305      26.146  11.846  10.097  0.00  0.00     0.152 C 
ATOM    138  O2  IDS d 305      27.345   9.492  12.613  0.00  0.00    -0.244 OA
ATOM    139  C6  IDS d 305      24.913  11.809   9.218  0.00  0.00     0.206 C 
ATOM    140  O61 IDS d 305      24.675  10.831   8.500  0.00  0.00    -0.646 OA
ATOM    141  O2S IDS d 305      29.537   8.408  12.350  0.00  0.00    -0.572 OA
ATOM    142  O62 IDS d 305      24.095  12.872   9.219  0.00  0.00    -0.646 OA
ATOM    143  O5  IDS d 305      26.913  10.600   9.916  0.00  0.00    -0.340 OA
ATOM    144  C3  IDS d 305      27.045  12.001  12.515  0.00  0.00     0.094 C 
ATOM    145  O4  IDS d 305      24.772  10.963  11.913  0.00  0.00    -0.348 OA
ATOM    146  O1S IDS d 305      27.747   7.347  13.716  0.00  0.00    -0.572 OA
ATOM    147  C2  IDS d 305      27.964  10.746  12.200  0.00  0.00     0.134 C 
ATOM    148  C1  IDS d 305      28.193  10.640  10.652  0.00  0.00     0.161 C 
ATOM    149  C4  IDS d 305      25.724  12.017  11.601  0.00  0.00     0.103 C 
ATOM    150  O3  IDS d 305      27.809  13.136  12.156  0.00  0.00    -0.390 OA
ATOM    151  S   IDS d 305      28.439   8.540  13.298  0.00  0.00     0.252 S 
ATOM    152  O3S IDS d 305      28.975   9.268  14.550  0.00  0.00    -0.572 OA
ATOM    153  H   IDS d 305      26.760  12.677   9.820  0.00  0.00     0.104 H 
ATOM    154  H   IDS d 305      26.746  11.980  13.542  0.00  0.00     0.091 H 
ATOM    155  H   IDS d 305      28.878  10.892  12.738  0.00  0.00     0.097 H 
ATOM    156  H   IDS d 305      28.688   9.707  10.474  0.00  0.00     0.133 H 
ATOM    157  H   IDS d 305      25.241  12.952  11.794  0.00  0.00     0.092 H 
ATOM    158  H   IDS d 305      28.041  13.085  11.216  0.00  0.00     0.210 HD
ENDROOT
TORSDOF 49
ENDMDL
MODEL 7
REMARK VINA RESULT:     -11.2      4.303      5.809
REMARK  0 active torsions:
REMARK  status: ('A' for Active; 'I' for Inactive)
REMARK       I    between atoms: N_1  and  C2_65 
REMARK       I    between atoms: N_1  and  S1_100 
REMARK       I    between atoms: O2S_4  and  S1_36 
REMARK       I    between atoms: O2S_5  and  S1_100 
REMARK       I    between atoms: C5_7  and  C6_64 
REMARK       I    between atoms: O3_11  and  C3_17 
REMARK       I    between atoms: C1_12  and  O4_28 
REMARK       I    between atoms: C5_13  and  C6_35 
REMARK       I    between atoms: C5_14  and  C6_52 
REMARK       I    between atoms: O2S_16  and  S1_75 
REMARK       I    between atoms: C2_18  and  O2_63 
REMARK       I    between atoms: C5_19  and  C6_22 
REMARK       I    between atoms: O2_20  and  C2_53 
REMARK       I    between atoms: O2_20  and  S_86 
REMARK       I    between atoms: O4_21  and  C1_67 
REMARK       I    between atoms: O4_21  and  C4_48 
REMARK       I    between atoms: O3_26  and  C3_72 
REMARK       I    between atoms: O4_28  and  C4_71 
REMARK       I    between atoms: O3_30  and  C3_94 
REMARK       I    between atoms: N_33  and  C2_82 
REMARK       I    between atoms: N_33  and  S1_75 
REMARK       I    between atoms: C6_35  and  O6_59 
REMARK       I    between atoms: S1_36  and  N_37 
REMARK       I    between atoms: S1_36  and  O1S_89 
REMARK       I    between atoms: S1_36  and  O3S_97 
REMARK       I    between atoms: N_37  and  C2_78 
REMARK       I    between atoms: C3_38  and  O3_81 
REMARK       I    between atoms: O4_39  and  C1_85 
REMARK       I    between atoms: O4_39  and  C4_69 
REMARK       I    between atoms: O3_40  and  C3_47 
REMARK       I    between atoms: O4_41  and  C1_76 
REMARK       I    between atoms: O4_41  and  C4_43 
REMARK       I    between atoms: S2_44  and  O6_80 
REMARK       I    between atoms: S_46  and  O2_57 
REMARK       I    between atoms: O3S_49  and  S1_75 
REMARK       I    between atoms: C1_54  and  O4_96 
REMARK       I    between atoms: O2_57  and  C2_66 
REMARK       I    between atoms: O6_58  and  C6_64 
REMARK       I    between atoms: O6_58  and  S2_101 
REMARK       I    between atoms: O6_59  and  S2_73 
REMARK       I    between atoms: O3_61  and  C3_77 
REMARK       I    between atoms: O2_63  and  S_104 
REMARK       I    between atoms: S1_75  and  O1S_92 
REMARK       I    between atoms: O6_80  and  C6_88 
REMARK       I    between atoms: C5_83  and  C6_88 
REMARK       I    between atoms: O3S_84  and  S1_100 
REMARK       I    between atoms: C5_87  and  C6_103 
REMARK       I    between atoms: O1S_91  and  S1_100 
REMARK       I    between atoms: O4_96  and  C4_99 
ROOT
ATOM      1  N   SGN d 304      24.574   8.239  14.576  0.00  0.00    -0.210 NA
ATOM      2  O2S SGN d 304      24.360   9.637  16.625  0.00  0.00    -0.296 OA
ATOM      3  C5  SGN d 304      21.914  10.643  12.428  0.00  0.00     0.091 C 
ATOM      4  O5S SGN d 304      18.552  12.840  11.687  0.00  0.00    -0.572 OA
ATOM      5  O3  SGN d 304      22.329   6.987  13.174  0.00  0.00    -0.391 OA
ATOM      6  C3  SGN d 304      22.741   8.313  12.898  0.00  0.00     0.083 C 
ATOM      7  O4  SGN d 304      20.698   8.659  11.604  0.00  0.00    -0.348 OA
ATOM      8  O5  SGN d 304      22.699  11.142  13.495  0.00  0.00    -0.349 OA
ATOM      9  C4  SGN d 304      21.490   9.183  12.709  0.00  0.00     0.095 C 
ATOM     10  O4S SGN d 304      19.844  14.992  11.582  0.00  0.00    -0.572 OA
ATOM     11  O6S SGN d 304      19.189  14.005  13.660  0.00  0.00    -0.572 OA
ATOM     12  O6  SGN d 304      20.916  12.929  12.144  0.00  0.00    -0.254 OA
ATOM     13  C6  SGN d 304      20.643  11.553  12.368  0.00  0.00     0.067 C 
ATOM     14  C2  SGN d 304      23.419   8.946  14.145  0.00  0.00     0.081 C 
ATOM     15  O3S SGN d 304      23.345   7.434  16.660  0.00  0.00    -0.296 OA
ATOM     16  C1  SGN d 304      23.902  10.354  13.795  0.00  0.00     0.150 C 
ATOM     17  O1S SGN d 304      25.752   7.495  16.619  0.00  0.00    -0.296 OA
ATOM     18  S1  SGN d 304      24.585   8.229  16.224  0.00  0.00     0.156 S 
ATOM     19  S2  SGN d 304      19.567  13.726  12.202  0.00  0.00     0.251 S 
ATOM     20  H   SGN d 304      25.413   8.702  14.228  0.00  0.00     0.140 HD
ATOM     21  H   SGN d 304      23.518   9.947  16.257  0.00  0.00     0.231 HD
ATOM     22  H   SGN d 304      22.461  10.654  11.508  0.00  0.00     0.090 H 
ATOM     23  H   SGN d 304      23.109   6.424  13.296  0.00  0.00     0.210 HD
ATOM     24  H   SGN d 304      23.391   8.276  12.048  0.00  0.00     0.089 H 
ATOM     25  H   SGN d 304      20.897   9.164  13.599  0.00  0.00     0.091 H 
ATOM     26  H   SGN d 304      20.121  11.462  13.298  0.00  0.00     0.080 H 
ATOM     27  H   SGN d 304      20.066  11.216  11.531  0.00  0.00     0.080 H 
ATOM     28  H   SGN d 304      22.683   8.930  14.920  0.00  0.00     0.076 H 
ATOM     29  H   SGN d 304      22.544   7.915  16.401  0.00  0.00     0.231 HD
ATOM     30  H   SGN d 304      24.421  10.888  14.564  0.00  0.00     0.131 H 
ATOM     31  H   SGN d 304      26.547   7.983  16.352  0.00  0.00     0.231 HD
ATOM     32  O6S SGN d 306      27.606   8.827   6.156  0.00  0.00    -0.572 OA
ATOM     33  O5S SGN d 306      29.806   7.855   6.470  0.00  0.00    -0.572 OA
ATOM     34  O2S SGN d 306      28.120  16.454   8.992  0.00  0.00    -0.296 OA
ATOM     35  C1  SGN d 306      29.930  13.731   8.260  0.00  0.00     0.038 C 
ATOM     36  N   SGN d 306      30.000  15.313  10.050  0.00  0.00    -0.212 NA
ATOM     37  O3  SGN d 306      29.273  13.468  11.918  0.00  0.00    -0.391 OA
ATOM     38  S2  SGN d 306      29.118   9.024   5.922  0.00  0.00     0.251 S 
ATOM     39  C3  SGN d 306      29.752  13.040  10.636  0.00  0.00     0.081 C 
ATOM     40  O3S SGN d 306      27.899  15.989  11.375  0.00  0.00    -0.296 OA
ATOM     41  O4S SGN d 306      29.306   9.464   4.562  0.00  0.00    -0.572 OA
ATOM     42  O5  SGN d 306      29.343  12.501   7.814  0.00  0.00    -0.379 OA
ATOM     43  S1  SGN d 306      28.882  16.486  10.266  0.00  0.00     0.156 S 
ATOM     44  O6  SGN d 306      29.632  10.180   6.780  0.00  0.00    -0.254 OA
ATOM     45  C2  SGN d 306      29.420  14.094   9.636  0.00  0.00     0.054 C 
ATOM     46  C5  SGN d 306      29.623  11.429   8.741  0.00  0.00     0.087 C 
ATOM     47  C6  SGN d 306      28.996  10.199   8.094  0.00  0.00     0.067 C 
ATOM     48  O1S SGN d 306      29.634  17.667  10.715  0.00  0.00    -0.296 OA
ATOM     49  O4  SGN d 306      29.340  10.671  11.174  0.00  0.00    -0.348 OA
ATOM     50  C4  SGN d 306      29.067  11.748  10.169  0.00  0.00     0.095 C 
ATOM     51  H   SGN d 306      27.700  15.587   8.887  0.00  0.00     0.231 HD
ATOM     52  H   SGN d 306      30.994  13.619   8.298  0.00  0.00     0.077 H 
ATOM     53  H   SGN d 306      29.663  14.509   7.576  0.00  0.00     0.077 H 
ATOM     54  H   SGN d 306      30.664  15.619   9.339  0.00  0.00     0.140 HD
ATOM     55  H   SGN d 306      29.729  14.284  12.176  0.00  0.00     0.210 HD
ATOM     56  H   SGN d 306      30.805  12.868  10.721  0.00  0.00     0.089 H 
ATOM     57  H   SGN d 306      27.416  15.211  11.054  0.00  0.00     0.231 HD
ATOM     58  H   SGN d 306      28.356  14.186   9.578  0.00  0.00     0.072 H 
ATOM     59  H   SGN d 306      30.669  11.277   8.908  0.00  0.00     0.090 H 
ATOM     60  H   SGN d 306      29.222   9.312   8.647  0.00  0.00     0.080 H 
ATOM     61  H   SGN d 306      27.927  10.236   8.051  0.00  0.00     0.080 H 
ATOM     62  H   SGN d 306      30.235  17.954  10.009  0.00  0.00     0.231 HD
ATOM     63  H   SGN d 306      28.003  11.837  10.101  0.00  0.00     0.091 H 
ATOM     64  O6S SGN d 302      14.871   0.000  13.680  0.00  0.00    -0.572 OA
ATOM     65  O2S SGN d 302      16.122   6.282   8.375  0.00  0.00    -0.296 OA
ATOM     66  O5S SGN d 302      14.667   1.074  15.847  0.00  0.00    -0.572 OA
ATOM     67  C5  SGN d 302      14.765   4.220  13.133  0.00  0.00     0.091 C 
ATOM     68  O4  SGN d 302      12.521   4.633  13.969  0.00  0.00    -0.348 OA
ATOM     69  O3  SGN d 302      12.213   6.653  11.793  0.00  0.00    -0.391 OA
ATOM     70  C6  SGN d 302      14.670   2.817  13.763  0.00  0.00     0.067 C 
ATOM     71  S1  SGN d 302      15.000   7.176   8.485  0.00  0.00     0.156 S 
ATOM     72  N   SGN d 302      14.530   7.227  10.114  0.00  0.00    -0.210 NA
ATOM     73  O4S SGN d 302      16.885   0.230  14.908  0.00  0.00    -0.572 OA
ATOM     74  O6  SGN d 302      15.906   2.280  14.153  0.00  0.00    -0.254 OA
ATOM     75  O5  SGN d 302      15.634   4.172  11.934  0.00  0.00    -0.349 OA
ATOM     76  C4  SGN d 302      13.357   4.694  12.762  0.00  0.00     0.095 C 
ATOM     77  S2  SGN d 302      15.603   0.852  14.731  0.00  0.00     0.251 S 
ATOM     78  C1  SGN d 302      15.729   5.437  11.155  0.00  0.00     0.150 C 
ATOM     79  C2  SGN d 302      14.330   5.986  10.859  0.00  0.00     0.081 C 
ATOM     80  O1S SGN d 302      15.099   8.562   8.116  0.00  0.00    -0.296 OA
ATOM     81  C3  SGN d 302      13.491   6.137  12.149  0.00  0.00     0.083 C 
ATOM     82  O3S SGN d 302      13.943   6.501   7.625  0.00  0.00    -0.296 OA
ATOM     83  H   SGN d 302      16.863   6.627   8.897  0.00  0.00     0.231 HD
ATOM     84  H   SGN d 302      15.194   4.908  13.832  0.00  0.00     0.090 H 
ATOM     85  H   SGN d 302      11.672   6.755  12.592  0.00  0.00     0.210 HD
ATOM     86  H   SGN d 302      14.227   2.157  13.047  0.00  0.00     0.080 H 
ATOM     87  H   SGN d 302      14.082   2.917  14.651  0.00  0.00     0.080 H 
ATOM     88  H   SGN d 302      13.648   7.738  10.150  0.00  0.00     0.140 HD
ATOM     89  H   SGN d 302      12.882   4.077  12.028  0.00  0.00     0.091 H 
ATOM     90  H   SGN d 302      16.237   5.150  10.258  0.00  0.00     0.131 H 
ATOM     91  H   SGN d 302      13.748   5.312  10.265  0.00  0.00     0.076 H 
ATOM     92  H   SGN d 302      15.773   8.994   8.664  0.00  0.00     0.231 HD
ATOM     93  H   SGN d 302      13.940   6.801  12.858  0.00  0.00     0.089 H 
ATOM     94  H   SGN d 302      13.874   5.565   7.871  0.00  0.00     0.231 HD
ATOM     95  O5  IDS d 303      18.610   8.232  12.818  0.00  0.00    -0.340 OA
ATOM     96  O2S IDS d 303      18.803  11.166   9.548  0.00  0.00    -0.572 OA
ATOM     97  O4  IDS d 303      16.547   6.475  11.721  0.00  0.00    -0.348 OA
ATOM     98  O1S IDS d 303      16.298  11.314   9.440  0.00  0.00    -0.572 OA
ATOM     99  C4  IDS d 303      17.942   6.229  11.538  0.00  0.00     0.103 C 
ATOM    100  S   IDS d 303      17.504  10.575   9.301  0.00  0.00     0.252 S 
ATOM    101  O2  IDS d 303      17.381   9.302  10.307  0.00  0.00    -0.244 OA
ATOM    102  O3  IDS d 303      19.926   6.402  10.223  0.00  0.00    -0.390 OA
ATOM    103  O61 IDS d 303      17.415   6.810  14.905  0.00  0.00    -0.646 OA
ATOM    104  C2  IDS d 303      18.649   8.502  10.315  0.00  0.00     0.134 C 
ATOM    105  C1  IDS d 303      19.288   8.883  11.659  0.00  0.00     0.161 C 
ATOM    106  O3S IDS d 303      17.529  10.098   7.843  0.00  0.00    -0.572 OA
ATOM    107  C3  IDS d 303      18.569   6.877  10.250  0.00  0.00     0.094 C 
ATOM    108  C5  IDS d 303      18.658   6.752  12.791  0.00  0.00     0.152 C 
ATOM    109  O62 IDS d 303      17.885   4.786  14.143  0.00  0.00    -0.646 OA
ATOM    110  C6  IDS d 303      17.947   6.117  14.035  0.00  0.00     0.206 C 
ATOM    111  H   IDS d 303      18.070   5.176  11.395  0.00  0.00     0.092 H 
ATOM    112  H   IDS d 303      19.928   5.432  10.184  0.00  0.00     0.210 HD
ATOM    113  H   IDS d 303      19.172   8.738   9.411  0.00  0.00     0.097 H 
ATOM    114  H   IDS d 303      19.142   9.930  11.830  0.00  0.00     0.133 H 
ATOM    115  H   IDS d 303      17.968   6.619   9.402  0.00  0.00     0.091 H 
ATOM    116  H   IDS d 303      19.692   6.476  12.797  0.00  0.00     0.104 H 
ATOM    117  C1  UAP d 301      12.640   5.454  15.115  0.00  0.00     0.167 C 
ATOM    118  C5  UAP d 301      11.440   7.186  16.221  0.00  0.00     0.147 C 
ATOM    119  O61 UAP d 301      10.447   9.237  17.002  0.00  0.00    -0.642 OA
ATOM    120  C2  UAP d 301      12.370   4.519  16.380  0.00  0.00     0.135 C 
ATOM    121  O62 UAP d 301      10.333   8.892  14.779  0.00  0.00    -0.642 OA
ATOM    122  O3  UAP d 301      13.970   5.649  17.907  0.00  0.00    -0.389 OA
ATOM    123  O5  UAP d 301      11.645   6.506  15.057  0.00  0.00    -0.311 OA
ATOM    124  C6  UAP d 301      10.714   8.504  16.041  0.00  0.00     0.233 C 
ATOM    125  O2  UAP d 301      10.970   3.940  16.377  0.00  0.00    -0.244 OA
ATOM    126  C3  UAP d 301      12.556   5.420  17.671  0.00  0.00     0.086 C 
ATOM    127  O2S UAP d 301      11.724   2.251  14.755  0.00  0.00    -0.572 OA
ATOM    128  C4  UAP d 301      11.825   6.777  17.463  0.00  0.00    -0.034 C 
ATOM    129  O3S UAP d 301      11.754   1.568  17.108  0.00  0.00    -0.572 OA
ATOM    130  O1S UAP d 301       9.577   1.881  16.075  0.00  0.00    -0.572 OA
ATOM    131  S   UAP d 301      10.960   2.353  16.017  0.00  0.00     0.252 S 
ATOM    132  H   UAP d 301      13.607   5.908  15.174  0.00  0.00     0.134 H 
ATOM    133  H   UAP d 301      13.052   3.695  16.358  0.00  0.00     0.097 H 
ATOM    134  H   UAP d 301      14.419   4.799  18.036  0.00  0.00     0.210 HD
ATOM    135  H   UAP d 301      12.137   4.921  18.520  0.00  0.00     0.093 H 
ATOM    136  H   UAP d 301      11.628   7.377  18.279  0.00  0.00     0.085 H 
ATOM    137  C5  IDS d 305      26.405  11.079  11.000  0.00  0.00     0.152 C 
ATOM    138  O2  IDS d 305      27.265   8.430  13.356  0.00  0.00    -0.244 OA
ATOM    139  C6  IDS d 305      25.226  11.221  10.060  0.00  0.00     0.206 C 
ATOM    140  O61 IDS d 305      24.953  10.329   9.248  0.00  0.00    -0.646 OA
ATOM    141  O2S IDS d 305      29.375   7.190  13.110  0.00  0.00    -0.572 OA
ATOM    142  O62 IDS d 305      24.497  12.345  10.113  0.00  0.00    -0.646 OA
ATOM    143  O5  IDS d 305      27.079   9.792  10.749  0.00  0.00    -0.340 OA
ATOM    144  C3  IDS d 305      27.173  10.955  13.464  0.00  0.00     0.094 C 
ATOM    145  O4  IDS d 305      24.863  10.167  12.660  0.00  0.00    -0.348 OA
ATOM    146  O1S IDS d 305      27.430   6.175  14.284  0.00  0.00    -0.572 OA
ATOM    147  C2  IDS d 305      28.006   9.657  13.087  0.00  0.00     0.134 C 
ATOM    148  C1  IDS d 305      28.314   9.662  11.549  0.00  0.00     0.161 C 
ATOM    149  C4  IDS d 305      25.913  11.159  12.490  0.00  0.00     0.103 C 
ATOM    150  O3  IDS d 305      28.045  12.047  13.246  0.00  0.00    -0.390 OA
ATOM    151  S   IDS d 305      28.239   7.335  14.009  0.00  0.00     0.252 S 
ATOM    152  O3S IDS d 305      28.758   7.908  15.345  0.00  0.00    -0.572 OA
ATOM    153  H   IDS d 305      27.098  11.875  10.828  0.00  0.00     0.104 H 
ATOM    154  H   IDS d 305      26.815  10.873  14.469  0.00  0.00     0.091 H 
ATOM    155  H   IDS d 305      28.896   9.680  13.681  0.00  0.00     0.097 H 
ATOM    156  H   IDS d 305      28.742   8.709  11.315  0.00  0.00     0.133 H 
ATOM    157  H   IDS d 305      25.496  12.112  12.739  0.00  0.00     0.092 H 
ATOM    158  H   IDS d 305      28.326  12.056  12.318  0.00  0.00     0.210 HD
ENDROOT
TORSDOF 49
ENDMDL
MODEL 8
REMARK VINA RESULT:     -10.6      2.150      2.702
REMARK  0 active torsions:
REMARK  status: ('A' for Active; 'I' for Inactive)
REMARK       I    between atoms: N_1  and  C2_65 
REMARK       I    between atoms: N_1  and  S1_100 
REMARK       I    between atoms: O2S_4  and  S1_36 
REMARK       I    between atoms: O2S_5  and  S1_100 
REMARK       I    between atoms: C5_7  and  C6_64 
REMARK       I    between atoms: O3_11  and  C3_17 
REMARK       I    between atoms: C1_12  and  O4_28 
REMARK       I    between atoms: C5_13  and  C6_35 
REMARK       I    between atoms: C5_14  and  C6_52 
REMARK       I    between atoms: O2S_16  and  S1_75 
REMARK       I    between atoms: C2_18  and  O2_63 
REMARK       I    between atoms: C5_19  and  C6_22 
REMARK       I    between atoms: O2_20  and  C2_53 
REMARK       I    between atoms: O2_20  and  S_86 
REMARK       I    between atoms: O4_21  and  C1_67 
REMARK       I    between atoms: O4_21  and  C4_48 
REMARK       I    between atoms: O3_26  and  C3_72 
REMARK       I    between atoms: O4_28  and  C4_71 
REMARK       I    between atoms: O3_30  and  C3_94 
REMARK       I    between atoms: N_33  and  C2_82 
REMARK       I    between atoms: N_33  and  S1_75 
REMARK       I    between atoms: C6_35  and  O6_59 
REMARK       I    between atoms: S1_36  and  N_37 
REMARK       I    between atoms: S1_36  and  O1S_89 
REMARK       I    between atoms: S1_36  and  O3S_97 
REMARK       I    between atoms: N_37  and  C2_78 
REMARK       I    between atoms: C3_38  and  O3_81 
REMARK       I    between atoms: O4_39  and  C1_85 
REMARK       I    between atoms: O4_39  and  C4_69 
REMARK       I    between atoms: O3_40  and  C3_47 
REMARK       I    between atoms: O4_41  and  C1_76 
REMARK       I    between atoms: O4_41  and  C4_43 
REMARK       I    between atoms: S2_44  and  O6_80 
REMARK       I    between atoms: S_46  and  O2_57 
REMARK       I    between atoms: O3S_49  and  S1_75 
REMARK       I    between atoms: C1_54  and  O4_96 
REMARK       I    between atoms: O2_57  and  C2_66 
REMARK       I    between atoms: O6_58  and  C6_64 
REMARK       I    between atoms: O6_58  and  S2_101 
REMARK       I    between atoms: O6_59  and  S2_73 
REMARK       I    between atoms: O3_61  and  C3_77 
REMARK       I    between atoms: O2_63  and  S_104 
REMARK       I    between atoms: S1_75  and  O1S_92 
REMARK       I    between atoms: O6_80  and  C6_88 
REMARK       I    between atoms: C5_83  and  C6_88 
REMARK       I    between atoms: O3S_84  and  S1_100 
REMARK       I    between atoms: C5_87  and  C6_103 
REMARK       I    between atoms: O1S_91  and  S1_100 
REMARK       I    between atoms: O4_96  and  C4_99 
ROOT
ATOM      1  N   SGN d 304      24.149  12.329  11.728  0.00  0.00    -0.210 NA
ATOM      2  O2S SGN d 304      23.765  14.074  13.461  0.00  0.00    -0.296 OA
ATOM      3  C5  SGN d 304      20.546  13.189   9.792  0.00  0.00     0.091 C 
ATOM      4  O5S SGN d 304      16.565  14.006   9.395  0.00  0.00    -0.572 OA
ATOM      5  O3  SGN d 304      22.294  10.145  11.125  0.00  0.00    -0.391 OA
ATOM      6  C3  SGN d 304      22.182  11.416  10.512  0.00  0.00     0.083 C 
ATOM      7  O4  SGN d 304      19.980  10.788   9.658  0.00  0.00    -0.348 OA
ATOM      8  O5  SGN d 304      21.256  14.156  10.541  0.00  0.00    -0.349 OA
ATOM      9  C4  SGN d 304      20.694  11.792  10.438  0.00  0.00     0.095 C 
ATOM     10  O4S SGN d 304      17.009  16.345   8.591  0.00  0.00    -0.572 OA
ATOM     11  O6S SGN d 304      17.039  15.774  10.914  0.00  0.00    -0.572 OA
ATOM     12  O6  SGN d 304      18.794  14.916   9.295  0.00  0.00    -0.254 OA
ATOM     13  C6  SGN d 304      19.045  13.627   9.836  0.00  0.00     0.067 C 
ATOM     14  C2  SGN d 304      22.773  12.521  11.432  0.00  0.00     0.081 C 
ATOM     15  O3S SGN d 304      23.584  11.755  14.147  0.00  0.00    -0.296 OA
ATOM     16  C1  SGN d 304      22.687  13.871  10.717  0.00  0.00     0.150 C 
ATOM     17  O1S SGN d 304      25.792  12.523  13.566  0.00  0.00    -0.296 OA
ATOM     18  S1  SGN d 304      24.400  12.746  13.302  0.00  0.00     0.156 S 
ATOM     19  S2  SGN d 304      17.276  15.257   9.492  0.00  0.00     0.251 S 
ATOM     20  H   SGN d 304      24.719  12.917  11.120  0.00  0.00     0.140 HD
ATOM     21  H   SGN d 304      22.824  14.012  13.234  0.00  0.00     0.231 HD
ATOM     22  H   SGN d 304      20.918  13.127   8.790  0.00  0.00     0.090 H 
ATOM     23  H   SGN d 304      23.229   9.894  11.179  0.00  0.00     0.210 HD
ATOM     24  H   SGN d 304      22.675  11.360   9.564  0.00  0.00     0.089 H 
ATOM     25  H   SGN d 304      20.278  11.824  11.423  0.00  0.00     0.091 H 
ATOM     26  H   SGN d 304      18.726  13.625  10.858  0.00  0.00     0.080 H 
ATOM     27  H   SGN d 304      18.505  12.930   9.229  0.00  0.00     0.080 H 
ATOM     28  H   SGN d 304      22.206  12.484  12.338  0.00  0.00     0.076 H 
ATOM     29  H   SGN d 304      22.638  11.890  13.982  0.00  0.00     0.231 HD
ATOM     30  H   SGN d 304      23.095  14.714  11.234  0.00  0.00     0.131 H 
ATOM     31  H   SGN d 304      26.323  13.142  13.041  0.00  0.00     0.231 HD
ATOM     32  O6S SGN d 306      25.551  11.622   2.898  0.00  0.00    -0.572 OA
ATOM     33  O5S SGN d 306      27.972  11.470   2.903  0.00  0.00    -0.572 OA
ATOM     34  O2S SGN d 306      23.816  19.511   4.009  0.00  0.00    -0.296 OA
ATOM     35  C1  SGN d 306      26.326  17.364   3.443  0.00  0.00     0.038 C 
ATOM     36  N   SGN d 306      26.104  19.298   4.829  0.00  0.00    -0.212 NA
ATOM     37  O3  SGN d 306      26.332  17.863   7.134  0.00  0.00    -0.391 OA
ATOM     38  S2  SGN d 306      26.853  12.197   2.303  0.00  0.00     0.251 S 
ATOM     39  C3  SGN d 306      26.739  17.285   5.887  0.00  0.00     0.081 C 
ATOM     40  O3S SGN d 306      24.113  19.627   6.426  0.00  0.00    -0.296 OA
ATOM     41  O4S SGN d 306      26.681  12.309   0.876  0.00  0.00    -0.572 OA
ATOM     42  O5  SGN d 306      26.139  15.943   3.385  0.00  0.00    -0.379 OA
ATOM     43  S1  SGN d 306      24.695  20.095   5.054  0.00  0.00     0.156 S 
ATOM     44  O6  SGN d 306      27.057  13.634   2.785  0.00  0.00    -0.254 OA
ATOM     45  C2  SGN d 306      25.925  17.898   4.799  0.00  0.00     0.054 C 
ATOM     46  C5  SGN d 306      26.901  15.281   4.418  0.00  0.00     0.087 C 
ATOM     47  C6  SGN d 306      26.648  13.797   4.177  0.00  0.00     0.067 C 
ATOM     48  O1S SGN d 306      25.052  21.521   5.087  0.00  0.00    -0.296 OA
ATOM     49  O4  SGN d 306      27.248  15.124   6.953  0.00  0.00    -0.348 OA
ATOM     50  C4  SGN d 306      26.480  15.773   5.843  0.00  0.00     0.095 C 
ATOM     51  H   SGN d 306      23.709  18.560   4.171  0.00  0.00     0.231 HD
ATOM     52  H   SGN d 306      27.357  17.591   3.266  0.00  0.00     0.077 H 
ATOM     53  H   SGN d 306      25.713  17.824   2.696  0.00  0.00     0.077 H 
ATOM     54  H   SGN d 306      26.513  19.596   3.944  0.00  0.00     0.140 HD
ATOM     55  H   SGN d 306      26.512  18.816   7.122  0.00  0.00     0.210 HD
ATOM     56  H   SGN d 306      27.788  17.465   5.770  0.00  0.00     0.089 H 
ATOM     57  H   SGN d 306      23.886  18.685   6.378  0.00  0.00     0.231 HD
ATOM     58  H   SGN d 306      24.898  17.648   4.959  0.00  0.00     0.072 H 
ATOM     59  H   SGN d 306      27.948  15.498   4.377  0.00  0.00     0.090 H 
ATOM     60  H   SGN d 306      27.243  13.192   4.828  0.00  0.00     0.080 H 
ATOM     61  H   SGN d 306      25.638  13.498   4.364  0.00  0.00     0.080 H 
ATOM     62  H   SGN d 306      25.410  21.785   4.224  0.00  0.00     0.231 HD
ATOM     63  H   SGN d 306      25.453  15.517   5.995  0.00  0.00     0.091 H 
ATOM     64  O6S SGN d 302      17.846   1.616  14.611  0.00  0.00    -0.572 OA
ATOM     65  O2S SGN d 302      16.087   6.402   8.042  0.00  0.00    -0.296 OA
ATOM     66  O5S SGN d 302      17.599   3.097  16.518  0.00  0.00    -0.572 OA
ATOM     67  C5  SGN d 302      16.219   5.320  13.290  0.00  0.00     0.091 C 
ATOM     68  O4  SGN d 302      14.115   5.240  14.502  0.00  0.00    -0.348 OA
ATOM     69  O3  SGN d 302      12.823   6.446  12.096  0.00  0.00    -0.391 OA
ATOM     70  C6  SGN d 302      16.703   4.165  14.186  0.00  0.00     0.067 C 
ATOM     71  S1  SGN d 302      14.754   6.915   8.219  0.00  0.00     0.156 S 
ATOM     72  N   SGN d 302      14.534   7.239   9.870  0.00  0.00    -0.210 NA
ATOM     73  O4S SGN d 302      19.812   2.746  15.297  0.00  0.00    -0.572 OA
ATOM     74  O6  SGN d 302      18.091   4.143  14.392  0.00  0.00    -0.254 OA
ATOM     75  O5  SGN d 302      16.870   5.229  11.962  0.00  0.00    -0.349 OA
ATOM     76  C4  SGN d 302      14.696   5.238  13.153  0.00  0.00     0.095 C 
ATOM     77  S2  SGN d 302      18.383   2.888  15.288  0.00  0.00     0.251 S 
ATOM     78  C1  SGN d 302      16.412   6.221  10.950  0.00  0.00     0.150 C 
ATOM     79  C2  SGN d 302      14.882   6.230  10.867  0.00  0.00     0.081 C 
ATOM     80  O1S SGN d 302      14.317   8.124   7.575  0.00  0.00    -0.296 OA
ATOM     81  C3  SGN d 302      14.237   6.447  12.256  0.00  0.00     0.083 C 
ATOM     82  O3S SGN d 302      13.881   5.757   7.761  0.00  0.00    -0.296 OA
ATOM     83  H   SGN d 302      16.730   7.076   8.310  0.00  0.00     0.231 HD
ATOM     84  H   SGN d 302      16.481   6.260  13.729  0.00  0.00     0.090 H 
ATOM     85  H   SGN d 302      12.400   6.581  12.959  0.00  0.00     0.210 HD
ATOM     86  H   SGN d 302      16.416   3.241  13.727  0.00  0.00     0.080 H 
ATOM     87  H   SGN d 302      16.250   4.307  15.145  0.00  0.00     0.080 H 
ATOM     88  H   SGN d 302      13.545   7.452   9.999  0.00  0.00     0.140 HD
ATOM     89  H   SGN d 302      14.362   4.340  12.676  0.00  0.00     0.091 H 
ATOM     90  H   SGN d 302      16.852   5.880  10.036  0.00  0.00     0.131 H 
ATOM     91  H   SGN d 302      14.488   5.283  10.559  0.00  0.00     0.076 H 
ATOM     92  H   SGN d 302      14.873   8.863   7.866  0.00  0.00     0.231 HD
ATOM     93  H   SGN d 302      14.527   7.374  12.705  0.00  0.00     0.089 H 
ATOM     94  H   SGN d 302      14.174   4.940   8.194  0.00  0.00     0.231 HD
ATOM     95  O5  IDS d 303      18.364  10.080  11.361  0.00  0.00    -0.340 OA
ATOM     96  O2S IDS d 303      17.065  11.996   7.621  0.00  0.00    -0.572 OA
ATOM     97  O4  IDS d 303      16.895   7.565  11.108  0.00  0.00    -0.348 OA
ATOM     98  O1S IDS d 303      14.674  11.352   8.041  0.00  0.00    -0.572 OA
ATOM     99  C4  IDS d 303      18.248   7.712  10.675  0.00  0.00     0.103 C 
ATOM    100  S   IDS d 303      16.027  10.999   7.786  0.00  0.00     0.252 S 
ATOM    101  O2  IDS d 303      16.495  10.051   9.023  0.00  0.00    -0.244 OA
ATOM    102  O3  IDS d 303      19.841   8.129   8.947  0.00  0.00    -0.390 OA
ATOM    103  O61 IDS d 303      18.043   8.950  13.895  0.00  0.00    -0.646 OA
ATOM    104  C2  IDS d 303      17.948   9.699   8.907  0.00  0.00     0.134 C 
ATOM    105  C1  IDS d 303      18.603  10.586   9.977  0.00  0.00     0.161 C 
ATOM    106  O3S IDS d 303      16.005  10.195   6.480  0.00  0.00    -0.572 OA
ATOM    107  C3  IDS d 303      18.422   8.165   9.179  0.00  0.00     0.094 C 
ATOM    108  C5  IDS d 303      18.913   8.728  11.613  0.00  0.00     0.152 C 
ATOM    109  O62 IDS d 303      19.065   7.037  13.458  0.00  0.00    -0.646 OA
ATOM    110  C6  IDS d 303      18.650   8.250  13.082  0.00  0.00     0.206 C 
ATOM    111  H   IDS d 303      18.708   6.746  10.715  0.00  0.00     0.092 H 
ATOM    112  H   IDS d 303      20.171   7.229   9.098  0.00  0.00     0.210 HD
ATOM    113  H   IDS d 303      18.222   9.841   7.882  0.00  0.00     0.097 H 
ATOM    114  H   IDS d 303      18.132  11.547   9.969  0.00  0.00     0.133 H 
ATOM    115  H   IDS d 303      17.832   7.531   8.551  0.00  0.00     0.091 H 
ATOM    116  H   IDS d 303      19.968   8.787  11.445  0.00  0.00     0.104 H 
ATOM    117  C1  UAP d 301      14.107   6.324  15.411  0.00  0.00     0.167 C 
ATOM    118  C5  UAP d 301      12.558   7.838  16.395  0.00  0.00     0.147 C 
ATOM    119  O61 UAP d 301      11.044   9.624  16.961  0.00  0.00    -0.642 OA
ATOM    120  C2  UAP d 301      14.360   5.708  16.862  0.00  0.00     0.135 C 
ATOM    121  O62 UAP d 301      10.737   8.703  14.928  0.00  0.00    -0.642 OA
ATOM    122  O3  UAP d 301      15.676   7.619  17.749  0.00  0.00    -0.389 OA
ATOM    123  O5  UAP d 301      12.814   6.977  15.370  0.00  0.00    -0.311 OA
ATOM    124  C6  UAP d 301      11.405   8.785  16.126  0.00  0.00     0.233 C 
ATOM    125  O2  UAP d 301      13.259   4.755  17.280  0.00  0.00    -0.244 OA
ATOM    126  C3  UAP d 301      14.408   6.923  17.880  0.00  0.00     0.086 C 
ATOM    127  O2S UAP d 301      14.306   3.014  15.893  0.00  0.00    -0.572 OA
ATOM    128  C4  UAP d 301      13.234   7.896  17.577  0.00  0.00    -0.034 C 
ATOM    129  O3S UAP d 301      14.906   2.999  18.268  0.00  0.00    -0.572 OA
ATOM    130  O1S UAP d 301      12.630   2.368  17.699  0.00  0.00    -0.572 OA
ATOM    131  S   UAP d 301      13.743   3.201  17.248  0.00  0.00     0.252 S 
ATOM    132  H   UAP d 301      14.857   7.046  15.166  0.00  0.00     0.134 H 
ATOM    133  H   UAP d 301      15.273   5.150  16.851  0.00  0.00     0.097 H 
ATOM    134  H   UAP d 301      16.403   7.005  17.939  0.00  0.00     0.210 HD
ATOM    135  H   UAP d 301      14.313   6.556  18.881  0.00  0.00     0.093 H 
ATOM    136  H   UAP d 301      12.962   8.598  18.283  0.00  0.00     0.085 H 
ATOM    137  C5  IDS d 305      24.359  14.572   7.354  0.00  0.00     0.152 C 
ATOM    138  O2  IDS d 305      26.406  13.001   9.932  0.00  0.00    -0.244 OA
ATOM    139  C6  IDS d 305      23.081  14.107   6.687  0.00  0.00     0.206 C 
ATOM    140  O61 IDS d 305      23.017  12.997   6.144  0.00  0.00    -0.646 OA
ATOM    141  O2S IDS d 305      28.754  12.432   9.474  0.00  0.00    -0.572 OA
ATOM    142  O62 IDS d 305      22.025  14.934   6.679  0.00  0.00    -0.646 OA
ATOM    143  O5  IDS d 305      25.391  13.528   7.216  0.00  0.00    -0.340 OA
ATOM    144  C3  IDS d 305      25.469  15.321   9.564  0.00  0.00     0.094 C 
ATOM    145  O4  IDS d 305      23.479  13.696   9.457  0.00  0.00    -0.348 OA
ATOM    146  O1S IDS d 305      27.467  11.216  11.222  0.00  0.00    -0.572 OA
ATOM    147  C2  IDS d 305      26.633  14.282   9.273  0.00  0.00     0.134 C 
ATOM    148  C1  IDS d 305      26.697  13.984   7.734  0.00  0.00     0.161 C 
ATOM    149  C4  IDS d 305      24.088  14.879   8.870  0.00  0.00     0.103 C 
ATOM    150  O3  IDS d 305      25.871  16.530   8.951  0.00  0.00    -0.390 OA
ATOM    151  S   IDS d 305      27.780  12.454  10.555  0.00  0.00     0.252 S 
ATOM    152  O3S IDS d 305      28.257  13.479  11.607  0.00  0.00    -0.572 OA
ATOM    153  H   IDS d 305      24.704  15.468   6.882  0.00  0.00     0.104 H 
ATOM    154  H   IDS d 305      25.308  15.395  10.619  0.00  0.00     0.091 H 
ATOM    155  H   IDS d 305      27.537  14.722   9.640  0.00  0.00     0.097 H 
ATOM    156  H   IDS d 305      27.387  13.177   7.602  0.00  0.00     0.133 H 
ATOM    157  H   IDS d 305      23.410  15.694   9.015  0.00  0.00     0.092 H 
ATOM    158  H   IDS d 305      25.995  16.384   8.000  0.00  0.00     0.210 HD
ENDROOT
TORSDOF 49
ENDMDL
MODEL 9
REMARK VINA RESULT:      -9.6      4.853     15.607
REMARK  0 active torsions:
REMARK  status: ('A' for Active; 'I' for Inactive)
REMARK       I    between atoms: N_1  and  C2_65 
REMARK       I    between atoms: N_1  and  S1_100 
REMARK       I    between atoms: O2S_4  and  S1_36 
REMARK       I    between atoms: O2S_5  and  S1_100 
REMARK       I    between atoms: C5_7  and  C6_64 
REMARK       I    between atoms: O3_11  and  C3_17 
REMARK       I    between atoms: C1_12  and  O4_28 
REMARK       I    between atoms: C5_13  and  C6_35 
REMARK       I    between atoms: C5_14  and  C6_52 
REMARK       I    between atoms: O2S_16  and  S1_75 
REMARK       I    between atoms: C2_18  and  O2_63 
REMARK       I    between atoms: C5_19  and  C6_22 
REMARK       I    between atoms: O2_20  and  C2_53 
REMARK       I    between atoms: O2_20  and  S_86 
REMARK       I    between atoms: O4_21  and  C1_67 
REMARK       I    between atoms: O4_21  and  C4_48 
REMARK       I    between atoms: O3_26  and  C3_72 
REMARK       I    between atoms: O4_28  and  C4_71 
REMARK       I    between atoms: O3_30  and  C3_94 
REMARK       I    between atoms: N_33  and  C2_82 
REMARK       I    between atoms: N_33  and  S1_75 
REMARK       I    between atoms: C6_35  and  O6_59 
REMARK       I    between atoms: S1_36  and  N_37 
REMARK       I    between atoms: S1_36  and  O1S_89 
REMARK       I    between atoms: S1_36  and  O3S_97 
REMARK       I    between atoms: N_37  and  C2_78 
REMARK       I    between atoms: C3_38  and  O3_81 
REMARK       I    between atoms: O4_39  and  C1_85 
REMARK       I    between atoms: O4_39  and  C4_69 
REMARK       I    between atoms: O3_40  and  C3_47 
REMARK       I    between atoms: O4_41  and  C1_76 
REMARK       I    between atoms: O4_41  and  C4_43 
REMARK       I    between atoms: S2_44  and  O6_80 
REMARK       I    between atoms: S_46  and  O2_57 
REMARK       I    between atoms: O3S_49  and  S1_75 
REMARK       I    between atoms: C1_54  and  O4_96 
REMARK       I    between atoms: O2_57  and  C2_66 
REMARK       I    between atoms: O6_58  and  C6_64 
REMARK       I    between atoms: O6_58  and  S2_101 
REMARK       I    between atoms: O6_59  and  S2_73 
REMARK       I    between atoms: O3_61  and  C3_77 
REMARK       I    between atoms: O2_63  and  S_104 
REMARK       I    between atoms: S1_75  and  O1S_92 
REMARK       I    between atoms: O6_80  and  C6_88 
REMARK       I    between atoms: C5_83  and  C6_88 
REMARK       I    between atoms: O3S_84  and  S1_100 
REMARK       I    between atoms: C5_87  and  C6_103 
REMARK       I    between atoms: O1S_91  and  S1_100 
REMARK       I    between atoms: O4_96  and  C4_99 
ROOT
ATOM      1  N   SGN d 304      23.831   6.277   6.669  0.00  0.00    -0.210 NA
ATOM      2  O2S SGN d 304      22.472   5.840   4.629  0.00  0.00    -0.296 OA
ATOM      3  C5  SGN d 304      20.856   8.670   8.369  0.00  0.00     0.091 C 
ATOM      4  O5S SGN d 304      17.968  11.550   8.562  0.00  0.00    -0.572 OA
ATOM      5  O3  SGN d 304      24.533   8.940   7.662  0.00  0.00    -0.391 OA
ATOM      6  C3  SGN d 304      23.321   8.301   8.018  0.00  0.00     0.083 C 
ATOM      7  O4  SGN d 304      22.510  10.407   8.956  0.00  0.00    -0.348 OA
ATOM      8  O5  SGN d 304      20.565   7.630   7.454  0.00  0.00    -0.349 OA
ATOM      9  C4  SGN d 304      22.197   9.348   8.004  0.00  0.00     0.095 C 
ATOM     10  O4S SGN d 304      16.143   9.858   8.906  0.00  0.00    -0.572 OA
ATOM     11  O6S SGN d 304      17.017  10.358   6.737  0.00  0.00    -0.572 OA
ATOM     12  O6  SGN d 304      18.403   9.181   8.508  0.00  0.00    -0.254 OA
ATOM     13  C6  SGN d 304      19.692   9.705   8.226  0.00  0.00     0.067 C 
ATOM     14  C2  SGN d 304      22.881   7.305   6.909  0.00  0.00     0.081 C 
ATOM     15  O3S SGN d 304      24.404   7.288   4.399  0.00  0.00    -0.296 OA
ATOM     16  C1  SGN d 304      21.601   6.593   7.350  0.00  0.00     0.150 C 
ATOM     17  O1S SGN d 304      24.863   4.966   4.843  0.00  0.00    -0.296 OA
ATOM     18  S1  SGN d 304      23.885   5.995   5.046  0.00  0.00     0.156 S 
ATOM     19  S2  SGN d 304      17.335  10.296   8.234  0.00  0.00     0.251 S 
ATOM     20  H   SGN d 304      23.551   5.426   7.158  0.00  0.00     0.140 HD
ATOM     21  H   SGN d 304      21.978   6.643   4.855  0.00  0.00     0.231 HD
ATOM     22  H   SGN d 304      20.940   8.294   9.367  0.00  0.00     0.090 H 
ATOM     23  H   SGN d 304      25.254   8.291   7.665  0.00  0.00     0.210 HD
ATOM     24  H   SGN d 304      23.475   7.825   8.963  0.00  0.00     0.089 H 
ATOM     25  H   SGN d 304      22.110   9.775   7.027  0.00  0.00     0.091 H 
ATOM     26  H   SGN d 304      19.692  10.073   7.221  0.00  0.00     0.080 H 
ATOM     27  H   SGN d 304      19.875  10.471   8.951  0.00  0.00     0.080 H 
ATOM     28  H   SGN d 304      22.757   7.889   6.021  0.00  0.00     0.076 H 
ATOM     29  H   SGN d 304      23.755   7.997   4.526  0.00  0.00     0.231 HD
ATOM     30  H   SGN d 304      21.211   5.851   6.685  0.00  0.00     0.131 H 
ATOM     31  H   SGN d 304      24.551   4.140   5.245  0.00  0.00     0.231 HD
ATOM     32  O6S SGN d 306      23.697   4.627  15.483  0.00  0.00    -0.572 OA
ATOM     33  O5S SGN d 306      25.129   2.669  15.530  0.00  0.00    -0.572 OA
ATOM     34  O2S SGN d 306      16.435   2.008  12.860  0.00  0.00    -0.296 OA
ATOM     35  C1  SGN d 306      19.466   0.979  13.853  0.00  0.00     0.038 C 
ATOM     36  N   SGN d 306      17.981   0.272  12.119  0.00  0.00    -0.212 NA
ATOM     37  O3  SGN d 306      19.673   1.062  10.135  0.00  0.00    -0.391 OA
ATOM     38  S2  SGN d 306      23.826   3.168  15.969  0.00  0.00     0.251 S 
ATOM     39  C3  SGN d 306      20.162   0.907  11.474  0.00  0.00     0.081 C 
ATOM     40  O3S SGN d 306      16.902   1.927  10.469  0.00  0.00    -0.296 OA
ATOM     41  O4S SGN d 306      23.402   3.117  17.346  0.00  0.00    -0.572 OA
ATOM     42  O5  SGN d 306      20.528   1.884  14.181  0.00  0.00    -0.379 OA
ATOM     43  S1  SGN d 306      16.601   1.058  11.732  0.00  0.00     0.156 S 
ATOM     44  O6  SGN d 306      22.830   2.281  15.222  0.00  0.00    -0.254 OA
ATOM     45  C2  SGN d 306      19.036   1.163  12.415  0.00  0.00     0.054 C 
ATOM     46  C5  SGN d 306      21.658   1.694  13.302  0.00  0.00     0.087 C 
ATOM     47  C6  SGN d 306      22.707   2.671  13.821  0.00  0.00     0.067 C 
ATOM     48  O1S SGN d 306      15.621   0.003  11.429  0.00  0.00    -0.296 OA
ATOM     49  O4  SGN d 306      22.398   1.727  10.847  0.00  0.00    -0.348 OA
ATOM     50  C4  SGN d 306      21.263   1.923  11.805  0.00  0.00     0.095 C 
ATOM     51  H   SGN d 306      17.189   2.618  12.883  0.00  0.00     0.231 HD
ATOM     52  H   SGN d 306      19.805  -0.026  13.993  0.00  0.00     0.077 H 
ATOM     53  H   SGN d 306      18.631   1.180  14.492  0.00  0.00     0.077 H 
ATOM     54  H   SGN d 306      17.808  -0.315  12.934  0.00  0.00     0.140 HD
ATOM     55  H   SGN d 306      18.981   0.403   9.965  0.00  0.00     0.210 HD
ATOM     56  H   SGN d 306      20.559  -0.083  11.564  0.00  0.00     0.089 H 
ATOM     57  H   SGN d 306      17.549   2.614  10.695  0.00  0.00     0.231 HD
ATOM     58  H   SGN d 306      18.715   2.176  12.296  0.00  0.00     0.072 H 
ATOM     59  H   SGN d 306      22.037   0.692  13.310  0.00  0.00     0.090 H 
ATOM     60  H   SGN d 306      23.636   2.554  13.303  0.00  0.00     0.080 H 
ATOM     61  H   SGN d 306      22.440   3.698  13.684  0.00  0.00     0.080 H 
ATOM     62  H   SGN d 306      15.453  -0.521  12.228  0.00  0.00     0.231 HD
ATOM     63  H   SGN d 306      20.945   2.939  11.694  0.00  0.00     0.091 H 
ATOM     64  O6S SGN d 302      29.757  17.546   5.836  0.00  0.00    -0.572 OA
ATOM     65  O2S SGN d 302      23.761  15.859  11.347  0.00  0.00    -0.296 OA
ATOM     66  O5S SGN d 302      28.720  17.150   3.678  0.00  0.00    -0.572 OA
ATOM     67  C5  SGN d 302      25.602  16.824   6.405  0.00  0.00     0.091 C 
ATOM     68  O4  SGN d 302      24.736  18.754   5.211  0.00  0.00    -0.348 OA
ATOM     69  O3  SGN d 302      22.642  18.973   7.327  0.00  0.00    -0.391 OA
ATOM     70  C6  SGN d 302      26.966  17.115   5.753  0.00  0.00     0.067 C 
ATOM     71  S1  SGN d 302      22.649  16.727  11.061  0.00  0.00     0.156 S 
ATOM     72  N   SGN d 302      22.539  16.897   9.377  0.00  0.00    -0.210 NA
ATOM     73  O4S SGN d 302      29.999  15.356   4.965  0.00  0.00    -0.572 OA
ATOM     74  O6  SGN d 302      27.767  15.977   5.568  0.00  0.00    -0.254 OA
ATOM     75  O5  SGN d 302      25.806  16.197   7.732  0.00  0.00    -0.349 OA
ATOM     76  C4  SGN d 302      24.826  18.137   6.541  0.00  0.00     0.095 C 
ATOM     77  S2  SGN d 302      29.110  16.483   4.932  0.00  0.00     0.251 S 
ATOM     78  C1  SGN d 302      24.572  15.959   8.531  0.00  0.00     0.150 C 
ATOM     79  C2  SGN d 302      23.726  17.236   8.595  0.00  0.00     0.081 C 
ATOM     80  O1S SGN d 302      21.308  16.391  11.457  0.00  0.00    -0.296 OA
ATOM     81  C3  SGN d 302      23.431  17.797   7.184  0.00  0.00     0.083 C 
ATOM     82  O3S SGN d 302      23.058  18.032  11.724  0.00  0.00    -0.296 OA
ATOM     83  H   SGN d 302      23.597  14.985  10.960  0.00  0.00     0.231 HD
ATOM     84  H   SGN d 302      25.041  16.146   5.796  0.00  0.00     0.090 H 
ATOM     85  H   SGN d 302      22.446  19.339   6.451  0.00  0.00     0.210 HD
ATOM     86  H   SGN d 302      27.497  17.803   6.377  0.00  0.00     0.080 H 
ATOM     87  H   SGN d 302      26.764  17.512   4.780  0.00  0.00     0.080 H 
ATOM     88  H   SGN d 302      21.852  17.629   9.200  0.00  0.00     0.140 HD
ATOM     89  H   SGN d 302      25.307  18.849   7.178  0.00  0.00     0.091 H 
ATOM     90  H   SGN d 302      24.938  15.682   9.497  0.00  0.00     0.131 H 
ATOM     91  H   SGN d 302      24.243  18.040   9.075  0.00  0.00     0.076 H 
ATOM     92  H   SGN d 302      21.046  15.559  11.034  0.00  0.00     0.231 HD
ATOM     93  H   SGN d 302      22.897  17.103   6.568  0.00  0.00     0.089 H 
ATOM     94  H   SGN d 302      23.963  18.260  11.459  0.00  0.00     0.231 HD
ATOM     95  O5  IDS d 303      22.507  12.307   7.405  0.00  0.00    -0.340 OA
ATOM     96  O2S IDS d 303      19.601  12.026  10.694  0.00  0.00    -0.572 OA
ATOM     97  O4  IDS d 303      23.749  14.854   8.121  0.00  0.00    -0.348 OA
ATOM     98  O1S IDS d 303      18.914  14.422  10.383  0.00  0.00    -0.572 OA
ATOM     99  C4  IDS d 303      24.285  13.596   8.532  0.00  0.00     0.103 C 
ATOM    100  S   IDS d 303      19.892  13.445  10.713  0.00  0.00     0.252 S 
ATOM    101  O2  IDS d 303      21.134  13.673   9.687  0.00  0.00    -0.244 OA
ATOM    102  O3  IDS d 303      24.511  11.867  10.163  0.00  0.00    -0.390 OA
ATOM    103  O61 IDS d 303      23.690  13.419   5.132  0.00  0.00    -0.646 OA
ATOM    104  C2  IDS d 303      22.188  12.625   9.882  0.00  0.00     0.134 C 
ATOM    105  C1  IDS d 303      21.988  11.705   8.668  0.00  0.00     0.161 C 
ATOM    106  O3S IDS d 303      20.327  13.766  12.150  0.00  0.00    -0.572 OA
ATOM    107  C3  IDS d 303      23.755  13.066   9.914  0.00  0.00     0.094 C 
ATOM    108  C5  IDS d 303      23.961  12.586   7.422  0.00  0.00     0.152 C 
ATOM    109  O62 IDS d 303      25.747  13.532   5.938  0.00  0.00    -0.646 OA
ATOM    110  C6  IDS d 303      24.459  13.202   6.070  0.00  0.00     0.206 C 
ATOM    111  H   IDS d 303      25.337  13.724   8.682  0.00  0.00     0.092 H 
ATOM    112  H   IDS d 303      25.457  12.082  10.190  0.00  0.00     0.210 HD
ATOM    113  H   IDS d 303      22.048  12.220  10.863  0.00  0.00     0.097 H 
ATOM    114  H   IDS d 303      20.939  11.590   8.487  0.00  0.00     0.133 H 
ATOM    115  H   IDS d 303      23.856  13.839  10.646  0.00  0.00     0.091 H 
ATOM    116  H   IDS d 303      24.453  11.650   7.586  0.00  0.00     0.104 H 
ATOM    117  C1  UAP d 301      23.988  18.272   4.110  0.00  0.00     0.167 C 
ATOM    118  C5  UAP d 301      22.067  18.867   2.839  0.00  0.00     0.147 C 
ATOM    119  O61 UAP d 301      19.871  19.249   1.927  0.00  0.00    -0.642 OA
ATOM    120  C2  UAP d 301      24.875  18.525   2.808  0.00  0.00     0.135 C 
ATOM    121  O62 UAP d 301      20.127  19.802   4.095  0.00  0.00    -0.642 OA
ATOM    122  O3  UAP d 301      24.156  16.487   1.582  0.00  0.00    -0.389 OA
ATOM    123  O5  UAP d 301      22.746  19.011   4.013  0.00  0.00    -0.311 OA
ATOM    124  C6  UAP d 301      20.619  19.310   2.910  0.00  0.00     0.233 C 
ATOM    125  O2  UAP d 301      25.138  19.998   2.570  0.00  0.00    -0.244 OA
ATOM    126  C3  UAP d 301      24.068  17.937   1.576  0.00  0.00     0.086 C 
ATOM    127  O2S UAP d 301      26.908  19.908   4.275  0.00  0.00    -0.572 OA
ATOM    128  C4  UAP d 301      22.581  18.380   1.674  0.00  0.00    -0.034 C 
ATOM    129  O3S UAP d 301      27.641  19.637   1.953  0.00  0.00    -0.572 OA
ATOM    130  O1S UAP d 301      26.840  21.834   2.611  0.00  0.00    -0.572 OA
ATOM    131  S   UAP d 301      26.677  20.411   2.905  0.00  0.00     0.252 S 
ATOM    132  H   UAP d 301      23.756  17.234   4.219  0.00  0.00     0.134 H 
ATOM    133  H   UAP d 301      25.827  18.051   2.934  0.00  0.00     0.097 H 
ATOM    134  H   UAP d 301      25.086  16.219   1.521  0.00  0.00     0.210 HD
ATOM    135  H   UAP d 301      24.487  18.307   0.663  0.00  0.00     0.093 H 
ATOM    136  H   UAP d 301      21.973  18.304   0.844  0.00  0.00     0.085 H 
ATOM    137  C5  IDS d 305      21.363   4.491  10.532  0.00  0.00     0.152 C 
ATOM    138  O2  IDS d 305      24.193   3.848   8.324  0.00  0.00    -0.244 OA
ATOM    139  C6  IDS d 305      20.947   5.750  11.264  0.00  0.00     0.206 C 
ATOM    140  O61 IDS d 305      21.737   6.341  12.009  0.00  0.00    -0.646 OA
ATOM    141  O2S IDS d 305      25.853   2.128   8.905  0.00  0.00    -0.572 OA
ATOM    142  O62 IDS d 305      19.693   6.199  11.102  0.00  0.00    -0.646 OA
ATOM    143  O5  IDS d 305      22.758   4.163  10.878  0.00  0.00    -0.340 OA
ATOM    144  C3  IDS d 305      21.712   3.371   8.230  0.00  0.00     0.094 C 
ATOM    145  O4  IDS d 305      21.962   5.898   8.628  0.00  0.00    -0.348 OA
ATOM    146  O1S IDS d 305      26.455   4.025   7.410  0.00  0.00    -0.572 OA
ATOM    147  C2  IDS d 305      23.149   2.914   8.727  0.00  0.00     0.134 C 
ATOM    148  C1  IDS d 305      23.172   2.871  10.295  0.00  0.00     0.161 C 
ATOM    149  C4  IDS d 305      21.216   4.701   8.982  0.00  0.00     0.103 C 
ATOM    150  O3  IDS d 305      20.828   2.332   8.604  0.00  0.00    -0.390 OA
ATOM    151  S   IDS d 305      25.490   3.041   7.830  0.00  0.00     0.252 S 
ATOM    152  O3S IDS d 305      25.076   2.195   6.606  0.00  0.00    -0.572 OA
ATOM    153  H   IDS d 305      20.731   3.680  10.827  0.00  0.00     0.104 H 
ATOM    154  H   IDS d 305      21.740   3.567   7.179  0.00  0.00     0.091 H 
ATOM    155  H   IDS d 305      23.334   1.954   8.290  0.00  0.00     0.097 H 
ATOM    156  H   IDS d 305      24.188   2.705  10.586  0.00  0.00     0.133 H 
ATOM    157  H   IDS d 305      20.202   4.854   8.677  0.00  0.00     0.092 H 
ATOM    158  H   IDS d 305      20.857   2.213   9.566  0.00  0.00     0.210 HD
ENDROOT
TORSDOF 49
ENDMDL
MODEL 10
REMARK VINA RESULT:      -9.3      4.066     15.460
REMARK  0 active torsions:
REMARK  status: ('A' for Active; 'I' for Inactive)
REMARK       I    between atoms: N_1  and  C2_65 
REMARK       I    between atoms: N_1  and  S1_100 
REMARK       I    between atoms: O2S_4  and  S1_36 
REMARK       I    between atoms: O2S_5  and  S1_100 
REMARK       I    between atoms: C5_7  and  C6_64 
REMARK       I    between atoms: O3_11  and  C3_17 
REMARK       I    between atoms: C1_12  and  O4_28 
REMARK       I    between atoms: C5_13  and  C6_35 
REMARK       I    between atoms: C5_14  and  C6_52 
REMARK       I    between atoms: O2S_16  and  S1_75 
REMARK       I    between atoms: C2_18  and  O2_63 
REMARK       I    between atoms: C5_19  and  C6_22 
REMARK       I    between atoms: O2_20  and  C2_53 
REMARK       I    between atoms: O2_20  and  S_86 
REMARK       I    between atoms: O4_21  and  C1_67 
REMARK       I    between atoms: O4_21  and  C4_48 
REMARK       I    between atoms: O3_26  and  C3_72 
REMARK       I    between atoms: O4_28  and  C4_71 
REMARK       I    between atoms: O3_30  and  C3_94 
REMARK       I    between atoms: N_33  and  C2_82 
REMARK       I    between atoms: N_33  and  S1_75 
REMARK       I    between atoms: C6_35  and  O6_59 
REMARK       I    between atoms: S1_36  and  N_37 
REMARK       I    between atoms: S1_36  and  O1S_89 
REMARK       I    between atoms: S1_36  and  O3S_97 
REMARK       I    between atoms: N_37  and  C2_78 
REMARK       I    between atoms: C3_38  and  O3_81 
REMARK       I    between atoms: O4_39  and  C1_85 
REMARK       I    between atoms: O4_39  and  C4_69 
REMARK       I    between atoms: O3_40  and  C3_47 
REMARK       I    between atoms: O4_41  and  C1_76 
REMARK       I    between atoms: O4_41  and  C4_43 
REMARK       I    between atoms: S2_44  and  O6_80 
REMARK       I    between atoms: S_46  and  O2_57 
REMARK       I    between atoms: O3S_49  and  S1_75 
REMARK       I    between atoms: C1_54  and  O4_96 
REMARK       I    between atoms: O2_57  and  C2_66 
REMARK       I    between atoms: O6_58  and  C6_64 
REMARK       I    between atoms: O6_58  and  S2_101 
REMARK       I    between atoms: O6_59  and  S2_73 
REMARK       I    between atoms: O3_61  and  C3_77 
REMARK       I    between atoms: O2_63  and  S_104 
REMARK       I    between atoms: S1_75  and  O1S_92 
REMARK       I    between atoms: O6_80  and  C6_88 
REMARK       I    between atoms: C5_83  and  C6_88 
REMARK       I    between atoms: O3S_84  and  S1_100 
REMARK       I    between atoms: C5_87  and  C6_103 
REMARK       I    between atoms: O1S_91  and  S1_100 
REMARK       I    between atoms: O4_96  and  C4_99 
ROOT
ATOM      1  N   SGN d 304      22.112   6.455   7.404  0.00  0.00    -0.210 NA
ATOM      2  O2S SGN d 304      20.262   6.540   5.740  0.00  0.00    -0.296 OA
ATOM      3  C5  SGN d 304      20.196   9.157   9.953  0.00  0.00     0.091 C 
ATOM      4  O5S SGN d 304      18.126  12.499  11.059  0.00  0.00    -0.572 OA
ATOM      5  O3  SGN d 304      23.584   8.792   8.377  0.00  0.00    -0.391 OA
ATOM      6  C3  SGN d 304      22.376   8.363   8.977  0.00  0.00     0.083 C 
ATOM      7  O4  SGN d 304      22.278  10.456  10.232  0.00  0.00    -0.348 OA
ATOM      8  O5  SGN d 304      19.485   8.312   9.068  0.00  0.00    -0.349 OA
ATOM      9  C4  SGN d 304      21.533   9.601   9.316  0.00  0.00     0.095 C 
ATOM     10  O4S SGN d 304      16.104  11.164  11.725  0.00  0.00    -0.572 OA
ATOM     11  O6S SGN d 304      16.549  11.743   9.448  0.00  0.00    -0.572 OA
ATOM     12  O6  SGN d 304      18.011  10.115  10.732  0.00  0.00    -0.254 OA
ATOM     13  C6  SGN d 304      19.285  10.409  10.177  0.00  0.00     0.067 C 
ATOM     14  C2  SGN d 304      21.488   7.612   7.944  0.00  0.00     0.081 C 
ATOM     15  O3S SGN d 304      22.359   7.603   5.140  0.00  0.00    -0.296 OA
ATOM     16  C1  SGN d 304      20.220   7.114   8.638  0.00  0.00     0.150 C 
ATOM     17  O1S SGN d 304      22.390   5.199   5.292  0.00  0.00    -0.296 OA
ATOM     18  S1  SGN d 304      21.732   6.366   5.803  0.00  0.00     0.156 S 
ATOM     19  S2  SGN d 304      17.178  11.441  10.811  0.00  0.00     0.251 S 
ATOM     20  H   SGN d 304      21.773   5.623   7.886  0.00  0.00     0.140 HD
ATOM     21  H   SGN d 304      20.020   7.391   6.137  0.00  0.00     0.231 HD
ATOM     22  H   SGN d 304      20.421   8.654  10.870  0.00  0.00     0.090 H 
ATOM     23  H   SGN d 304      24.128   8.020   8.156  0.00  0.00     0.210 HD
ATOM     24  H   SGN d 304      22.634   7.754   9.818  0.00  0.00     0.089 H 
ATOM     25  H   SGN d 304      21.321  10.152   8.424  0.00  0.00     0.091 H 
ATOM     26  H   SGN d 304      19.136  10.888   9.231  0.00  0.00     0.080 H 
ATOM     27  H   SGN d 304      19.790  11.032  10.885  0.00  0.00     0.080 H 
ATOM     28  H   SGN d 304      21.296   8.312   7.158  0.00  0.00     0.076 H 
ATOM     29  H   SGN d 304      21.926   8.404   5.474  0.00  0.00     0.231 HD
ATOM     30  H   SGN d 304      19.537   6.548   8.040  0.00  0.00     0.131 H 
ATOM     31  H   SGN d 304      22.006   4.407   5.700  0.00  0.00     0.231 HD
ATOM     32  O6S SGN d 306      23.634   3.811  15.838  0.00  0.00    -0.572 OA
ATOM     33  O5S SGN d 306      24.578   1.621  15.390  0.00  0.00    -0.572 OA
ATOM     34  O2S SGN d 306      15.574   2.988  14.921  0.00  0.00    -0.296 OA
ATOM     35  C1  SGN d 306      18.453   1.278  15.055  0.00  0.00     0.038 C 
ATOM     36  N   SGN d 306      16.495   1.087  13.698  0.00  0.00    -0.212 NA
ATOM     37  O3  SGN d 306      17.821   1.767  11.417  0.00  0.00    -0.391 OA
ATOM     38  S2  SGN d 306      23.549   2.307  16.172  0.00  0.00     0.251 S 
ATOM     39  C3  SGN d 306      18.555   1.360  12.579  0.00  0.00     0.081 C 
ATOM     40  O3S SGN d 306      15.455   3.108  12.488  0.00  0.00    -0.296 OA
ATOM     41  O4S SGN d 306      23.450   2.174  17.605  0.00  0.00    -0.572 OA
ATOM     42  O5  SGN d 306      19.733   1.914  15.173  0.00  0.00    -0.379 OA
ATOM     43  S1  SGN d 306      15.268   2.167  13.722  0.00  0.00     0.156 S 
ATOM     44  O6  SGN d 306      22.241   1.727  15.636  0.00  0.00    -0.254 OA
ATOM     45  C2  SGN d 306      17.757   1.714  13.786  0.00  0.00     0.054 C 
ATOM     46  C5  SGN d 306      20.564   1.615  14.030  0.00  0.00     0.087 C 
ATOM     47  C6  SGN d 306      21.890   2.300  14.340  0.00  0.00     0.067 C 
ATOM     48  O1S SGN d 306      14.040   1.367  13.598  0.00  0.00    -0.296 OA
ATOM     49  O4  SGN d 306      20.714   1.800  11.476  0.00  0.00    -0.348 OA
ATOM     50  C4  SGN d 306      19.897   2.095  12.697  0.00  0.00     0.095 C 
ATOM     51  H   SGN d 306      16.427   3.433  14.799  0.00  0.00     0.231 HD
ATOM     52  H   SGN d 306      18.588   0.217  15.036  0.00  0.00     0.077 H 
ATOM     53  H   SGN d 306      17.850   1.559  15.894  0.00  0.00     0.077 H 
ATOM     54  H   SGN d 306      16.388   0.451  14.488  0.00  0.00     0.140 HD
ATOM     55  H   SGN d 306      16.982   1.281  11.379  0.00  0.00     0.210 HD
ATOM     56  H   SGN d 306      18.738   0.308  12.498  0.00  0.00     0.089 H 
ATOM     57  H   SGN d 306      16.270   3.623  12.595  0.00  0.00     0.231 HD
ATOM     58  H   SGN d 306      17.646   2.777  13.822  0.00  0.00     0.072 H 
ATOM     59  H   SGN d 306      20.707   0.565  13.873  0.00  0.00     0.090 H 
ATOM     60  H   SGN d 306      22.628   2.068  13.601  0.00  0.00     0.080 H 
ATOM     61  H   SGN d 306      21.829   3.368  14.346  0.00  0.00     0.080 H 
ATOM     62  H   SGN d 306      13.948   0.794  14.375  0.00  0.00     0.231 HD
ATOM     63  H   SGN d 306      19.792   3.159  12.741  0.00  0.00     0.091 H 
ATOM     64  O6S SGN d 302      29.999  16.376   5.922  0.00  0.00    -0.572 OA
ATOM     65  O2S SGN d 302      25.196  15.233  12.615  0.00  0.00    -0.296 OA
ATOM     66  O5S SGN d 302      28.436  16.453   4.066  0.00  0.00    -0.572 OA
ATOM     67  C5  SGN d 302      26.027  16.411   7.453  0.00  0.00     0.091 C 
ATOM     68  O4  SGN d 302      25.353  18.603   6.649  0.00  0.00    -0.348 OA
ATOM     69  O3  SGN d 302      23.896  18.966   9.229  0.00  0.00    -0.391 OA
ATOM     70  C6  SGN d 302      27.237  16.508   6.504  0.00  0.00     0.067 C 
ATOM     71  S1  SGN d 302      24.265  16.327  12.676  0.00  0.00     0.156 S 
ATOM     72  N   SGN d 302      23.813  16.718  11.088  0.00  0.00    -0.210 NA
ATOM     73  O4S SGN d 302      29.553  14.302   4.866  0.00  0.00    -0.572 OA
ATOM     74  O6  SGN d 302      27.708  15.267   6.047  0.00  0.00    -0.254 OA
ATOM     75  O5  SGN d 302      26.387  15.601   8.640  0.00  0.00    -0.349 OA
ATOM     76  C4  SGN d 302      25.607  17.823   7.868  0.00  0.00     0.095 C 
ATOM     77  S2  SGN d 302      28.947  15.576   5.135  0.00  0.00     0.251 S 
ATOM     78  C1  SGN d 302      25.346  15.513   9.700  0.00  0.00     0.150 C 
ATOM     79  C2  SGN d 302      24.835  16.912  10.062  0.00  0.00     0.081 C 
ATOM     80  O1S SGN d 302      23.009  16.214  13.367  0.00  0.00    -0.296 OA
ATOM     81  C3  SGN d 302      24.356  17.685   8.812  0.00  0.00     0.083 C 
ATOM     82  O3S SGN d 302      25.088  17.439  13.307  0.00  0.00    -0.296 OA
ATOM     83  H   SGN d 302      24.762  14.460  12.221  0.00  0.00     0.231 HD
ATOM     84  H   SGN d 302      25.208  15.934   6.956  0.00  0.00     0.090 H 
ATOM     85  H   SGN d 302      23.590  19.467   8.456  0.00  0.00     0.210 HD
ATOM     86  H   SGN d 302      28.033  16.999   7.024  0.00  0.00     0.080 H 
ATOM     87  H   SGN d 302      26.910  17.051   5.642  0.00  0.00     0.080 H 
ATOM     88  H   SGN d 302      23.280  17.586  11.139  0.00  0.00     0.140 HD
ATOM     89  H   SGN d 302      26.364  18.346   8.415  0.00  0.00     0.091 H 
ATOM     90  H   SGN d 302      25.853  15.055  10.524  0.00  0.00     0.131 H 
ATOM     91  H   SGN d 302      25.611  17.537  10.455  0.00  0.00     0.076 H 
ATOM     92  H   SGN d 302      22.483  15.505  12.966  0.00  0.00     0.231 HD
ATOM     93  H   SGN d 302      23.558  17.188   8.301  0.00  0.00     0.089 H 
ATOM     94  H   SGN d 302      25.936  17.517  12.843  0.00  0.00     0.231 HD
ATOM     95  O5  IDS d 303      22.335  12.494   8.868  0.00  0.00    -0.340 OA
ATOM     96  O2S IDS d 303      20.265  12.388  12.747  0.00  0.00    -0.572 OA
ATOM     97  O4  IDS d 303      24.231  14.646   9.432  0.00  0.00    -0.348 OA
ATOM     98  O1S IDS d 303      20.064  14.891  12.786  0.00  0.00    -0.572 OA
ATOM     99  C4  IDS d 303      24.560  13.267   9.607  0.00  0.00     0.103 C 
ATOM    100  S   IDS d 303      20.854  13.711  12.793  0.00  0.00     0.252 S 
ATOM    101  O2  IDS d 303      21.849  13.815  11.509  0.00  0.00    -0.244 OA
ATOM    102  O3  IDS d 303      24.770  11.344  11.004  0.00  0.00    -0.390 OA
ATOM    103  O61 IDS d 303      23.182  13.621   6.456  0.00  0.00    -0.646 OA
ATOM    104  C2  IDS d 303      22.666  12.566  11.363  0.00  0.00     0.134 C 
ATOM    105  C1  IDS d 303      21.999  11.857  10.175  0.00  0.00     0.161 C 
ATOM    106  O3S IDS d 303      21.664  13.765  14.096  0.00  0.00    -0.572 OA
ATOM    107  C3  IDS d 303      24.257  12.687  11.036  0.00  0.00     0.094 C 
ATOM    108  C5  IDS d 303      23.780  12.481   8.544  0.00  0.00     0.152 C 
ATOM    109  O62 IDS d 303      25.343  13.235   6.734  0.00  0.00    -0.646 OA
ATOM    110  C6  IDS d 303      24.078  13.147   7.157  0.00  0.00     0.206 C 
ATOM    111  H   IDS d 303      25.620  13.170   9.500  0.00  0.00     0.092 H 
ATOM    112  H   IDS d 303      25.721  11.366  10.812  0.00  0.00     0.210 HD
ATOM    113  H   IDS d 303      22.668  12.081  12.317  0.00  0.00     0.097 H 
ATOM    114  H   IDS d 303      20.938  11.970  10.252  0.00  0.00     0.133 H 
ATOM    115  H   IDS d 303      24.687  13.332  11.773  0.00  0.00     0.091 H 
ATOM    116  H   IDS d 303      24.081  11.455   8.514  0.00  0.00     0.104 H 
ATOM    117  C1  UAP d 301      24.288  18.411   5.737  0.00  0.00     0.167 C 
ATOM    118  C5  UAP d 301      22.305  19.517   5.027  0.00  0.00     0.147 C 
ATOM    119  O61 UAP d 301      20.095  20.425   4.717  0.00  0.00    -0.642 OA
ATOM    120  C2  UAP d 301      24.888  18.642   4.276  0.00  0.00     0.135 C 
ATOM    121  O62 UAP d 301      20.952  20.652   6.788  0.00  0.00    -0.642 OA
ATOM    122  O3  UAP d 301      23.483  16.946   3.128  0.00  0.00    -0.389 OA
ATOM    123  O5  UAP d 301      23.247  19.383   6.003  0.00  0.00    -0.311 OA
ATOM    124  C6  UAP d 301      21.043  20.221   5.486  0.00  0.00     0.233 C 
ATOM    125  O2  UAP d 301      25.404  20.054   4.085  0.00  0.00    -0.244 OA
ATOM    126  C3  UAP d 301      23.714  18.376   3.245  0.00  0.00     0.086 C 
ATOM    127  O2S UAP d 301      27.453  19.417   5.287  0.00  0.00    -0.572 OA
ATOM    128  C4  UAP d 301      22.421  19.084   3.740  0.00  0.00    -0.034 C 
ATOM    129  O3S UAP d 301      27.560  19.291   2.842  0.00  0.00    -0.572 OA
ATOM    130  O1S UAP d 301      27.428  21.506   3.832  0.00  0.00    -0.572 OA
ATOM    131  S   UAP d 301      27.030  20.117   4.056  0.00  0.00     0.252 S 
ATOM    132  H   UAP d 301      23.866  17.432   5.827  0.00  0.00     0.134 H 
ATOM    133  H   UAP d 301      25.717  17.981   4.129  0.00  0.00     0.097 H 
ATOM    134  H   UAP d 301      24.293  16.512   2.819  0.00  0.00     0.210 HD
ATOM    135  H   UAP d 301      23.983  18.765   2.285  0.00  0.00     0.093 H 
ATOM    136  H   UAP d 301      21.639  19.228   3.083  0.00  0.00     0.085 H 
ATOM    137  C5  IDS d 305      20.261   4.730  11.624  0.00  0.00     0.152 C 
ATOM    138  O2  IDS d 305      22.304   3.821   8.742  0.00  0.00    -0.244 OA
ATOM    139  C6  IDS d 305      20.307   5.948  12.522  0.00  0.00     0.206 C 
ATOM    140  O61 IDS d 305      21.355   6.280  13.088  0.00  0.00    -0.646 OA
ATOM    141  O2S IDS d 305      23.637   1.754   8.771  0.00  0.00    -0.572 OA
ATOM    142  O62 IDS d 305      19.178   6.648  12.709  0.00  0.00    -0.646 OA
ATOM    143  O5  IDS d 305      21.593   4.098  11.589  0.00  0.00    -0.340 OA
ATOM    144  C3  IDS d 305      19.824   3.849   9.234  0.00  0.00     0.094 C 
ATOM    145  O4  IDS d 305      20.702   6.213   9.734  0.00  0.00    -0.348 OA
ATOM    146  O1S IDS d 305      24.281   3.664   7.311  0.00  0.00    -0.572 OA
ATOM    147  C2  IDS d 305      21.201   3.065   9.325  0.00  0.00     0.134 C 
ATOM    148  C1  IDS d 305      21.571   2.830  10.831  0.00  0.00     0.161 C 
ATOM    149  C4  IDS d 305      19.814   5.150  10.177  0.00  0.00     0.103 C 
ATOM    150  O3  IDS d 305      18.844   2.964   9.741  0.00  0.00    -0.390 OA
ATOM    151  S   IDS d 305      23.247   2.843   7.887  0.00  0.00     0.252 S 
ATOM    152  O3S IDS d 305      22.391   2.248   6.747  0.00  0.00    -0.572 OA
ATOM    153  H   IDS d 305      19.552   4.027  12.008  0.00  0.00     0.104 H 
ATOM    154  H   IDS d 305      19.654   4.162   8.225  0.00  0.00     0.091 H 
ATOM    155  H   IDS d 305      21.069   2.148   8.790  0.00  0.00     0.097 H 
ATOM    156  H   IDS d 305      22.566   2.436  10.849  0.00  0.00     0.133 H 
ATOM    157  H   IDS d 305      18.816   5.532  10.145  0.00  0.00     0.092 H 
ATOM    158  H   IDS d 305      19.065   2.727  10.655  0.00  0.00     0.210 HD
ENDROOT
TORSDOF 49
ENDMDL
MODEL 11
REMARK VINA RESULT:      -8.8      5.952      8.330
REMARK  0 active torsions:
REMARK  status: ('A' for Active; 'I' for Inactive)
REMARK       I    between atoms: N_1  and  C2_65 
REMARK       I    between atoms: N_1  and  S1_100 
REMARK       I    between atoms: O2S_4  and  S1_36 
REMARK       I    between atoms: O2S_5  and  S1_100 
REMARK       I    between atoms: C5_7  and  C6_64 
REMARK       I    between atoms: O3_11  and  C3_17 
REMARK       I    between atoms: C1_12  and  O4_28 
REMARK       I    between atoms: C5_13  and  C6_35 
REMARK       I    between atoms: C5_14  and  C6_52 
REMARK       I    between atoms: O2S_16  and  S1_75 
REMARK       I    between atoms: C2_18  and  O2_63 
REMARK       I    between atoms: C5_19  and  C6_22 
REMARK       I    between atoms: O2_20  and  C2_53 
REMARK       I    between atoms: O2_20  and  S_86 
REMARK       I    between atoms: O4_21  and  C1_67 
REMARK       I    between atoms: O4_21  and  C4_48 
REMARK       I    between atoms: O3_26  and  C3_72 
REMARK       I    between atoms: O4_28  and  C4_71 
REMARK       I    between atoms: O3_30  and  C3_94 
REMARK       I    between atoms: N_33  and  C2_82 
REMARK       I    between atoms: N_33  and  S1_75 
REMARK       I    between atoms: C6_35  and  O6_59 
REMARK       I    between atoms: S1_36  and  N_37 
REMARK       I    between atoms: S1_36  and  O1S_89 
REMARK       I    between atoms: S1_36  and  O3S_97 
REMARK       I    between atoms: N_37  and  C2_78 
REMARK       I    between atoms: C3_38  and  O3_81 
REMARK       I    between atoms: O4_39  and  C1_85 
REMARK       I    between atoms: O4_39  and  C4_69 
REMARK       I    between atoms: O3_40  and  C3_47 
REMARK       I    between atoms: O4_41  and  C1_76 
REMARK       I    between atoms: O4_41  and  C4_43 
REMARK       I    between atoms: S2_44  and  O6_80 
REMARK       I    between atoms: S_46  and  O2_57 
REMARK       I    between atoms: O3S_49  and  S1_75 
REMARK       I    between atoms: C1_54  and  O4_96 
REMARK       I    between atoms: O2_57  and  C2_66 
REMARK       I    between atoms: O6_58  and  C6_64 
REMARK       I    between atoms: O6_58  and  S2_101 
REMARK       I    between atoms: O6_59  and  S2_73 
REMARK       I    between atoms: O3_61  and  C3_77 
REMARK       I    between atoms: O2_63  and  S_104 
REMARK       I    between atoms: S1_75  and  O1S_92 
REMARK       I    between atoms: O6_80  and  C6_88 
REMARK       I    between atoms: C5_83  and  C6_88 
REMARK       I    between atoms: O3S_84  and  S1_100 
REMARK       I    between atoms: C5_87  and  C6_103 
REMARK       I    between atoms: O1S_91  and  S1_100 
REMARK       I    between atoms: O4_96  and  C4_99 
ROOT
ATOM      1  N   SGN d 304      23.554   9.284  14.317  0.00  0.00    -0.210 NA
ATOM      2  O2S SGN d 304      23.398  11.613  13.449  0.00  0.00    -0.296 OA
ATOM      3  C5  SGN d 304      21.310   7.749  11.142  0.00  0.00     0.091 C 
ATOM      4  O5S SGN d 304      18.271   7.509   8.425  0.00  0.00    -0.572 OA
ATOM      5  O3  SGN d 304      21.254   7.565  14.892  0.00  0.00    -0.391 OA
ATOM      6  C3  SGN d 304      21.833   7.638  13.602  0.00  0.00     0.083 C 
ATOM      7  O4  SGN d 304      19.914   6.428  12.693  0.00  0.00    -0.348 OA
ATOM      8  O5  SGN d 304      22.090   8.923  11.024  0.00  0.00    -0.349 OA
ATOM      9  C4  SGN d 304      20.704   7.647  12.561  0.00  0.00     0.095 C 
ATOM     10  O4S SGN d 304      19.810   7.973   6.493  0.00  0.00    -0.572 OA
ATOM     11  O6S SGN d 304      18.936   9.723   7.869  0.00  0.00    -0.572 OA
ATOM     12  O6  SGN d 304      20.602   8.025   8.750  0.00  0.00    -0.254 OA
ATOM     13  C6  SGN d 304      20.158   7.891  10.093  0.00  0.00     0.067 C 
ATOM     14  C2  SGN d 304      22.514   9.019  13.385  0.00  0.00     0.081 C 
ATOM     15  O3S SGN d 304      22.131  11.074  15.447  0.00  0.00    -0.296 OA
ATOM     16  C1  SGN d 304      23.176   9.043  12.007  0.00  0.00     0.150 C 
ATOM     17  O1S SGN d 304      24.528  11.101  15.682  0.00  0.00    -0.296 OA
ATOM     18  S1  SGN d 304      23.477  10.877  14.732  0.00  0.00     0.156 S 
ATOM     19  S2  SGN d 304      19.355   8.251   7.828  0.00  0.00     0.251 S 
ATOM     20  H   SGN d 304      24.458   9.081  13.892  0.00  0.00     0.140 HD
ATOM     21  H   SGN d 304      22.618  11.316  12.954  0.00  0.00     0.231 HD
ATOM     22  H   SGN d 304      21.902   6.873  10.975  0.00  0.00     0.090 H 
ATOM     23  H   SGN d 304      21.956   7.559  15.561  0.00  0.00     0.210 HD
ATOM     24  H   SGN d 304      22.518   6.821  13.510  0.00  0.00     0.089 H 
ATOM     25  H   SGN d 304      20.066   8.490  12.723  0.00  0.00     0.091 H 
ATOM     26  H   SGN d 304      19.581   8.757  10.343  0.00  0.00     0.080 H 
ATOM     27  H   SGN d 304      19.591   6.984  10.138  0.00  0.00     0.080 H 
ATOM     28  H   SGN d 304      21.741   9.749  13.498  0.00  0.00     0.076 H 
ATOM     29  H   SGN d 304      21.406  10.926  14.819  0.00  0.00     0.231 HD
ATOM     30  H   SGN d 304      23.712   9.932  11.748  0.00  0.00     0.131 H 
ATOM     31  H   SGN d 304      25.387  10.982  15.248  0.00  0.00     0.231 HD
ATOM     32  O6S SGN d 306      27.071   1.347  12.066  0.00  0.00    -0.572 OA
ATOM     33  O5S SGN d 306      29.123   1.456  13.356  0.00  0.00    -0.572 OA
ATOM     34  O2S SGN d 306      28.324   6.011   5.497  0.00  0.00    -0.296 OA
ATOM     35  C1  SGN d 306      29.839   4.661   8.164  0.00  0.00     0.038 C 
ATOM     36  N   SGN d 306      30.000   6.791   7.091  0.00  0.00    -0.212 NA
ATOM     37  O3  SGN d 306      28.965   8.121   9.232  0.00  0.00    -0.391 OA
ATOM     38  S2  SGN d 306      28.606   1.203  12.011  0.00  0.00     0.251 S 
ATOM     39  C3  SGN d 306      29.457   6.784   9.389  0.00  0.00     0.081 C 
ATOM     40  O3S SGN d 306      27.926   8.197   6.502  0.00  0.00    -0.296 OA
ATOM     41  O4S SGN d 306      28.915   0.000  11.278  0.00  0.00    -0.572 OA
ATOM     42  O5  SGN d 306      29.136   3.909   9.163  0.00  0.00    -0.379 OA
ATOM     43  S1  SGN d 306      29.017   7.269   5.877  0.00  0.00     0.156 S 
ATOM     44  O6  SGN d 306      29.206   2.334  11.175  0.00  0.00    -0.254 OA
ATOM     45  C2  SGN d 306      29.304   6.073   8.088  0.00  0.00     0.054 C 
ATOM     46  C5  SGN d 306      29.240   4.544  10.456  0.00  0.00     0.087 C 
ATOM     47  C6  SGN d 306      28.508   3.596  11.399  0.00  0.00     0.067 C 
ATOM     48  O1S SGN d 306      29.878   8.016   4.946  0.00  0.00    -0.296 OA
ATOM     49  O4  SGN d 306      28.743   6.703  11.745  0.00  0.00    -0.348 OA
ATOM     50  C4  SGN d 306      28.651   5.994  10.429  0.00  0.00     0.095 C 
ATOM     51  H   SGN d 306      27.812   5.684   6.253  0.00  0.00     0.231 HD
ATOM     52  H   SGN d 306      30.879   4.693   8.415  0.00  0.00     0.077 H 
ATOM     53  H   SGN d 306      29.702   4.188   7.214  0.00  0.00     0.077 H 
ATOM     54  H   SGN d 306      30.731   6.193   6.707  0.00  0.00     0.140 HD
ATOM     55  H   SGN d 306      29.499   8.586   8.569  0.00  0.00     0.210 HD
ATOM     56  H   SGN d 306      30.477   6.846   9.708  0.00  0.00     0.089 H 
ATOM     57  H   SGN d 306      27.373   7.681   7.110  0.00  0.00     0.231 HD
ATOM     58  H   SGN d 306      28.262   6.016   7.851  0.00  0.00     0.072 H 
ATOM     59  H   SGN d 306      30.251   4.690  10.775  0.00  0.00     0.090 H 
ATOM     60  H   SGN d 306      28.600   3.915  12.416  0.00  0.00     0.080 H 
ATOM     61  H   SGN d 306      27.455   3.541  11.219  0.00  0.00     0.080 H 
ATOM     62  H   SGN d 306      30.544   7.417   4.573  0.00  0.00     0.231 HD
ATOM     63  H   SGN d 306      27.610   5.927  10.193  0.00  0.00     0.091 H 
ATOM     64  O6S SGN d 302      13.014   6.146  20.789  0.00  0.00    -0.572 OA
ATOM     65  O2S SGN d 302      15.268   2.609  13.607  0.00  0.00    -0.296 OA
ATOM     66  O5S SGN d 302      12.824   8.507  20.263  0.00  0.00    -0.572 OA
ATOM     67  C5  SGN d 302      13.431   6.670  16.585  0.00  0.00     0.091 C 
ATOM     68  O4  SGN d 302      11.210   7.533  16.111  0.00  0.00    -0.348 OA
ATOM     69  O3  SGN d 302      11.256   5.926  13.595  0.00  0.00    -0.391 OA
ATOM     70  C6  SGN d 302      13.139   6.926  18.076  0.00  0.00     0.067 C 
ATOM     71  S1  SGN d 302      14.254   2.915  12.633  0.00  0.00     0.156 S 
ATOM     72  N   SGN d 302      13.709   4.495  12.924  0.00  0.00    -0.210 NA
ATOM     73  O4S SGN d 302      14.974   7.435  21.124  0.00  0.00    -0.572 OA
ATOM     74  O6  SGN d 302      14.283   7.196  18.845  0.00  0.00    -0.254 OA
ATOM     75  O5  SGN d 302      14.350   5.515  16.447  0.00  0.00    -0.349 OA
ATOM     76  C4  SGN d 302      12.110   6.399  15.861  0.00  0.00     0.095 C 
ATOM     77  S2  SGN d 302      13.785   7.392  20.321  0.00  0.00     0.251 S 
ATOM     78  C1  SGN d 302      14.634   5.080  15.052  0.00  0.00     0.150 C 
ATOM     79  C2  SGN d 302      13.326   4.901  14.274  0.00  0.00     0.081 C 
ATOM     80  O1S SGN d 302      14.534   2.907  11.223  0.00  0.00    -0.296 OA
ATOM     81  C3  SGN d 302      12.443   6.169  14.340  0.00  0.00     0.083 C 
ATOM     82  O3S SGN d 302      13.172   1.891  12.937  0.00  0.00    -0.296 OA
ATOM     83  H   SGN d 302      16.016   3.217  13.497  0.00  0.00     0.231 HD
ATOM     84  H   SGN d 302      13.900   7.527  16.150  0.00  0.00     0.090 H 
ATOM     85  H   SGN d 302      10.688   6.713  13.625  0.00  0.00     0.210 HD
ATOM     86  H   SGN d 302      12.661   6.058  18.479  0.00  0.00     0.080 H 
ATOM     87  H   SGN d 302      12.521   7.798  18.124  0.00  0.00     0.080 H 
ATOM     88  H   SGN d 302      12.892   4.638  12.331  0.00  0.00     0.140 HD
ATOM     89  H   SGN d 302      11.605   5.523  16.214  0.00  0.00     0.091 H 
ATOM     90  H   SGN d 302      15.151   4.151  15.171  0.00  0.00     0.131 H 
ATOM     91  H   SGN d 302      12.701   4.145  14.703  0.00  0.00     0.076 H 
ATOM     92  H   SGN d 302      15.224   3.560  11.027  0.00  0.00     0.231 HD
ATOM     93  H   SGN d 302      12.929   7.031  13.932  0.00  0.00     0.089 H 
ATOM     94  H   SGN d 302      12.981   1.893  13.888  0.00  0.00     0.231 HD
ATOM     95  O5  IDS d 303      17.730   7.451  13.138  0.00  0.00    -0.340 OA
ATOM     96  O2S IDS d 303      18.437   5.025   9.539  0.00  0.00    -0.572 OA
ATOM     97  O4  IDS d 303      15.536   5.905  14.296  0.00  0.00    -0.348 OA
ATOM     98  O1S IDS d 303      15.975   4.903   9.054  0.00  0.00    -0.572 OA
ATOM     99  C4  IDS d 303      16.901   5.697  14.664  0.00  0.00     0.103 C 
ATOM    100  S   IDS d 303      17.092   4.610   9.882  0.00  0.00     0.252 S 
ATOM    101  O2  IDS d 303      16.769   5.262  11.338  0.00  0.00    -0.244 OA
ATOM    102  O3  IDS d 303      18.958   4.510  14.426  0.00  0.00    -0.390 OA
ATOM    103  O61 IDS d 303      16.269   9.090  14.866  0.00  0.00    -0.646 OA
ATOM    104  C2  IDS d 303      17.932   5.097  12.268  0.00  0.00     0.134 C 
ATOM    105  C1  IDS d 303      18.539   6.508  12.313  0.00  0.00     0.161 C 
ATOM    106  O3S IDS d 303      17.138   3.079   9.987  0.00  0.00    -0.572 OA
ATOM    107  C3  IDS d 303      17.666   4.626  13.804  0.00  0.00     0.094 C 
ATOM    108  C5  IDS d 303      17.606   7.057  14.560  0.00  0.00     0.152 C 
ATOM    109  O62 IDS d 303      16.538   7.856  16.683  0.00  0.00    -0.646 OA
ATOM    110  C6  IDS d 303      16.762   8.086  15.386  0.00  0.00     0.206 C 
ATOM    111  H   IDS d 303      16.912   5.298  15.657  0.00  0.00     0.092 H 
ATOM    112  H   IDS d 303      18.849   4.230  15.348  0.00  0.00     0.210 HD
ATOM    113  H   IDS d 303      18.526   4.293  11.886  0.00  0.00     0.097 H 
ATOM    114  H   IDS d 303      18.508   6.932  11.331  0.00  0.00     0.133 H 
ATOM    115  H   IDS d 303      17.085   3.728  13.768  0.00  0.00     0.091 H 
ATOM    116  H   IDS d 303      18.599   7.016  14.957  0.00  0.00     0.104 H 
ATOM    117  C1  UAP d 301      11.364   8.851  15.617  0.00  0.00     0.167 C 
ATOM    118  C5  UAP d 301      10.319  10.329  14.073  0.00  0.00     0.147 C 
ATOM    119  O61 UAP d 301       9.533  11.576  12.168  0.00  0.00    -0.642 OA
ATOM    120  C2  UAP d 301      10.921   9.835  16.793  0.00  0.00     0.135 C 
ATOM    121  O62 UAP d 301       9.496   9.335  11.939  0.00  0.00    -0.642 OA
ATOM    122  O3  UAP d 301      12.560  11.631  16.284  0.00  0.00    -0.389 OA
ATOM    123  O5  UAP d 301      10.503   9.036  14.466  0.00  0.00    -0.311 OA
ATOM    124  C6  UAP d 301       9.762  10.468  12.670  0.00  0.00     0.233 C 
ATOM    125  O2  UAP d 301       9.464   9.657  17.172  0.00  0.00    -0.244 OA
ATOM    126  C3  UAP d 301      11.142  11.315  16.267  0.00  0.00     0.086 C 
ATOM    127  O2S UAP d 301      10.099   7.681  18.492  0.00  0.00    -0.572 OA
ATOM    128  C4  UAP d 301      10.588  11.437  14.820  0.00  0.00    -0.034 C 
ATOM    129  O3S UAP d 301       9.926   9.789  19.730  0.00  0.00    -0.572 OA
ATOM    130  O1S UAP d 301       7.858   8.820  18.900  0.00  0.00    -0.572 OA
ATOM    131  S   UAP d 301       9.288   8.912  18.608  0.00  0.00     0.252 S 
ATOM    132  H   UAP d 301      12.373   9.042  15.318  0.00  0.00     0.134 H 
ATOM    133  H   UAP d 301      11.502   9.623  17.666  0.00  0.00     0.097 H 
ATOM    134  H   UAP d 301      12.899  11.552  17.189  0.00  0.00     0.210 HD
ATOM    135  H   UAP d 301      10.624  12.002  16.903  0.00  0.00     0.093 H 
ATOM    136  H   UAP d 301      10.419  12.372  14.418  0.00  0.00     0.085 H 
ATOM    137  C5  IDS d 305      25.889   6.573  10.940  0.00  0.00     0.152 C 
ATOM    138  O2  IDS d 305      26.309   8.210  14.173  0.00  0.00    -0.244 OA
ATOM    139  C6  IDS d 305      24.786   5.673  10.424  0.00  0.00     0.206 C 
ATOM    140  O61 IDS d 305      24.453   4.658  11.047  0.00  0.00    -0.646 OA
ATOM    141  O2S IDS d 305      28.269   7.707  15.571  0.00  0.00    -0.572 OA
ATOM    142  O62 IDS d 305      24.191   5.990   9.264  0.00  0.00    -0.646 OA
ATOM    143  O5  IDS d 305      26.421   6.023  12.200  0.00  0.00    -0.340 OA
ATOM    144  C3  IDS d 305      26.508   8.944  11.761  0.00  0.00     0.094 C 
ATOM    145  O4  IDS d 305      24.166   7.918  12.029  0.00  0.00    -0.348 OA
ATOM    146  O1S IDS d 305      26.160   8.547  16.590  0.00  0.00    -0.572 OA
ATOM    147  C2  IDS d 305      27.201   8.272  13.021  0.00  0.00     0.134 C 
ATOM    148  C1  IDS d 305      27.588   6.791  12.678  0.00  0.00     0.161 C 
ATOM    149  C4  IDS d 305      25.332   8.025  11.167  0.00  0.00     0.103 C 
ATOM    150  O3  IDS d 305      27.511   9.025  10.768  0.00  0.00    -0.390 OA
ATOM    151  S   IDS d 305      27.112   8.589  15.509  0.00  0.00     0.252 S 
ATOM    152  O3S IDS d 305      27.624  10.037  15.352  0.00  0.00    -0.572 OA
ATOM    153  H   IDS d 305      26.679   6.621  10.220  0.00  0.00     0.104 H 
ATOM    154  H   IDS d 305      26.090   9.889  12.041  0.00  0.00     0.091 H 
ATOM    155  H   IDS d 305      28.056   8.873  13.258  0.00  0.00     0.097 H 
ATOM    156  H   IDS d 305      27.913   6.336  13.591  0.00  0.00     0.133 H 
ATOM    157  H   IDS d 305      25.017   8.496  10.259  0.00  0.00     0.092 H 
ATOM    158  H   IDS d 305      27.839   8.135  10.568  0.00  0.00     0.210 HD
ENDROOT
TORSDOF 49
ENDMDL
MODEL 12
REMARK VINA RESULT:      -8.6      4.613      7.476
REMARK  0 active torsions:
REMARK  status: ('A' for Active; 'I' for Inactive)
REMARK       I    between atoms: N_1  and  C2_65 
REMARK       I    between atoms: N_1  and  S1_100 
REMARK       I    between atoms: O2S_4  and  S1_36 
REMARK       I    between atoms: O2S_5  and  S1_100 
REMARK       I    between atoms: C5_7  and  C6_64 
REMARK       I    between atoms: O3_11  and  C3_17 
REMARK       I    between atoms: C1_12  and  O4_28 
REMARK       I    between atoms: C5_13  and  C6_35 
REMARK       I    between atoms: C5_14  and  C6_52 
REMARK       I    between atoms: O2S_16  and  S1_75 
REMARK       I    between atoms: C2_18  and  O2_63 
REMARK       I    between atoms: C5_19  and  C6_22 
REMARK       I    between atoms: O2_20  and  C2_53 
REMARK       I    between atoms: O2_20  and  S_86 
REMARK       I    between atoms: O4_21  and  C1_67 
REMARK       I    between atoms: O4_21  and  C4_48 
REMARK       I    between atoms: O3_26  and  C3_72 
REMARK       I    between atoms: O4_28  and  C4_71 
REMARK       I    between atoms: O3_30  and  C3_94 
REMARK       I    between atoms: N_33  and  C2_82 
REMARK       I    between atoms: N_33  and  S1_75 
REMARK       I    between atoms: C6_35  and  O6_59 
REMARK       I    between atoms: S1_36  and  N_37 
REMARK       I    between atoms: S1_36  and  O1S_89 
REMARK       I    between atoms: S1_36  and  O3S_97 
REMARK       I    between atoms: N_37  and  C2_78 
REMARK       I    between atoms: C3_38  and  O3_81 
REMARK       I    between atoms: O4_39  and  C1_85 
REMARK       I    between atoms: O4_39  and  C4_69 
REMARK       I    between atoms: O3_40  and  C3_47 
REMARK       I    between atoms: O4_41  and  C1_76 
REMARK       I    between atoms: O4_41  and  C4_43 
REMARK       I    between atoms: S2_44  and  O6_80 
REMARK       I    between atoms: S_46  and  O2_57 
REMARK       I    between atoms: O3S_49  and  S1_75 
REMARK       I    between atoms: C1_54  and  O4_96 
REMARK       I    between atoms: O2_57  and  C2_66 
REMARK       I    between atoms: O6_58  and  C6_64 
REMARK       I    between atoms: O6_58  and  S2_101 
REMARK       I    between atoms: O6_59  and  S2_73 
REMARK       I    between atoms: O3_61  and  C3_77 
REMARK       I    between atoms: O2_63  and  S_104 
REMARK       I    between atoms: S1_75  and  O1S_92 
REMARK       I    between atoms: O6_80  and  C6_88 
REMARK       I    between atoms: C5_83  and  C6_88 
REMARK       I    between atoms: O3S_84  and  S1_100 
REMARK       I    between atoms: C5_87  and  C6_103 
REMARK       I    between atoms: O1S_91  and  S1_100 
REMARK       I    between atoms: O4_96  and  C4_99 
ROOT
ATOM      1  N   SGN d 304      26.290  14.156   9.171  0.00  0.00    -0.210 NA
ATOM      2  O2S SGN d 304      27.254  15.365  11.123  0.00  0.00    -0.296 OA
ATOM      3  C5  SGN d 304      22.491  13.994  10.908  0.00  0.00     0.091 C 
ATOM      4  O5S SGN d 304      19.682  13.422  13.816  0.00  0.00    -0.572 OA
ATOM      5  O3  SGN d 304      24.899  11.585   9.329  0.00  0.00    -0.391 OA
ATOM      6  C3  SGN d 304      24.224  12.816   9.514  0.00  0.00     0.083 C 
ATOM      7  O4  SGN d 304      22.274  11.600  10.344  0.00  0.00    -0.348 OA
ATOM      8  O5  SGN d 304      23.420  15.019  11.206  0.00  0.00    -0.349 OA
ATOM      9  C4  SGN d 304      23.226  12.655  10.670  0.00  0.00     0.095 C 
ATOM     10  O4S SGN d 304      19.092  15.863  13.885  0.00  0.00    -0.572 OA
ATOM     11  O6S SGN d 304      20.996  14.984  15.035  0.00  0.00    -0.572 OA
ATOM     12  O6  SGN d 304      20.868  15.056  12.502  0.00  0.00    -0.254 OA
ATOM     13  C6  SGN d 304      21.573  13.868  12.168  0.00  0.00     0.067 C 
ATOM     14  C2  SGN d 304      25.202  13.900  10.049  0.00  0.00     0.081 C 
ATOM     15  O3S SGN d 304      27.910  13.052  10.802  0.00  0.00    -0.296 OA
ATOM     16  C1  SGN d 304      24.456  15.228  10.184  0.00  0.00     0.150 C 
ATOM     17  O1S SGN d 304      28.718  14.623   9.165  0.00  0.00    -0.296 OA
ATOM     18  S1  SGN d 304      27.643  14.384  10.084  0.00  0.00     0.156 S 
ATOM     19  S2  SGN d 304      20.069  14.811  13.828  0.00  0.00     0.251 S 
ATOM     20  H   SGN d 304      26.100  14.993   8.621  0.00  0.00     0.140 HD
ATOM     21  H   SGN d 304      26.510  15.015  11.636  0.00  0.00     0.231 HD
ATOM     22  H   SGN d 304      21.933  14.223  10.024  0.00  0.00     0.090 H 
ATOM     23  H   SGN d 304      25.534  11.670   8.601  0.00  0.00     0.210 HD
ATOM     24  H   SGN d 304      23.782  13.084   8.577  0.00  0.00     0.089 H 
ATOM     25  H   SGN d 304      23.747  12.386  11.565  0.00  0.00     0.091 H 
ATOM     26  H   SGN d 304      22.184  13.595  13.003  0.00  0.00     0.080 H 
ATOM     27  H   SGN d 304      20.834  13.131  11.934  0.00  0.00     0.080 H 
ATOM     28  H   SGN d 304      25.576  13.526  10.979  0.00  0.00     0.076 H 
ATOM     29  H   SGN d 304      27.192  12.872  11.429  0.00  0.00     0.231 HD
ATOM     30  H   SGN d 304      25.029  16.069  10.512  0.00  0.00     0.131 H 
ATOM     31  H   SGN d 304      28.567  15.462   8.702  0.00  0.00     0.231 HD
ATOM     32  O6S SGN d 306      20.247  15.368   2.655  0.00  0.00    -0.572 OA
ATOM     33  O5S SGN d 306      21.738  16.072   0.875  0.00  0.00    -0.572 OA
ATOM     34  O2S SGN d 306      19.308  21.878   7.473  0.00  0.00    -0.296 OA
ATOM     35  C1  SGN d 306      20.593  20.860   4.551  0.00  0.00     0.038 C 
ATOM     36  N   SGN d 306      21.365  22.353   6.250  0.00  0.00    -0.212 NA
ATOM     37  O3  SGN d 306      23.459  20.748   6.928  0.00  0.00    -0.391 OA
ATOM     38  S2  SGN d 306      20.514  16.447   1.585  0.00  0.00     0.251 S 
ATOM     39  C3  SGN d 306      22.779  20.550   5.681  0.00  0.00     0.081 C 
ATOM     40  O3S SGN d 306      21.383  21.713   8.743  0.00  0.00    -0.296 OA
ATOM     41  O4S SGN d 306      19.273  16.712   0.900  0.00  0.00    -0.572 OA
ATOM     42  O5  SGN d 306      20.571  19.491   4.124  0.00  0.00    -0.379 OA
ATOM     43  S1  SGN d 306      20.609  22.562   7.684  0.00  0.00     0.156 S 
ATOM     44  O6  SGN d 306      20.879  17.770   2.258  0.00  0.00    -0.254 OA
ATOM     45  C2  SGN d 306      21.368  21.001   5.841  0.00  0.00     0.054 C 
ATOM     46  C5  SGN d 306      21.912  18.983   3.950  0.00  0.00     0.087 C 
ATOM     47  C6  SGN d 306      21.712  17.561   3.438  0.00  0.00     0.067 C 
ATOM     48  O1S SGN d 306      20.714  24.000   7.976  0.00  0.00    -0.296 OA
ATOM     49  O4  SGN d 306      24.138  18.564   5.153  0.00  0.00    -0.348 OA
ATOM     50  C4  SGN d 306      22.733  19.070   5.281  0.00  0.00     0.095 C 
ATOM     51  H   SGN d 306      19.462  20.938   7.294  0.00  0.00     0.231 HD
ATOM     52  H   SGN d 306      21.058  21.457   3.794  0.00  0.00     0.077 H 
ATOM     53  H   SGN d 306      19.587  21.187   4.714  0.00  0.00     0.077 H 
ATOM     54  H   SGN d 306      20.886  22.909   5.541  0.00  0.00     0.140 HD
ATOM     55  H   SGN d 306      23.467  21.693   7.145  0.00  0.00     0.210 HD
ATOM     56  H   SGN d 306      23.306  21.101   4.930  0.00  0.00     0.089 H 
ATOM     57  H   SGN d 306      21.298  20.771   8.527  0.00  0.00     0.231 HD
ATOM     58  H   SGN d 306      20.894  20.387   6.577  0.00  0.00     0.072 H 
ATOM     59  H   SGN d 306      22.496  19.556   3.259  0.00  0.00     0.090 H 
ATOM     60  H   SGN d 306      22.646  17.108   3.178  0.00  0.00     0.080 H 
ATOM     61  H   SGN d 306      21.275  16.904   4.160  0.00  0.00     0.080 H 
ATOM     62  H   SGN d 306      20.226  24.503   7.305  0.00  0.00     0.231 HD
ATOM     63  H   SGN d 306      22.254  18.451   6.010  0.00  0.00     0.091 H 
ATOM     64  O6S SGN d 302      25.769   1.607  11.422  0.00  0.00    -0.572 OA
ATOM     65  O2S SGN d 302      19.058   6.439  10.539  0.00  0.00    -0.296 OA
ATOM     66  O5S SGN d 302      26.980   2.592  13.281  0.00  0.00    -0.572 OA
ATOM     67  C5  SGN d 302      23.381   4.668  13.167  0.00  0.00     0.091 C 
ATOM     68  O4  SGN d 302      23.066   3.670  15.360  0.00  0.00    -0.348 OA
ATOM     69  O3  SGN d 302      20.268   4.708  15.297  0.00  0.00    -0.391 OA
ATOM     70  C6  SGN d 302      24.493   3.630  12.927  0.00  0.00     0.067 C 
ATOM     71  S1  SGN d 302      18.339   6.420  11.785  0.00  0.00     0.156 S 
ATOM     72  N   SGN d 302      19.476   6.386  13.044  0.00  0.00    -0.210 NA
ATOM     73  O4S SGN d 302      27.395   3.231  10.845  0.00  0.00    -0.572 OA
ATOM     74  O6  SGN d 302      25.501   4.062  12.051  0.00  0.00    -0.254 OA
ATOM     75  O5  SGN d 302      22.738   5.018  11.879  0.00  0.00    -0.349 OA
ATOM     76  C4  SGN d 302      22.356   4.082  14.141  0.00  0.00     0.095 C 
ATOM     77  S2  SGN d 302      26.507   2.865  11.912  0.00  0.00     0.251 S 
ATOM     78  C1  SGN d 302      21.566   5.932  11.970  0.00  0.00     0.150 C 
ATOM     79  C2  SGN d 302      20.571   5.419  13.016  0.00  0.00     0.081 C 
ATOM     80  O1S SGN d 302      17.449   7.485  12.161  0.00  0.00    -0.296 OA
ATOM     81  C3  SGN d 302      21.253   5.178  14.383  0.00  0.00     0.083 C 
ATOM     82  O3S SGN d 302      17.560   5.117  11.707  0.00  0.00    -0.296 OA
ATOM     83  H   SGN d 302      19.596   7.245  10.488  0.00  0.00     0.231 HD
ATOM     84  H   SGN d 302      23.796   5.560  13.589  0.00  0.00     0.090 H 
ATOM     85  H   SGN d 302      20.679   4.551  16.162  0.00  0.00     0.210 HD
ATOM     86  H   SGN d 302      24.047   2.748  12.518  0.00  0.00     0.080 H 
ATOM     87  H   SGN d 302      24.961   3.454  13.874  0.00  0.00     0.080 H 
ATOM     88  H   SGN d 302      18.956   6.217  13.904  0.00  0.00     0.140 HD
ATOM     89  H   SGN d 302      21.864   3.210  13.764  0.00  0.00     0.091 H 
ATOM     90  H   SGN d 302      21.147   5.913  10.986  0.00  0.00     0.131 H 
ATOM     91  H   SGN d 302      20.180   4.455  12.764  0.00  0.00     0.076 H 
ATOM     92  H   SGN d 302      17.945   8.317  12.211  0.00  0.00     0.231 HD
ATOM     93  H   SGN d 302      21.694   6.066  14.786  0.00  0.00     0.089 H 
ATOM     94  H   SGN d 302      18.158   4.396  11.453  0.00  0.00     0.231 HD
ATOM     95  O5  IDS d 303      22.703  10.116  12.249  0.00  0.00    -0.340 OA
ATOM     96  O2S IDS d 303      18.781  12.015  11.659  0.00  0.00    -0.572 OA
ATOM     97  O4  IDS d 303      21.855   7.318  12.217  0.00  0.00    -0.348 OA
ATOM     98  O1S IDS d 303      17.722  10.520  13.377  0.00  0.00    -0.572 OA
ATOM     99  C4  IDS d 303      22.321   7.994  11.047  0.00  0.00     0.103 C 
ATOM    100  S   IDS d 303      18.377  10.706  12.130  0.00  0.00     0.252 S 
ATOM    101  O2  IDS d 303      19.728   9.800  12.180  0.00  0.00    -0.244 OA
ATOM    102  O3  IDS d 303      21.886   9.205   9.037  0.00  0.00    -0.390 OA
ATOM    103  O61 IDS d 303      24.616   8.564  13.568  0.00  0.00    -0.646 OA
ATOM    104  C2  IDS d 303      20.553  10.001  10.945  0.00  0.00     0.134 C 
ATOM    105  C1  IDS d 303      21.709  10.882  11.443  0.00  0.00     0.161 C 
ATOM    106  O3S IDS d 303      17.411  10.158  11.070  0.00  0.00    -0.572 OA
ATOM    107  C3  IDS d 303      21.204   8.706  10.201  0.00  0.00     0.094 C 
ATOM    108  C5  IDS d 303      23.367   9.019  11.507  0.00  0.00     0.152 C 
ATOM    109  O62 IDS d 303      25.077   7.221  11.871  0.00  0.00    -0.646 OA
ATOM    110  C6  IDS d 303      24.411   8.256  12.392  0.00  0.00     0.206 C 
ATOM    111  H   IDS d 303      22.726   7.256  10.386  0.00  0.00     0.092 H 
ATOM    112  H   IDS d 303      22.292   8.465   8.559  0.00  0.00     0.210 HD
ATOM    113  H   IDS d 303      19.898  10.387  10.192  0.00  0.00     0.097 H 
ATOM    114  H   IDS d 303      21.324  11.607  12.129  0.00  0.00     0.133 H 
ATOM    115  H   IDS d 303      20.411   8.012  10.014  0.00  0.00     0.091 H 
ATOM    116  H   IDS d 303      23.869   9.468  10.676  0.00  0.00     0.104 H 
ATOM    117  C1  UAP d 301      23.674   4.528  16.307  0.00  0.00     0.167 C 
ATOM    118  C5  UAP d 301      23.362   5.233  18.558  0.00  0.00     0.147 C 
ATOM    119  O61 UAP d 301      22.716   6.267  20.636  0.00  0.00    -0.642 OA
ATOM    120  C2  UAP d 301      25.031   3.821  16.762  0.00  0.00     0.135 C 
ATOM    121  O62 UAP d 301      21.016   5.625  19.304  0.00  0.00    -0.642 OA
ATOM    122  O3  UAP d 301      26.346   5.908  17.058  0.00  0.00    -0.389 OA
ATOM    123  O5  UAP d 301      22.793   4.686  17.447  0.00  0.00    -0.311 OA
ATOM    124  C6  UAP d 301      22.358   5.747  19.571  0.00  0.00     0.233 C 
ATOM    125  O2  UAP d 301      24.784   2.491  17.444  0.00  0.00    -0.244 OA
ATOM    126  C3  UAP d 301      25.746   4.802  17.783  0.00  0.00     0.086 C 
ATOM    127  O2S UAP d 301      24.494   1.464  15.228  0.00  0.00    -0.572 OA
ATOM    128  C4  UAP d 301      24.700   5.338  18.801  0.00  0.00    -0.034 C 
ATOM    129  O3S UAP d 301      26.734   1.289  16.207  0.00  0.00    -0.572 OA
ATOM    130  O1S UAP d 301      24.963   0.000  17.259  0.00  0.00    -0.572 OA
ATOM    131  S   UAP d 301      25.203   1.229  16.504  0.00  0.00     0.252 S 
ATOM    132  H   UAP d 301      23.867   5.495  15.894  0.00  0.00     0.134 H 
ATOM    133  H   UAP d 301      25.631   3.626  15.898  0.00  0.00     0.097 H 
ATOM    134  H   UAP d 301      26.996   5.565  16.425  0.00  0.00     0.210 HD
ATOM    135  H   UAP d 301      26.512   4.274  18.311  0.00  0.00     0.093 H 
ATOM    136  H   UAP d 301      25.023   5.782  19.674  0.00  0.00     0.085 H 
ATOM    137  C5  IDS d 305      22.752  16.983   7.249  0.00  0.00     0.152 C 
ATOM    138  O2  IDS d 305      26.180  15.845   6.741  0.00  0.00    -0.244 OA
ATOM    139  C6  IDS d 305      21.495  16.212   7.592  0.00  0.00     0.206 C 
ATOM    140  O61 IDS d 305      21.135  15.249   6.904  0.00  0.00    -0.646 OA
ATOM    141  O2S IDS d 305      27.300  16.211   4.583  0.00  0.00    -0.572 OA
ATOM    142  O62 IDS d 305      20.767  16.609   8.646  0.00  0.00    -0.646 OA
ATOM    143  O5  IDS d 305      23.371  16.400   6.044  0.00  0.00    -0.340 OA
ATOM    144  C3  IDS d 305      25.096  17.719   8.049  0.00  0.00     0.094 C 
ATOM    145  O4  IDS d 305      23.960  15.540   8.804  0.00  0.00    -0.348 OA
ATOM    146  O1S IDS d 305      28.014  14.365   6.092  0.00  0.00    -0.572 OA
ATOM    147  C2  IDS d 305      25.674  17.210   6.661  0.00  0.00     0.134 C 
ATOM    148  C1  IDS d 305      24.528  17.197   5.589  0.00  0.00     0.161 C 
ATOM    149  C4  IDS d 305      23.754  16.937   8.458  0.00  0.00     0.103 C 
ATOM    150  O3  IDS d 305      24.740  19.072   7.844  0.00  0.00    -0.390 OA
ATOM    151  S   IDS d 305      27.559  15.722   5.930  0.00  0.00     0.252 S 
ATOM    152  O3S IDS d 305      28.579  16.672   6.594  0.00  0.00    -0.572 OA
ATOM    153  H   IDS d 305      22.503  18.005   7.053  0.00  0.00     0.104 H 
ATOM    154  H   IDS d 305      25.824  17.567   8.819  0.00  0.00     0.091 H 
ATOM    155  H   IDS d 305      26.471  17.876   6.398  0.00  0.00     0.097 H 
ATOM    156  H   IDS d 305      24.922  16.713   4.720  0.00  0.00     0.133 H 
ATOM    157  H   IDS d 305      23.377  17.430   9.329  0.00  0.00     0.092 H 
ATOM    158  H   IDS d 305      24.081  19.128   7.136  0.00  0.00     0.210 HD
ENDROOT
TORSDOF 49
ENDMDL
MODEL 13
REMARK VINA RESULT:      -8.6      2.631     15.229
REMARK  0 active torsions:
REMARK  status: ('A' for Active; 'I' for Inactive)
REMARK       I    between atoms: N_1  and  C2_65 
REMARK       I    between atoms: N_1  and  S1_100 
REMARK       I    between atoms: O2S_4  and  S1_36 
REMARK       I    between atoms: O2S_5  and  S1_100 
REMARK       I    between atoms: C5_7  and  C6_64 
REMARK       I    between atoms: O3_11  and  C3_17 
REMARK       I    between atoms: C1_12  and  O4_28 
REMARK       I    between atoms: C5_13  and  C6_35 
REMARK       I    between atoms: C5_14  and  C6_52 
REMARK       I    between atoms: O2S_16  and  S1_75 
REMARK       I    between atoms: C2_18  and  O2_63 
REMARK       I    between atoms: C5_19  and  C6_22 
REMARK       I    between atoms: O2_20  and  C2_53 
REMARK       I    between atoms: O2_20  and  S_86 
REMARK       I    between atoms: O4_21  and  C1_67 
REMARK       I    between atoms: O4_21  and  C4_48 
REMARK       I    between atoms: O3_26  and  C3_72 
REMARK       I    between atoms: O4_28  and  C4_71 
REMARK       I    between atoms: O3_30  and  C3_94 
REMARK       I    between atoms: N_33  and  C2_82 
REMARK       I    between atoms: N_33  and  S1_75 
REMARK       I    between atoms: C6_35  and  O6_59 
REMARK       I    between atoms: S1_36  and  N_37 
REMARK       I    between atoms: S1_36  and  O1S_89 
REMARK       I    between atoms: S1_36  and  O3S_97 
REMARK       I    between atoms: N_37  and  C2_78 
REMARK       I    between atoms: C3_38  and  O3_81 
REMARK       I    between atoms: O4_39  and  C1_85 
REMARK       I    between atoms: O4_39  and  C4_69 
REMARK       I    between atoms: O3_40  and  C3_47 
REMARK       I    between atoms: O4_41  and  C1_76 
REMARK       I    between atoms: O4_41  and  C4_43 
REMARK       I    between atoms: S2_44  and  O6_80 
REMARK       I    between atoms: S_46  and  O2_57 
REMARK       I    between atoms: O3S_49  and  S1_75 
REMARK       I    between atoms: C1_54  and  O4_96 
REMARK       I    between atoms: O2_57  and  C2_66 
REMARK       I    between atoms: O6_58  and  C6_64 
REMARK       I    between atoms: O6_58  and  S2_101 
REMARK       I    between atoms: O6_59  and  S2_73 
REMARK       I    between atoms: O3_61  and  C3_77 
REMARK       I    between atoms: O2_63  and  S_104 
REMARK       I    between atoms: S1_75  and  O1S_92 
REMARK       I    between atoms: O6_80  and  C6_88 
REMARK       I    between atoms: C5_83  and  C6_88 
REMARK       I    between atoms: O3S_84  and  S1_100 
REMARK       I    between atoms: C5_87  and  C6_103 
REMARK       I    between atoms: O1S_91  and  S1_100 
REMARK       I    between atoms: O4_96  and  C4_99 
ROOT
ATOM      1  N   SGN d 304      19.139   6.765  10.313  0.00  0.00    -0.210 NA
ATOM      2  O2S SGN d 304      17.242   7.005   8.719  0.00  0.00    -0.296 OA
ATOM      3  C5  SGN d 304      18.141  10.291  12.325  0.00  0.00     0.091 C 
ATOM      4  O5S SGN d 304      17.037  14.193  12.800  0.00  0.00    -0.572 OA
ATOM      5  O3  SGN d 304      21.205   8.791  10.758  0.00  0.00    -0.391 OA
ATOM      6  C3  SGN d 304      19.979   8.802  11.465  0.00  0.00     0.083 C 
ATOM      7  O4  SGN d 304      20.491  11.048  12.280  0.00  0.00    -0.348 OA
ATOM      8  O5  SGN d 304      17.180   9.504  11.648  0.00  0.00    -0.349 OA
ATOM      9  C4  SGN d 304      19.492  10.254  11.574  0.00  0.00     0.095 C 
ATOM     10  O4S SGN d 304      14.810  13.563  13.777  0.00  0.00    -0.572 OA
ATOM     11  O6S SGN d 304      15.203  13.576  11.418  0.00  0.00    -0.572 OA
ATOM     12  O6  SGN d 304      16.321  11.898  12.959  0.00  0.00    -0.254 OA
ATOM     13  C6  SGN d 304      17.581  11.751  12.321  0.00  0.00     0.067 C 
ATOM     14  C2  SGN d 304      18.859   8.122  10.629  0.00  0.00     0.081 C 
ATOM     15  O3S SGN d 304      19.481   7.371   7.860  0.00  0.00    -0.296 OA
ATOM     16  C1  SGN d 304      17.565   8.100  11.444  0.00  0.00     0.150 C 
ATOM     17  O1S SGN d 304      18.939   5.109   8.488  0.00  0.00    -0.296 OA
ATOM     18  S1  SGN d 304      18.625   6.479   8.774  0.00  0.00     0.156 S 
ATOM     19  S2  SGN d 304      15.844  13.383  12.796  0.00  0.00     0.251 S 
ATOM     20  H   SGN d 304      18.646   6.151  10.961  0.00  0.00     0.140 HD
ATOM     21  H   SGN d 304      17.245   7.948   8.945  0.00  0.00     0.231 HD
ATOM     22  H   SGN d 304      18.308   9.927  13.318  0.00  0.00     0.090 H 
ATOM     23  H   SGN d 304      21.526   7.880  10.680  0.00  0.00     0.210 HD
ATOM     24  H   SGN d 304      20.147   8.316  12.404  0.00  0.00     0.089 H 
ATOM     25  H   SGN d 304      19.352  10.665  10.597  0.00  0.00     0.091 H 
ATOM     26  H   SGN d 304      17.480  12.068  11.303  0.00  0.00     0.080 H 
ATOM     27  H   SGN d 304      18.276  12.346  12.876  0.00  0.00     0.080 H 
ATOM     28  H   SGN d 304      18.782   8.689   9.725  0.00  0.00     0.076 H 
ATOM     29  H   SGN d 304      19.283   8.303   8.039  0.00  0.00     0.231 HD
ATOM     30  H   SGN d 304      16.721   7.624  10.991  0.00  0.00     0.131 H 
ATOM     31  H   SGN d 304      18.407   4.531   9.056  0.00  0.00     0.231 HD
ATOM     32  O6S SGN d 306      20.623   5.439  19.058  0.00  0.00    -0.572 OA
ATOM     33  O5S SGN d 306      20.969   3.038  19.030  0.00  0.00    -0.572 OA
ATOM     34  O2S SGN d 306      12.559   6.531  18.554  0.00  0.00    -0.296 OA
ATOM     35  C1  SGN d 306      14.937   4.202  18.945  0.00  0.00     0.038 C 
ATOM     36  N   SGN d 306      12.892   4.265  17.710  0.00  0.00    -0.212 NA
ATOM     37  O3  SGN d 306      14.162   4.150  15.302  0.00  0.00    -0.391 OA
ATOM     38  S2  SGN d 306      20.202   4.095  19.689  0.00  0.00     0.251 S 
ATOM     39  C3  SGN d 306      14.864   3.793  16.501  0.00  0.00     0.081 C 
ATOM     40  O3S SGN d 306      12.284   6.221  16.151  0.00  0.00    -0.296 OA
ATOM     41  O4S SGN d 306      20.185   4.260  21.121  0.00  0.00    -0.572 OA
ATOM     42  O5  SGN d 306      16.339   4.503  18.897  0.00  0.00    -0.379 OA
ATOM     43  S1  SGN d 306      11.970   5.606  17.553  0.00  0.00     0.156 S 
ATOM     44  O6  SGN d 306      18.754   3.776  19.316  0.00  0.00    -0.254 OA
ATOM     45  C2  SGN d 306      14.272   4.557  17.635  0.00  0.00     0.054 C 
ATOM     46  C5  SGN d 306      16.981   3.796  17.813  0.00  0.00     0.087 C 
ATOM     47  C6  SGN d 306      18.453   4.168  17.942  0.00  0.00     0.067 C 
ATOM     48  O1S SGN d 306      10.579   5.135  17.626  0.00  0.00    -0.296 OA
ATOM     49  O4  SGN d 306      16.973   3.459  15.271  0.00  0.00    -0.348 OA
ATOM     50  C4  SGN d 306      16.349   4.173  16.431  0.00  0.00     0.095 C 
ATOM     51  H   SGN d 306      13.483   6.714  18.321  0.00  0.00     0.231 HD
ATOM     52  H   SGN d 306      14.808   3.157  19.134  0.00  0.00     0.077 H 
ATOM     53  H   SGN d 306      14.488   4.778  19.728  0.00  0.00     0.077 H 
ATOM     54  H   SGN d 306      12.696   3.835  18.614  0.00  0.00     0.140 HD
ATOM     55  H   SGN d 306      13.230   3.894  15.386  0.00  0.00     0.210 HD
ATOM     56  H   SGN d 306      14.779   2.734  16.626  0.00  0.00     0.089 H 
ATOM     57  H   SGN d 306      13.206   6.524  16.130  0.00  0.00     0.231 HD
ATOM     58  H   SGN d 306      14.426   5.601  17.461  0.00  0.00     0.072 H 
ATOM     59  H   SGN d 306      16.852   2.734  17.865  0.00  0.00     0.090 H 
ATOM     60  H   SGN d 306      19.053   3.623  17.244  0.00  0.00     0.080 H 
ATOM     61  H   SGN d 306      18.654   5.198  17.737  0.00  0.00     0.080 H 
ATOM     62  H   SGN d 306      10.411   4.758  18.504  0.00  0.00     0.231 HD
ATOM     63  H   SGN d 306      16.509   5.218  16.265  0.00  0.00     0.091 H 
ATOM     64  O6S SGN d 302      29.060  13.908   6.656  0.00  0.00    -0.572 OA
ATOM     65  O2S SGN d 302      24.659  15.285  13.577  0.00  0.00    -0.296 OA
ATOM     66  O5S SGN d 302      27.424  14.032   4.868  0.00  0.00    -0.572 OA
ATOM     67  C5  SGN d 302      25.347  15.233   8.262  0.00  0.00     0.091 C 
ATOM     68  O4  SGN d 302      25.166  17.335   7.057  0.00  0.00    -0.348 OA
ATOM     69  O3  SGN d 302      24.045  18.529   9.552  0.00  0.00    -0.391 OA
ATOM     70  C6  SGN d 302      26.467  14.842   7.279  0.00  0.00     0.067 C 
ATOM     71  S1  SGN d 302      24.029  16.572  13.445  0.00  0.00     0.156 S 
ATOM     72  N   SGN d 302      23.564  16.762  11.825  0.00  0.00    -0.210 NA
ATOM     73  O4S SGN d 302      28.043  11.856   6.049  0.00  0.00    -0.572 OA
ATOM     74  O6  SGN d 302      26.585  13.460   7.066  0.00  0.00    -0.254 OA
ATOM     75  O5  SGN d 302      25.591  14.594   9.576  0.00  0.00    -0.349 OA
ATOM     76  C4  SGN d 302      25.317  16.757   8.399  0.00  0.00     0.095 C 
ATOM     77  S2  SGN d 302      27.788  13.268   6.075  0.00  0.00     0.251 S 
ATOM     78  C1  SGN d 302      24.645  14.971  10.662  0.00  0.00     0.150 C 
ATOM     79  C2  SGN d 302      24.519  16.496  10.752  0.00  0.00     0.081 C 
ATOM     80  O1S SGN d 302      22.841  16.911  14.181  0.00  0.00    -0.296 OA
ATOM     81  C3  SGN d 302      24.147  17.119   9.387  0.00  0.00     0.083 C 
ATOM     82  O3S SGN d 302      25.144  17.536  13.818  0.00  0.00    -0.296 OA
ATOM     83  H   SGN d 302      24.020  14.589  13.358  0.00  0.00     0.231 HD
ATOM     84  H   SGN d 302      24.401  14.895   7.894  0.00  0.00     0.090 H 
ATOM     85  H   SGN d 302      23.812  18.938   8.704  0.00  0.00     0.210 HD
ATOM     86  H   SGN d 302      27.396  15.203   7.667  0.00  0.00     0.080 H 
ATOM     87  H   SGN d 302      26.216  15.280   6.335  0.00  0.00     0.080 H 
ATOM     88  H   SGN d 302      23.263  17.731  11.717  0.00  0.00     0.140 HD
ATOM     89  H   SGN d 302      26.219  17.164   8.808  0.00  0.00     0.091 H 
ATOM     90  H   SGN d 302      25.089  14.561  11.546  0.00  0.00     0.131 H 
ATOM     91  H   SGN d 302      25.452  16.966  10.989  0.00  0.00     0.076 H 
ATOM     92  H   SGN d 302      22.128  16.297  13.944  0.00  0.00     0.231 HD
ATOM     93  H   SGN d 302      23.215  16.755   9.008  0.00  0.00     0.089 H 
ATOM     94  H   SGN d 302      25.947  17.309  13.323  0.00  0.00     0.231 HD
ATOM     95  O5  IDS d 303      20.935  12.714  10.536  0.00  0.00    -0.340 OA
ATOM     96  O2S IDS d 303      19.210  13.859  14.415  0.00  0.00    -0.572 OA
ATOM     97  O4  IDS d 303      23.336  14.381  10.604  0.00  0.00    -0.348 OA
ATOM     98  O1S IDS d 303      19.626  16.294  13.959  0.00  0.00    -0.572 OA
ATOM     99  C4  IDS d 303      23.332  13.021  11.041  0.00  0.00     0.103 C 
ATOM    100  S   IDS d 303      20.104  14.975  14.180  0.00  0.00     0.252 S 
ATOM    101  O2  IDS d 303      20.992  14.582  12.873  0.00  0.00    -0.244 OA
ATOM    102  O3  IDS d 303      23.176  11.402  12.788  0.00  0.00    -0.390 OA
ATOM    103  O61 IDS d 303      21.841  13.121   7.924  0.00  0.00    -0.646 OA
ATOM    104  C2  IDS d 303      21.467  13.163  12.956  0.00  0.00     0.134 C 
ATOM    105  C1  IDS d 303      20.557  12.437  11.952  0.00  0.00     0.161 C 
ATOM    106  O3S IDS d 303      21.002  15.063  15.422  0.00  0.00    -0.572 OA
ATOM    107  C3  IDS d 303      23.009  12.814  12.566  0.00  0.00     0.094 C 
ATOM    108  C5  IDS d 303      22.304  12.275  10.179  0.00  0.00     0.152 C 
ATOM    109  O62 IDS d 303      23.858  12.257   8.211  0.00  0.00    -0.646 OA
ATOM    110  C6  IDS d 303      22.647  12.573   8.680  0.00  0.00     0.206 C 
ATOM    111  H   IDS d 303      24.326  12.640  10.926  0.00  0.00     0.092 H 
ATOM    112  H   IDS d 303      24.086  11.146  12.568  0.00  0.00     0.210 HD
ATOM    113  H   IDS d 303      21.425  12.879  13.987  0.00  0.00     0.097 H 
ATOM    114  H   IDS d 303      19.565  12.828  12.035  0.00  0.00     0.133 H 
ATOM    115  H   IDS d 303      23.639  13.454  13.147  0.00  0.00     0.091 H 
ATOM    116  H   IDS d 303      22.343  11.219  10.347  0.00  0.00     0.104 H 
ATOM    117  C1  UAP d 301      24.019  17.253   6.232  0.00  0.00     0.167 C 
ATOM    118  C5  UAP d 301      22.314  18.674   5.373  0.00  0.00     0.147 C 
ATOM    119  O61 UAP d 301      20.375  20.038   4.951  0.00  0.00    -0.642 OA
ATOM    120  C2  UAP d 301      24.542  17.048   4.738  0.00  0.00     0.135 C 
ATOM    121  O62 UAP d 301      21.419  20.421   6.909  0.00  0.00    -0.642 OA
ATOM    122  O3  UAP d 301      22.681  15.581   3.991  0.00  0.00    -0.389 OA
ATOM    123  O5  UAP d 301      23.269  18.489   6.328  0.00  0.00    -0.311 OA
ATOM    124  C6  UAP d 301      21.301  19.747   5.718  0.00  0.00     0.233 C 
ATOM    125  O2  UAP d 301      25.369  18.222   4.254  0.00  0.00    -0.244 OA
ATOM    126  C3  UAP d 301      23.261  16.901   3.814  0.00  0.00     0.086 C 
ATOM    127  O2S UAP d 301      27.288  17.322   5.500  0.00  0.00    -0.572 OA
ATOM    128  C4  UAP d 301      22.222  17.993   4.195  0.00  0.00    -0.034 C 
ATOM    129  O3S UAP d 301      27.172  16.720   3.128  0.00  0.00    -0.572 OA
ATOM    130  O1S UAP d 301      27.659  19.041   3.658  0.00  0.00    -0.572 OA
ATOM    131  S   UAP d 301      26.954  17.865   4.166  0.00  0.00     0.252 S 
ATOM    132  H   UAP d 301      23.380  16.448   6.527  0.00  0.00     0.134 H 
ATOM    133  H   UAP d 301      25.171  16.184   4.702  0.00  0.00     0.097 H 
ATOM    134  H   UAP d 301      23.336  14.906   3.752  0.00  0.00     0.210 HD
ATOM    135  H   UAP d 301      23.542  17.024   2.789  0.00  0.00     0.093 H 
ATOM    136  H   UAP d 301      21.449  18.207   3.545  0.00  0.00     0.085 H 
ATOM    137  C5  IDS d 305      17.258   6.382  14.843  0.00  0.00     0.152 C 
ATOM    138  O2  IDS d 305      18.789   4.465  12.145  0.00  0.00    -0.244 OA
ATOM    139  C6  IDS d 305      17.668   7.694  15.479  0.00  0.00     0.206 C 
ATOM    140  O61 IDS d 305      18.806   7.849  15.937  0.00  0.00    -0.646 OA
ATOM    141  O2S IDS d 305      19.578   2.170  12.547  0.00  0.00    -0.572 OA
ATOM    142  O62 IDS d 305      16.761   8.680  15.554  0.00  0.00    -0.646 OA
ATOM    143  O5  IDS d 305      18.389   5.438  14.897  0.00  0.00    -0.340 OA
ATOM    144  C3  IDS d 305      16.435   5.212  12.691  0.00  0.00     0.094 C 
ATOM    145  O4  IDS d 305      17.898   7.326  12.684  0.00  0.00    -0.348 OA
ATOM    146  O1S IDS d 305      20.551   3.549  10.718  0.00  0.00    -0.572 OA
ATOM    147  C2  IDS d 305      17.584   4.136  12.898  0.00  0.00     0.134 C 
ATOM    148  C1  IDS d 305      18.002   4.099  14.409  0.00  0.00     0.161 C 
ATOM    149  C4  IDS d 305      16.816   6.625  13.356  0.00  0.00     0.103 C 
ATOM    150  O3  IDS d 305      15.313   4.715  13.392  0.00  0.00    -0.390 OA
ATOM    151  S   IDS d 305      19.396   3.138  11.475  0.00  0.00     0.252 S 
ATOM    152  O3S IDS d 305      18.335   2.578  10.502  0.00  0.00    -0.572 OA
ATOM    153  H   IDS d 305      16.431   5.966  15.380  0.00  0.00     0.104 H 
ATOM    154  H   IDS d 305      16.268   5.364  11.645  0.00  0.00     0.091 H 
ATOM    155  H   IDS d 305      17.191   3.199  12.560  0.00  0.00     0.097 H 
ATOM    156  H   IDS d 305      18.869   3.476  14.476  0.00  0.00     0.133 H 
ATOM    157  H   IDS d 305      15.941   7.235  13.276  0.00  0.00     0.092 H 
ATOM    158  H   IDS d 305      15.540   4.604  14.328  0.00  0.00     0.210 HD
ENDROOT
TORSDOF 49
ENDMDL
MODEL 14
REMARK VINA RESULT:      -8.3      5.664     15.912
REMARK  0 active torsions:
REMARK  status: ('A' for Active; 'I' for Inactive)
REMARK       I    between atoms: N_1  and  C2_65 
REMARK       I    between atoms: N_1  and  S1_100 
REMARK       I    between atoms: O2S_4  and  S1_36 
REMARK       I    between atoms: O2S_5  and  S1_100 
REMARK       I    between atoms: C5_7  and  C6_64 
REMARK       I    between atoms: O3_11  and  C3_17 
REMARK       I    between atoms: C1_12  and  O4_28 
REMARK       I    between atoms: C5_13  and  C6_35 
REMARK       I    between atoms: C5_14  and  C6_52 
REMARK       I    between atoms: O2S_16  and  S1_75 
REMARK       I    between atoms: C2_18  and  O2_63 
REMARK       I    between atoms: C5_19  and  C6_22 
REMARK       I    between atoms: O2_20  and  C2_53 
REMARK       I    between atoms: O2_20  and  S_86 
REMARK       I    between atoms: O4_21  and  C1_67 
REMARK       I    between atoms: O4_21  and  C4_48 
REMARK       I    between atoms: O3_26  and  C3_72 
REMARK       I    between atoms: O4_28  and  C4_71 
REMARK       I    between atoms: O3_30  and  C3_94 
REMARK       I    between atoms: N_33  and  C2_82 
REMARK       I    between atoms: N_33  and  S1_75 
REMARK       I    between atoms: C6_35  and  O6_59 
REMARK       I    between atoms: S1_36  and  N_37 
REMARK       I    between atoms: S1_36  and  O1S_89 
REMARK       I    between atoms: S1_36  and  O3S_97 
REMARK       I    between atoms: N_37  and  C2_78 
REMARK       I    between atoms: C3_38  and  O3_81 
REMARK       I    between atoms: O4_39  and  C1_85 
REMARK       I    between atoms: O4_39  and  C4_69 
REMARK       I    between atoms: O3_40  and  C3_47 
REMARK       I    between atoms: O4_41  and  C1_76 
REMARK       I    between atoms: O4_41  and  C4_43 
REMARK       I    between atoms: S2_44  and  O6_80 
REMARK       I    between atoms: S_46  and  O2_57 
REMARK       I    between atoms: O3S_49  and  S1_75 
REMARK       I    between atoms: C1_54  and  O4_96 
REMARK       I    between atoms: O2_57  and  C2_66 
REMARK       I    between atoms: O6_58  and  C6_64 
REMARK       I    between atoms: O6_58  and  S2_101 
REMARK       I    between atoms: O6_59  and  S2_73 
REMARK       I    between atoms: O3_61  and  C3_77 
REMARK       I    between atoms: O2_63  and  S_104 
REMARK       I    between atoms: S1_75  and  O1S_92 
REMARK       I    between atoms: O6_80  and  C6_88 
REMARK       I    between atoms: C5_83  and  C6_88 
REMARK       I    between atoms: O3S_84  and  S1_100 
REMARK       I    between atoms: C5_87  and  C6_103 
REMARK       I    between atoms: O1S_91  and  S1_100 
REMARK       I    between atoms: O4_96  and  C4_99 
ROOT
ATOM      1  N   SGN d 304      22.022   7.098   7.585  0.00  0.00    -0.210 NA
ATOM      2  O2S SGN d 304      19.572   7.542   7.623  0.00  0.00    -0.296 OA
ATOM      3  C5  SGN d 304      22.724   9.641  10.827  0.00  0.00     0.091 C 
ATOM      4  O5S SGN d 304      22.440  13.000  13.132  0.00  0.00    -0.572 OA
ATOM      5  O3  SGN d 304      24.083   9.165   7.360  0.00  0.00    -0.391 OA
ATOM      6  C3  SGN d 304      23.543   8.777   8.609  0.00  0.00     0.083 C 
ATOM      7  O4  SGN d 304      24.615  10.709   9.651  0.00  0.00    -0.348 OA
ATOM      8  O5  SGN d 304      21.492   8.972  10.639  0.00  0.00    -0.349 OA
ATOM      9  C4  SGN d 304      23.336  10.036   9.463  0.00  0.00     0.095 C 
ATOM     10  O4S SGN d 304      21.220  11.781  14.959  0.00  0.00    -0.572 OA
ATOM     11  O6S SGN d 304      20.103  12.581  13.002  0.00  0.00    -0.572 OA
ATOM     12  O6  SGN d 304      21.792  10.690  12.908  0.00  0.00    -0.254 OA
ATOM     13  C6  SGN d 304      22.391  10.933  11.643  0.00  0.00     0.067 C 
ATOM     14  C2  SGN d 304      22.096   8.234   8.435  0.00  0.00     0.081 C 
ATOM     15  O3S SGN d 304      20.852   8.477   5.787  0.00  0.00    -0.296 OA
ATOM     16  C1  SGN d 304      21.565   7.772   9.793  0.00  0.00     0.150 C 
ATOM     17  O1S SGN d 304      20.628   6.079   5.814  0.00  0.00    -0.296 OA
ATOM     18  S1  SGN d 304      20.659   7.232   6.666  0.00  0.00     0.156 S 
ATOM     19  S2  SGN d 304      21.430  12.066  13.566  0.00  0.00     0.251 S 
ATOM     20  H   SGN d 304      21.977   6.248   8.147  0.00  0.00     0.140 HD
ATOM     21  H   SGN d 304      19.784   8.358   8.101  0.00  0.00     0.231 HD
ATOM     22  H   SGN d 304      23.430   9.016  11.333  0.00  0.00     0.090 H 
ATOM     23  H   SGN d 304      24.220   8.379   6.808  0.00  0.00     0.210 HD
ATOM     24  H   SGN d 304      24.207   8.053   9.035  0.00  0.00     0.089 H 
ATOM     25  H   SGN d 304      22.664  10.705   8.967  0.00  0.00     0.091 H 
ATOM     26  H   SGN d 304      21.719  11.532  11.063  0.00  0.00     0.080 H 
ATOM     27  H   SGN d 304      23.324  11.421  11.836  0.00  0.00     0.080 H 
ATOM     28  H   SGN d 304      21.531   9.036   8.008  0.00  0.00     0.076 H 
ATOM     29  H   SGN d 304      20.876   9.269   6.347  0.00  0.00     0.231 HD
ATOM     30  H   SGN d 304      20.585   7.343   9.803  0.00  0.00     0.131 H 
ATOM     31  H   SGN d 304      20.507   5.282   6.353  0.00  0.00     0.231 HD
ATOM     32  O6S SGN d 306      28.395   3.357  12.666  0.00  0.00    -0.572 OA
ATOM     33  O5S SGN d 306      28.465   1.160  11.639  0.00  0.00    -0.572 OA
ATOM     34  O2S SGN d 306      21.790   3.365  17.447  0.00  0.00    -0.296 OA
ATOM     35  C1  SGN d 306      23.730   1.402  15.546  0.00  0.00     0.038 C 
ATOM     36  N   SGN d 306      21.367   1.547  15.875  0.00  0.00    -0.212 NA
ATOM     37  O3  SGN d 306      20.904   2.370  13.320  0.00  0.00    -0.391 OA
ATOM     38  S2  SGN d 306      28.339   1.838  12.929  0.00  0.00     0.251 S 
ATOM     39  C3  SGN d 306      22.158   1.765  13.662  0.00  0.00     0.081 C 
ATOM     40  O3S SGN d 306      20.092   3.779  15.748  0.00  0.00    -0.296 OA
ATOM     41  O4S SGN d 306      29.207   1.546  14.044  0.00  0.00    -0.572 OA
ATOM     42  O5  SGN d 306      24.833   1.904  14.778  0.00  0.00    -0.379 OA
ATOM     43  S1  SGN d 306      20.646   2.721  16.755  0.00  0.00     0.156 S 
ATOM     44  O6  SGN d 306      26.943   1.443  13.410  0.00  0.00    -0.254 OA
ATOM     45  C2  SGN d 306      22.437   2.045  15.099  0.00  0.00     0.054 C 
ATOM     46  C5  SGN d 306      24.629   1.669  13.368  0.00  0.00     0.087 C 
ATOM     47  C6  SGN d 306      25.902   2.193  12.713  0.00  0.00     0.067 C 
ATOM     48  O1S SGN d 306      19.552   2.053  17.477  0.00  0.00    -0.296 OA
ATOM     49  O4  SGN d 306      23.056   2.139  11.398  0.00  0.00    -0.348 OA
ATOM     50  C4  SGN d 306      23.321   2.360  12.856  0.00  0.00     0.095 C 
ATOM     51  H   SGN d 306      22.395   3.743  16.790  0.00  0.00     0.231 HD
ATOM     52  H   SGN d 306      23.661   0.343  15.412  0.00  0.00     0.077 H 
ATOM     53  H   SGN d 306      23.893   1.635  16.577  0.00  0.00     0.077 H 
ATOM     54  H   SGN d 306      21.726   0.834  16.510  0.00  0.00     0.140 HD
ATOM     55  H   SGN d 306      20.197   1.968  13.849  0.00  0.00     0.210 HD
ATOM     56  H   SGN d 306      22.084   0.719  13.451  0.00  0.00     0.089 H 
ATOM     57  H   SGN d 306      20.832   4.204  15.286  0.00  0.00     0.231 HD
ATOM     58  H   SGN d 306      22.533   3.102  15.229  0.00  0.00     0.072 H 
ATOM     59  H   SGN d 306      24.477   0.637  13.128  0.00  0.00     0.090 H 
ATOM     60  H   SGN d 306      25.912   1.985  11.663  0.00  0.00     0.080 H 
ATOM     61  H   SGN d 306      26.017   3.254  12.787  0.00  0.00     0.080 H 
ATOM     62  H   SGN d 306      19.923   1.402  18.094  0.00  0.00     0.231 HD
ATOM     63  H   SGN d 306      23.428   3.416  12.988  0.00  0.00     0.091 H 
ATOM     64  O6S SGN d 302      28.211  16.386   1.401  0.00  0.00    -0.572 OA
ATOM     65  O2S SGN d 302      29.029  14.894   9.542  0.00  0.00    -0.296 OA
ATOM     66  O5S SGN d 302      25.841  16.819   1.104  0.00  0.00    -0.572 OA
ATOM     67  C5  SGN d 302      26.347  16.593   5.223  0.00  0.00     0.091 C 
ATOM     68  O4  SGN d 302      25.636  18.915   5.149  0.00  0.00    -0.348 OA
ATOM     69  O3  SGN d 302      26.354  19.100   8.040  0.00  0.00    -0.391 OA
ATOM     70  C6  SGN d 302      26.608  16.694   3.708  0.00  0.00     0.067 C 
ATOM     71  S1  SGN d 302      28.550  16.053  10.248  0.00  0.00     0.156 S 
ATOM     72  N   SGN d 302      27.214  16.666   9.401  0.00  0.00    -0.210 NA
ATOM     73  O4S SGN d 302      26.879  14.499   0.875  0.00  0.00    -0.572 OA
ATOM     74  O6  SGN d 302      26.465  15.478   3.020  0.00  0.00    -0.254 OA
ATOM     75  O5  SGN d 302      27.288  15.621   5.828  0.00  0.00    -0.349 OA
ATOM     76  C4  SGN d 302      26.525  17.978   5.850  0.00  0.00     0.095 C 
ATOM     77  S2  SGN d 302      26.802  15.781   1.517  0.00  0.00     0.251 S 
ATOM     78  C1  SGN d 302      27.226  15.501   7.310  0.00  0.00     0.150 C 
ATOM     79  C2  SGN d 302      27.300  16.887   7.959  0.00  0.00     0.081 C 
ATOM     80  O1S SGN d 302      28.081  15.970  11.605  0.00  0.00    -0.296 OA
ATOM     81  C3  SGN d 302      26.225  17.842   7.389  0.00  0.00     0.083 C 
ATOM     82  O3S SGN d 302      29.733  17.005  10.181  0.00  0.00    -0.296 OA
ATOM     83  H   SGN d 302      28.336  14.215   9.527  0.00  0.00     0.231 HD
ATOM     84  H   SGN d 302      25.349  16.252   5.402  0.00  0.00     0.090 H 
ATOM     85  H   SGN d 302      25.687  19.714   7.694  0.00  0.00     0.210 HD
ATOM     86  H   SGN d 302      27.607  17.048   3.561  0.00  0.00     0.080 H 
ATOM     87  H   SGN d 302      25.871  17.361   3.312  0.00  0.00     0.080 H 
ATOM     88  H   SGN d 302      26.985  17.565   9.824  0.00  0.00     0.140 HD
ATOM     89  H   SGN d 302      27.518  18.365   5.750  0.00  0.00     0.091 H 
ATOM     90  H   SGN d 302      28.081  14.906   7.557  0.00  0.00     0.131 H 
ATOM     91  H   SGN d 302      28.218  17.391   7.736  0.00  0.00     0.076 H 
ATOM     92  H   SGN d 302      27.326  15.363  11.650  0.00  0.00     0.231 HD
ATOM     93  H   SGN d 302      25.229  17.481   7.542  0.00  0.00     0.089 H 
ATOM     94  H   SGN d 302      30.051  17.062   9.266  0.00  0.00     0.231 HD
ATOM     95  O5  IDS d 303      24.039  12.880   8.666  0.00  0.00    -0.340 OA
ATOM     96  O2S IDS d 303      25.113  12.502  12.914  0.00  0.00    -0.572 OA
ATOM     97  O4  IDS d 303      26.109  14.774   7.847  0.00  0.00    -0.348 OA
ATOM     98  O1S IDS d 303      25.355  14.991  13.145  0.00  0.00    -0.572 OA
ATOM     99  C4  IDS d 303      26.266  13.360   7.716  0.00  0.00     0.103 C 
ATOM    100  S   IDS d 303      25.765  13.753  12.582  0.00  0.00     0.252 S 
ATOM    101  O2  IDS d 303      25.645  13.918  10.968  0.00  0.00    -0.244 OA
ATOM    102  O3  IDS d 303      27.076  11.275   8.548  0.00  0.00    -0.390 OA
ATOM    103  O61 IDS d 303      23.204  14.203   6.352  0.00  0.00    -0.646 OA
ATOM    104  C2  IDS d 303      25.961  12.628  10.273  0.00  0.00     0.134 C 
ATOM    105  C1  IDS d 303      24.576  12.125   9.835  0.00  0.00     0.161 C 
ATOM    106  O3S IDS d 303      27.235  13.581  12.989  0.00  0.00    -0.572 OA
ATOM    107  C3  IDS d 303      26.918  12.646   8.955  0.00  0.00     0.094 C 
ATOM    108  C5  IDS d 303      24.872  12.777   7.446  0.00  0.00     0.152 C 
ATOM    109  O62 IDS d 303      24.908  13.597   5.077  0.00  0.00    -0.646 OA
ATOM    110  C6  IDS d 303      24.258  13.572   6.244  0.00  0.00     0.206 C 
ATOM    111  H   IDS d 303      26.953  13.183   6.915  0.00  0.00     0.092 H 
ATOM    112  H   IDS d 303      27.643  11.235   7.762  0.00  0.00     0.210 HD
ATOM    113  H   IDS d 303      26.531  12.036  10.958  0.00  0.00     0.097 H 
ATOM    114  H   IDS d 303      23.872  12.323  10.616  0.00  0.00     0.133 H 
ATOM    115  H   IDS d 303      27.819  13.159   9.220  0.00  0.00     0.091 H 
ATOM    116  H   IDS d 303      24.923  11.738   7.193  0.00  0.00     0.104 H 
ATOM    117  C1  UAP d 301      24.222  18.927   5.198  0.00  0.00     0.167 C 
ATOM    118  C5  UAP d 301      22.462  20.280   6.055  0.00  0.00     0.147 C 
ATOM    119  O61 UAP d 301      20.776  21.411   7.352  0.00  0.00    -0.642 OA
ATOM    120  C2  UAP d 301      23.714  19.274   3.726  0.00  0.00     0.135 C 
ATOM    121  O62 UAP d 301      22.820  21.316   8.294  0.00  0.00    -0.642 OA
ATOM    122  O3  UAP d 301      21.676  17.856   3.793  0.00  0.00    -0.389 OA
ATOM    123  O5  UAP d 301      23.782  19.950   6.126  0.00  0.00    -0.311 OA
ATOM    124  C6  UAP d 301      21.952  21.035   7.267  0.00  0.00     0.233 C 
ATOM    125  O2  UAP d 301      24.167  20.648   3.272  0.00  0.00    -0.244 OA
ATOM    126  C3  UAP d 301      22.129  19.236   3.760  0.00  0.00     0.086 C 
ATOM    127  O2S UAP d 301      26.372  19.694   2.745  0.00  0.00    -0.572 OA
ATOM    128  C4  UAP d 301      21.622  19.993   5.020  0.00  0.00    -0.034 C 
ATOM    129  O3S UAP d 301      24.795  19.848   0.876  0.00  0.00    -0.572 OA
ATOM    130  O1S UAP d 301      25.681  21.935   1.750  0.00  0.00    -0.572 OA
ATOM    131  S   UAP d 301      25.341  20.570   2.148  0.00  0.00     0.252 S 
ATOM    132  H   UAP d 301      23.833  17.986   5.525  0.00  0.00     0.134 H 
ATOM    133  H   UAP d 301      24.123  18.565   3.037  0.00  0.00     0.097 H 
ATOM    134  H   UAP d 301      21.996  17.391   3.005  0.00  0.00     0.210 HD
ATOM    135  H   UAP d 301      21.740  19.710   2.883  0.00  0.00     0.093 H 
ATOM    136  H   UAP d 301      20.633  20.282   5.074  0.00  0.00     0.085 H 
ATOM    137  C5  IDS d 305      23.249   5.060  11.891  0.00  0.00     0.152 C 
ATOM    138  O2  IDS d 305      22.676   4.318   8.366  0.00  0.00    -0.244 OA
ATOM    139  C6  IDS d 305      24.060   6.155  12.551  0.00  0.00     0.206 C 
ATOM    140  O61 IDS d 305      25.251   6.324  12.262  0.00  0.00    -0.646 OA
ATOM    141  O2S IDS d 305      23.367   2.152   7.427  0.00  0.00    -0.572 OA
ATOM    142  O62 IDS d 305      23.464   6.926  13.473  0.00  0.00    -0.646 OA
ATOM    143  O5  IDS d 305      24.104   4.321  10.944  0.00  0.00    -0.340 OA
ATOM    144  C3  IDS d 305      21.203   4.508  10.413  0.00  0.00     0.094 C 
ATOM    145  O4  IDS d 305      22.520   6.709  10.245  0.00  0.00    -0.348 OA
ATOM    146  O1S IDS d 305      23.135   4.156   5.970  0.00  0.00    -0.572 OA
ATOM    147  C2  IDS d 305      22.154   3.600   9.523  0.00  0.00     0.134 C 
ATOM    148  C1  IDS d 305      23.398   3.157  10.370  0.00  0.00     0.161 C 
ATOM    149  C4  IDS d 305      22.016   5.684  11.145  0.00  0.00     0.103 C 
ATOM    150  O3  IDS d 305      20.701   3.660  11.426  0.00  0.00    -0.390 OA
ATOM    151  S   IDS d 305      22.648   3.368   7.073  0.00  0.00     0.252 S 
ATOM    152  O3S IDS d 305      21.176   2.989   6.803  0.00  0.00    -0.572 OA
ATOM    153  H   IDS d 305      22.888   4.382  12.636  0.00  0.00     0.104 H 
ATOM    154  H   IDS d 305      20.448   4.951   9.796  0.00  0.00     0.091 H 
ATOM    155  H   IDS d 305      21.566   2.768   9.196  0.00  0.00     0.097 H 
ATOM    156  H   IDS d 305      24.077   2.678   9.696  0.00  0.00     0.133 H 
ATOM    157  H   IDS d 305      21.322   6.155  11.810  0.00  0.00     0.092 H 
ATOM    158  H   IDS d 305      21.439   3.299  11.940  0.00  0.00     0.210 HD
ENDROOT
TORSDOF 49
ENDMDL
MODEL 15
REMARK VINA RESULT:      -8.2      4.272      6.071
REMARK  0 active torsions:
REMARK  status: ('A' for Active; 'I' for Inactive)
REMARK       I    between atoms: N_1  and  C2_65 
REMARK       I    between atoms: N_1  and  S1_100 
REMARK       I    between atoms: O2S_4  and  S1_36 
REMARK       I    between atoms: O2S_5  and  S1_100 
REMARK       I    between atoms: C5_7  and  C6_64 
REMARK       I    between atoms: O3_11  and  C3_17 
REMARK       I    between atoms: C1_12  and  O4_28 
REMARK       I    between atoms: C5_13  and  C6_35 
REMARK       I    between atoms: C5_14  and  C6_52 
REMARK       I    between atoms: O2S_16  and  S1_75 
REMARK       I    between atoms: C2_18  and  O2_63 
REMARK       I    between atoms: C5_19  and  C6_22 
REMARK       I    between atoms: O2_20  and  C2_53 
REMARK       I    between atoms: O2_20  and  S_86 
REMARK       I    between atoms: O4_21  and  C1_67 
REMARK       I    between atoms: O4_21  and  C4_48 
REMARK       I    between atoms: O3_26  and  C3_72 
REMARK       I    between atoms: O4_28  and  C4_71 
REMARK       I    between atoms: O3_30  and  C3_94 
REMARK       I    between atoms: N_33  and  C2_82 
REMARK       I    between atoms: N_33  and  S1_75 
REMARK       I    between atoms: C6_35  and  O6_59 
REMARK       I    between atoms: S1_36  and  N_37 
REMARK       I    between atoms: S1_36  and  O1S_89 
REMARK       I    between atoms: S1_36  and  O3S_97 
REMARK       I    between atoms: N_37  and  C2_78 
REMARK       I    between atoms: C3_38  and  O3_81 
REMARK       I    between atoms: O4_39  and  C1_85 
REMARK       I    between atoms: O4_39  and  C4_69 
REMARK       I    between atoms: O3_40  and  C3_47 
REMARK       I    between atoms: O4_41  and  C1_76 
REMARK       I    between atoms: O4_41  and  C4_43 
REMARK       I    between atoms: S2_44  and  O6_80 
REMARK       I    between atoms: S_46  and  O2_57 
REMARK       I    between atoms: O3S_49  and  S1_75 
REMARK       I    between atoms: C1_54  and  O4_96 
REMARK       I    between atoms: O2_57  and  C2_66 
REMARK       I    between atoms: O6_58  and  C6_64 
REMARK       I    between atoms: O6_58  and  S2_101 
REMARK       I    between atoms: O6_59  and  S2_73 
REMARK       I    between atoms: O3_61  and  C3_77 
REMARK       I    between atoms: O2_63  and  S_104 
REMARK       I    between atoms: S1_75  and  O1S_92 
REMARK       I    between atoms: O6_80  and  C6_88 
REMARK       I    between atoms: C5_83  and  C6_88 
REMARK       I    between atoms: O3S_84  and  S1_100 
REMARK       I    between atoms: C5_87  and  C6_103 
REMARK       I    between atoms: O1S_91  and  S1_100 
REMARK       I    between atoms: O4_96  and  C4_99 
ROOT
ATOM      1  N   SGN d 304      22.628  14.141  11.797  0.00  0.00    -0.210 NA
ATOM      2  O2S SGN d 304      20.453  14.949  12.700  0.00  0.00    -0.296 OA
ATOM      3  C5  SGN d 304      20.793  11.129   9.555  0.00  0.00     0.091 C 
ATOM      4  O5S SGN d 304      18.258   8.035   8.733  0.00  0.00    -0.572 OA
ATOM      5  O3  SGN d 304      23.607  11.392  12.027  0.00  0.00    -0.391 OA
ATOM      6  C3  SGN d 304      22.767  11.803  10.965  0.00  0.00     0.083 C 
ATOM      7  O4  SGN d 304      22.436   9.463  10.345  0.00  0.00    -0.348 OA
ATOM      8  O5  SGN d 304      20.133  12.334   9.893  0.00  0.00    -0.349 OA
ATOM      9  C4  SGN d 304      21.739  10.694  10.698  0.00  0.00     0.095 C 
ATOM     10  O4S SGN d 304      16.931   9.407   7.099  0.00  0.00    -0.572 OA
ATOM     11  O6S SGN d 304      16.580   9.555   9.460  0.00  0.00    -0.572 OA
ATOM     12  O6  SGN d 304      18.718  10.371   8.365  0.00  0.00    -0.254 OA
ATOM     13  C6  SGN d 304      19.668  10.058   9.373  0.00  0.00     0.067 C 
ATOM     14  C2  SGN d 304      21.878  13.001  11.402  0.00  0.00     0.081 C 
ATOM     15  O3S SGN d 304      21.942  13.794  14.229  0.00  0.00    -0.296 OA
ATOM     16  C1  SGN d 304      21.026  13.456  10.216  0.00  0.00     0.150 C 
ATOM     17  O1S SGN d 304      22.669  15.961  13.471  0.00  0.00    -0.296 OA
ATOM     18  S1  SGN d 304      21.876  14.827  13.093  0.00  0.00     0.156 S 
ATOM     19  S2  SGN d 304      17.606   9.266   8.360  0.00  0.00     0.251 S 
ATOM     20  H   SGN d 304      22.671  14.811  11.029  0.00  0.00     0.140 HD
ATOM     21  H   SGN d 304      20.102  14.072  12.483  0.00  0.00     0.231 HD
ATOM     22  H   SGN d 304      21.383  11.247   8.670  0.00  0.00     0.090 H 
ATOM     23  H   SGN d 304      24.262  12.083  12.208  0.00  0.00     0.210 HD
ATOM     24  H   SGN d 304      23.396  12.038  10.131  0.00  0.00     0.089 H 
ATOM     25  H   SGN d 304      21.155  10.520  11.578  0.00  0.00     0.091 H 
ATOM     26  H   SGN d 304      19.148   9.958  10.304  0.00  0.00     0.080 H 
ATOM     27  H   SGN d 304      20.152   9.155   9.067  0.00  0.00     0.080 H 
ATOM     28  H   SGN d 304      21.300  12.651  12.231  0.00  0.00     0.076 H 
ATOM     29  H   SGN d 304      21.410  13.017  13.991  0.00  0.00     0.231 HD
ATOM     30  H   SGN d 304      20.391  14.301  10.378  0.00  0.00     0.131 H 
ATOM     31  H   SGN d 304      22.639  16.626  12.766  0.00  0.00     0.231 HD
ATOM     32  O6S SGN d 306      26.998  13.494   3.992  0.00  0.00    -0.572 OA
ATOM     33  O5S SGN d 306      28.351  15.502   4.141  0.00  0.00    -0.572 OA
ATOM     34  O2S SGN d 306      19.529  15.997   1.887  0.00  0.00    -0.296 OA
ATOM     35  C1  SGN d 306      22.694  17.022   2.288  0.00  0.00     0.038 C 
ATOM     36  N   SGN d 306      20.576  18.001   2.804  0.00  0.00    -0.212 NA
ATOM     37  O3  SGN d 306      21.010  17.900   5.492  0.00  0.00    -0.391 OA
ATOM     38  S2  SGN d 306      27.420  14.788   3.267  0.00  0.00     0.251 S 
ATOM     39  C3  SGN d 306      22.110  17.757   4.583  0.00  0.00     0.081 C 
ATOM     40  O3S SGN d 306      18.741  16.722   4.077  0.00  0.00    -0.296 OA
ATOM     41  O4S SGN d 306      27.745  14.450   1.903  0.00  0.00    -0.572 OA
ATOM     42  O5  SGN d 306      23.735  16.167   2.780  0.00  0.00    -0.379 OA
ATOM     43  S1  SGN d 306      19.153  17.213   2.652  0.00  0.00     0.156 S 
ATOM     44  O6  SGN d 306      26.227  15.738   3.158  0.00  0.00    -0.254 OA
ATOM     45  C2  SGN d 306      21.595  17.167   3.315  0.00  0.00     0.054 C 
ATOM     46  C5  SGN d 306      24.281  16.678   4.016  0.00  0.00     0.087 C 
ATOM     47  C6  SGN d 306      25.402  15.704   4.362  0.00  0.00     0.067 C 
ATOM     48  O1S SGN d 306      18.204  18.213   2.140  0.00  0.00    -0.296 OA
ATOM     49  O4  SGN d 306      23.692  17.335   6.423  0.00  0.00    -0.348 OA
ATOM     50  C4  SGN d 306      23.180  16.798   5.121  0.00  0.00     0.095 C 
ATOM     51  H   SGN d 306      20.164  15.475   2.402  0.00  0.00     0.231 HD
ATOM     52  H   SGN d 306      23.104  17.987   2.073  0.00  0.00     0.077 H 
ATOM     53  H   SGN d 306      22.283  16.589   1.400  0.00  0.00     0.077 H 
ATOM     54  H   SGN d 306      20.862  18.345   1.888  0.00  0.00     0.140 HD
ATOM     55  H   SGN d 306      20.358  18.512   5.117  0.00  0.00     0.210 HD
ATOM     56  H   SGN d 306      22.545  18.725   4.442  0.00  0.00     0.089 H 
ATOM     57  H   SGN d 306      19.382  16.065   4.391  0.00  0.00     0.231 HD
ATOM     58  H   SGN d 306      21.210  16.191   3.524  0.00  0.00     0.072 H 
ATOM     59  H   SGN d 306      24.660  17.676   3.930  0.00  0.00     0.090 H 
ATOM     60  H   SGN d 306      25.951  16.035   5.218  0.00  0.00     0.080 H 
ATOM     61  H   SGN d 306      25.054  14.725   4.616  0.00  0.00     0.080 H 
ATOM     62  H   SGN d 306      18.482  18.500   1.256  0.00  0.00     0.231 HD
ATOM     63  H   SGN d 306      22.803  15.818   5.325  0.00  0.00     0.091 H 
ATOM     64  O6S SGN d 302      26.808   4.054  18.399  0.00  0.00    -0.572 OA
ATOM     65  O2S SGN d 302      24.458   3.726  10.427  0.00  0.00    -0.296 OA
ATOM     66  O5S SGN d 302      24.850   4.882  19.569  0.00  0.00    -0.572 OA
ATOM     67  C5  SGN d 302      23.533   4.216  15.684  0.00  0.00     0.091 C 
ATOM     68  O4  SGN d 302      22.097   2.577  16.758  0.00  0.00    -0.348 OA
ATOM     69  O3  SGN d 302      21.335   1.636  14.030  0.00  0.00    -0.391 OA
ATOM     70  C6  SGN d 302      24.373   4.228  16.976  0.00  0.00     0.067 C 
ATOM     71  S1  SGN d 302      23.314   2.858  10.345  0.00  0.00     0.156 S 
ATOM     72  N   SGN d 302      22.368   3.108  11.731  0.00  0.00    -0.210 NA
ATOM     73  O4S SGN d 302      26.684   6.405  18.659  0.00  0.00    -0.572 OA
ATOM     74  O6  SGN d 302      25.027   5.445  17.222  0.00  0.00    -0.254 OA
ATOM     75  O5  SGN d 302      24.403   4.504  14.520  0.00  0.00    -0.349 OA
ATOM     76  C4  SGN d 302      22.869   2.844  15.537  0.00  0.00     0.095 C 
ATOM     77  S2  SGN d 302      25.847   5.245  18.546  0.00  0.00     0.251 S 
ATOM     78  C1  SGN d 302      23.746   4.416  13.187  0.00  0.00     0.150 C 
ATOM     79  C2  SGN d 302      22.987   3.091  13.054  0.00  0.00     0.081 C 
ATOM     80  O1S SGN d 302      22.367   2.955   9.267  0.00  0.00    -0.296 OA
ATOM     81  C3  SGN d 302      22.000   2.879  14.226  0.00  0.00     0.083 C 
ATOM     82  O3S SGN d 302      23.938   1.472  10.343  0.00  0.00    -0.296 OA
ATOM     83  H   SGN d 302      24.164   4.650  10.435  0.00  0.00     0.231 HD
ATOM     84  H   SGN d 302      22.775   4.969  15.732  0.00  0.00     0.090 H 
ATOM     85  H   SGN d 302      20.710   1.486  14.756  0.00  0.00     0.210 HD
ATOM     86  H   SGN d 302      25.113   3.458  16.903  0.00  0.00     0.080 H 
ATOM     87  H   SGN d 302      23.693   4.072  17.787  0.00  0.00     0.080 H 
ATOM     88  H   SGN d 302      21.651   2.383  11.732  0.00  0.00     0.140 HD
ATOM     89  H   SGN d 302      23.570   2.042  15.436  0.00  0.00     0.091 H 
ATOM     90  H   SGN d 302      24.559   4.473  12.493  0.00  0.00     0.131 H 
ATOM     91  H   SGN d 302      23.637   2.243  13.125  0.00  0.00     0.076 H 
ATOM     92  H   SGN d 302      21.968   3.839   9.266  0.00  0.00     0.231 HD
ATOM     93  H   SGN d 302      21.263   3.652  14.289  0.00  0.00     0.089 H 
ATOM     94  H   SGN d 302      24.577   1.404  11.070  0.00  0.00     0.231 HD
ATOM     95  O5  IDS d 303      21.569   8.024  12.132  0.00  0.00    -0.340 OA
ATOM     96  O2S IDS d 303      20.714   7.192   7.899  0.00  0.00    -0.572 OA
ATOM     97  O4  IDS d 303      22.882   5.506  12.827  0.00  0.00    -0.348 OA
ATOM     98  O1S IDS d 303      19.853   4.899   8.453  0.00  0.00    -0.572 OA
ATOM     99  C4  IDS d 303      23.610   6.665  12.418  0.00  0.00     0.103 C 
ATOM    100  S   IDS d 303      20.909   5.847   8.403  0.00  0.00     0.252 S 
ATOM    101  O2  IDS d 303      21.459   6.004   9.926  0.00  0.00    -0.244 OA
ATOM    102  O3  IDS d 303      24.702   7.939  10.720  0.00  0.00    -0.390 OA
ATOM    103  O61 IDS d 303      21.403   7.637  14.894  0.00  0.00    -0.646 OA
ATOM    104  C2  IDS d 303      22.517   7.063  10.007  0.00  0.00     0.134 C 
ATOM    105  C1  IDS d 303      21.779   8.236  10.670  0.00  0.00     0.161 C 
ATOM    106  O3S IDS d 303      21.988   5.217   7.512  0.00  0.00    -0.572 OA
ATOM    107  C3  IDS d 303      23.868   6.777  10.871  0.00  0.00     0.094 C 
ATOM    108  C5  IDS d 303      22.822   7.887  12.909  0.00  0.00     0.152 C 
ATOM    109  O62 IDS d 303      23.580   7.517  15.271  0.00  0.00    -0.646 OA
ATOM    110  C6  IDS d 303      22.548   7.682  14.438  0.00  0.00     0.206 C 
ATOM    111  H   IDS d 303      24.588   6.602  12.846  0.00  0.00     0.092 H 
ATOM    112  H   IDS d 303      25.524   7.814  11.221  0.00  0.00     0.210 HD
ATOM    113  H   IDS d 303      22.905   7.192   9.018  0.00  0.00     0.097 H 
ATOM    114  H   IDS d 303      20.788   8.294  10.273  0.00  0.00     0.133 H 
ATOM    115  H   IDS d 303      24.285   5.856  10.519  0.00  0.00     0.091 H 
ATOM    116  H   IDS d 303      23.373   8.793  12.768  0.00  0.00     0.104 H 
ATOM    117  C1  UAP d 301      20.923   3.249  17.174  0.00  0.00     0.167 C 
ATOM    118  C5  UAP d 301      18.598   2.816  17.436  0.00  0.00     0.147 C 
ATOM    119  O61 UAP d 301      16.224   2.473  17.209  0.00  0.00    -0.642 OA
ATOM    120  C2  UAP d 301      21.027   3.417  18.757  0.00  0.00     0.135 C 
ATOM    121  O62 UAP d 301      17.504   1.417  15.686  0.00  0.00    -0.642 OA
ATOM    122  O3  UAP d 301      19.887   5.621  18.877  0.00  0.00    -0.389 OA
ATOM    123  O5  UAP d 301      19.765   2.445  16.837  0.00  0.00    -0.311 OA
ATOM    124  C6  UAP d 301      17.361   2.236  16.780  0.00  0.00     0.233 C 
ATOM    125  O2  UAP d 301      21.066   2.083  19.474  0.00  0.00    -0.244 OA
ATOM    126  C3  UAP d 301      19.740   4.218  19.224  0.00  0.00     0.086 C 
ATOM    127  O2S UAP d 301      23.454   1.905  18.911  0.00  0.00    -0.572 OA
ATOM    128  C4  UAP d 301      18.483   3.627  18.526  0.00  0.00    -0.034 C 
ATOM    129  O3S UAP d 301      22.938   2.821  21.125  0.00  0.00    -0.572 OA
ATOM    130  O1S UAP d 301      22.472   0.463  20.767  0.00  0.00    -0.572 OA
ATOM    131  S   UAP d 301      22.544   1.744  20.066  0.00  0.00     0.252 S 
ATOM    132  H   UAP d 301      20.825   4.199  16.693  0.00  0.00     0.134 H 
ATOM    133  H   UAP d 301      21.934   3.931  18.997  0.00  0.00     0.097 H 
ATOM    134  H   UAP d 301      20.673   5.982  19.316  0.00  0.00     0.210 HD
ATOM    135  H   UAP d 301      19.628   4.131  20.284  0.00  0.00     0.093 H 
ATOM    136  H   UAP d 301      17.545   3.853  18.893  0.00  0.00     0.085 H 
ATOM    137  C5  IDS d 305      22.510  14.655   6.906  0.00  0.00     0.152 C 
ATOM    138  O2  IDS d 305      23.883  16.097   9.961  0.00  0.00    -0.244 OA
ATOM    139  C6  IDS d 305      22.457  13.219   6.428  0.00  0.00     0.206 C 
ATOM    140  O61 IDS d 305      23.485  12.535   6.357  0.00  0.00    -0.646 OA
ATOM    141  O2S IDS d 305      25.689  17.763   9.843  0.00  0.00    -0.572 OA
ATOM    142  O62 IDS d 305      21.271  12.709   6.062  0.00  0.00    -0.646 OA
ATOM    143  O5  IDS d 305      23.904  15.014   7.221  0.00  0.00    -0.340 OA
ATOM    144  C3  IDS d 305      21.712  16.347   8.688  0.00  0.00     0.094 C 
ATOM    145  O4  IDS d 305      22.010  13.837   9.152  0.00  0.00    -0.348 OA
ATOM    146  O1S IDS d 305      25.373  16.369  11.881  0.00  0.00    -0.572 OA
ATOM    147  C2  IDS d 305      23.225  16.797   8.865  0.00  0.00     0.134 C 
ATOM    148  C1  IDS d 305      24.031  16.445   7.566  0.00  0.00     0.161 C 
ATOM    149  C4  IDS d 305      21.598  14.830   8.173  0.00  0.00     0.103 C 
ATOM    150  O3  IDS d 305      21.184  17.171   7.667  0.00  0.00    -0.390 OA
ATOM    151  S   IDS d 305      24.795  17.120  10.796  0.00  0.00     0.252 S 
ATOM    152  O3S IDS d 305      23.864  18.205  11.382  0.00  0.00    -0.572 OA
ATOM    153  H   IDS d 305      22.149  15.303   6.135  0.00  0.00     0.104 H 
ATOM    154  H   IDS d 305      21.202  16.426   9.625  0.00  0.00     0.091 H 
ATOM    155  H   IDS d 305      23.211  17.849   9.063  0.00  0.00     0.097 H 
ATOM    156  H   IDS d 305      25.063  16.627   7.782  0.00  0.00     0.133 H 
ATOM    157  H   IDS d 305      20.561  14.665   7.965  0.00  0.00     0.092 H 
ATOM    158  H   IDS d 305      21.696  17.045   6.853  0.00  0.00     0.210 HD
ENDROOT
TORSDOF 49
ENDMDL
MODEL 16
REMARK VINA RESULT:      -7.8      4.290      7.853
REMARK  0 active torsions:
REMARK  status: ('A' for Active; 'I' for Inactive)
REMARK       I    between atoms: N_1  and  C2_65 
REMARK       I    between atoms: N_1  and  S1_100 
REMARK       I    between atoms: O2S_4  and  S1_36 
REMARK       I    between atoms: O2S_5  and  S1_100 
REMARK       I    between atoms: C5_7  and  C6_64 
REMARK       I    between atoms: O3_11  and  C3_17 
REMARK       I    between atoms: C1_12  and  O4_28 
REMARK       I    between atoms: C5_13  and  C6_35 
REMARK       I    between atoms: C5_14  and  C6_52 
REMARK       I    between atoms: O2S_16  and  S1_75 
REMARK       I    between atoms: C2_18  and  O2_63 
REMARK       I    between atoms: C5_19  and  C6_22 
REMARK       I    between atoms: O2_20  and  C2_53 
REMARK       I    between atoms: O2_20  and  S_86 
REMARK       I    between atoms: O4_21  and  C1_67 
REMARK       I    between atoms: O4_21  and  C4_48 
REMARK       I    between atoms: O3_26  and  C3_72 
REMARK       I    between atoms: O4_28  and  C4_71 
REMARK       I    between atoms: O3_30  and  C3_94 
REMARK       I    between atoms: N_33  and  C2_82 
REMARK       I    between atoms: N_33  and  S1_75 
REMARK       I    between atoms: C6_35  and  O6_59 
REMARK       I    between atoms: S1_36  and  N_37 
REMARK       I    between atoms: S1_36  and  O1S_89 
REMARK       I    between atoms: S1_36  and  O3S_97 
REMARK       I    between atoms: N_37  and  C2_78 
REMARK       I    between atoms: C3_38  and  O3_81 
REMARK       I    between atoms: O4_39  and  C1_85 
REMARK       I    between atoms: O4_39  and  C4_69 
REMARK       I    between atoms: O3_40  and  C3_47 
REMARK       I    between atoms: O4_41  and  C1_76 
REMARK       I    between atoms: O4_41  and  C4_43 
REMARK       I    between atoms: S2_44  and  O6_80 
REMARK       I    between atoms: S_46  and  O2_57 
REMARK       I    between atoms: O3S_49  and  S1_75 
REMARK       I    between atoms: C1_54  and  O4_96 
REMARK       I    between atoms: O2_57  and  C2_66 
REMARK       I    between atoms: O6_58  and  C6_64 
REMARK       I    between atoms: O6_58  and  S2_101 
REMARK       I    between atoms: O6_59  and  S2_73 
REMARK       I    between atoms: O3_61  and  C3_77 
REMARK       I    between atoms: O2_63  and  S_104 
REMARK       I    between atoms: S1_75  and  O1S_92 
REMARK       I    between atoms: O6_80  and  C6_88 
REMARK       I    between atoms: C5_83  and  C6_88 
REMARK       I    between atoms: O3S_84  and  S1_100 
REMARK       I    between atoms: C5_87  and  C6_103 
REMARK       I    between atoms: O1S_91  and  S1_100 
REMARK       I    between atoms: O4_96  and  C4_99 
ROOT
ATOM      1  N   SGN d 304      18.660  10.558   8.939  0.00  0.00    -0.210 NA
ATOM      2  O2S SGN d 304      17.138   9.761   7.138  0.00  0.00    -0.296 OA
ATOM      3  C5  SGN d 304      19.992   6.688   9.788  0.00  0.00     0.091 C 
ATOM      4  O5S SGN d 304      19.749   2.676  10.508  0.00  0.00    -0.572 OA
ATOM      5  O3  SGN d 304      18.607   9.603  11.706  0.00  0.00    -0.391 OA
ATOM      6  C3  SGN d 304      19.354   8.946  10.700  0.00  0.00     0.083 C 
ATOM      7  O4  SGN d 304      19.693   7.057  12.211  0.00  0.00    -0.348 OA
ATOM      8  O5  SGN d 304      19.525   7.068   8.507  0.00  0.00    -0.349 OA
ATOM      9  C4  SGN d 304      19.201   7.430  10.890  0.00  0.00     0.095 C 
ATOM     10  O4S SGN d 304      20.931   2.105   8.365  0.00  0.00    -0.572 OA
ATOM     11  O6S SGN d 304      18.599   2.632   8.427  0.00  0.00    -0.572 OA
ATOM     12  O6  SGN d 304      20.384   4.369   8.914  0.00  0.00    -0.254 OA
ATOM     13  C6  SGN d 304      19.729   5.151   9.903  0.00  0.00     0.067 C 
ATOM     14  C2  SGN d 304      18.718   9.186   9.302  0.00  0.00     0.081 C 
ATOM     15  O3S SGN d 304      16.122  10.553   9.193  0.00  0.00    -0.296 OA
ATOM     16  C1  SGN d 304      19.581   8.511   8.234  0.00  0.00     0.150 C 
ATOM     17  O1S SGN d 304      17.202  12.219   7.829  0.00  0.00    -0.296 OA
ATOM     18  S1  SGN d 304      17.230  10.825   8.164  0.00  0.00     0.156 S 
ATOM     19  S2  SGN d 304      19.957   2.870   9.094  0.00  0.00     0.251 S 
ATOM     20  H   SGN d 304      19.437  10.785   8.319  0.00  0.00     0.140 HD
ATOM     21  H   SGN d 304      17.176   8.893   7.568  0.00  0.00     0.231 HD
ATOM     22  H   SGN d 304      21.027   6.930   9.909  0.00  0.00     0.090 H 
ATOM     23  H   SGN d 304      18.693  10.563  11.599  0.00  0.00     0.210 HD
ATOM     24  H   SGN d 304      20.361   9.304  10.762  0.00  0.00     0.089 H 
ATOM     25  H   SGN d 304      18.170   7.157  10.816  0.00  0.00     0.091 H 
ATOM     26  H   SGN d 304      18.675   4.984   9.818  0.00  0.00     0.080 H 
ATOM     27  H   SGN d 304      20.125   4.843  10.848  0.00  0.00     0.080 H 
ATOM     28  H   SGN d 304      17.726   8.791   9.359  0.00  0.00     0.076 H 
ATOM     29  H   SGN d 304      16.126   9.613   9.433  0.00  0.00     0.231 HD
ATOM     30  H   SGN d 304      19.268   8.632   7.218  0.00  0.00     0.131 H 
ATOM     31  H   SGN d 304      17.895  12.410   7.179  0.00  0.00     0.231 HD
ATOM     32  O6S SGN d 306      27.419  11.028  10.810  0.00  0.00    -0.572 OA
ATOM     33  O5S SGN d 306      27.842  13.309  10.101  0.00  0.00    -0.572 OA
ATOM     34  O2S SGN d 306      27.081   6.600   3.972  0.00  0.00    -0.296 OA
ATOM     35  C1  SGN d 306      27.808   9.644   5.170  0.00  0.00     0.038 C 
ATOM     36  N   SGN d 306      26.679   8.883   3.206  0.00  0.00    -0.212 NA
ATOM     37  O3  SGN d 306      24.284   9.915   3.995  0.00  0.00    -0.391 OA
ATOM     38  S2  SGN d 306      28.317  11.935   9.943  0.00  0.00     0.251 S 
ATOM     39  C3  SGN d 306      25.496  10.353   4.624  0.00  0.00     0.081 C 
ATOM     40  O3S SGN d 306      24.800   7.126   3.292  0.00  0.00    -0.296 OA
ATOM     41  O4S SGN d 306      29.689  11.559  10.177  0.00  0.00    -0.572 OA
ATOM     42  O5  SGN d 306      27.638  10.001   6.549  0.00  0.00    -0.379 OA
ATOM     43  S1  SGN d 306      26.307   7.316   2.926  0.00  0.00     0.156 S 
ATOM     44  O6  SGN d 306      28.080  11.639   8.461  0.00  0.00    -0.254 OA
ATOM     45  C2  SGN d 306      26.486   9.242   4.559  0.00  0.00     0.054 C 
ATOM     46  C5  SGN d 306      26.684  11.076   6.690  0.00  0.00     0.087 C 
ATOM     47  C6  SGN d 306      26.671  11.373   8.185  0.00  0.00     0.067 C 
ATOM     48  O1S SGN d 306      26.534   7.111   1.487  0.00  0.00    -0.296 OA
ATOM     49  O4  SGN d 306      24.259  11.766   6.220  0.00  0.00    -0.348 OA
ATOM     50  C4  SGN d 306      25.286  10.680   6.109  0.00  0.00     0.095 C 
ATOM     51  H   SGN d 306      26.775   6.880   4.849  0.00  0.00     0.231 HD
ATOM     52  H   SGN d 306      28.202  10.484   4.636  0.00  0.00     0.077 H 
ATOM     53  H   SGN d 306      28.484   8.817   5.108  0.00  0.00     0.077 H 
ATOM     54  H   SGN d 306      27.657   9.037   2.962  0.00  0.00     0.140 HD
ATOM     55  H   SGN d 306      24.458   9.720   3.060  0.00  0.00     0.210 HD
ATOM     56  H   SGN d 306      25.828  11.234   4.115  0.00  0.00     0.089 H 
ATOM     57  H   SGN d 306      24.677   7.266   4.244  0.00  0.00     0.231 HD
ATOM     58  H   SGN d 306      26.105   8.412   5.116  0.00  0.00     0.072 H 
ATOM     59  H   SGN d 306      26.948  11.951   6.132  0.00  0.00     0.090 H 
ATOM     60  H   SGN d 306      26.066  12.227   8.405  0.00  0.00     0.080 H 
ATOM     61  H   SGN d 306      26.261  10.581   8.775  0.00  0.00     0.080 H 
ATOM     62  H   SGN d 306      27.475   7.234   1.288  0.00  0.00     0.231 HD
ATOM     63  H   SGN d 306      24.912   9.851   6.673  0.00  0.00     0.091 H 
ATOM     64  O6S SGN d 302      13.235   9.159  20.403  0.00  0.00    -0.572 OA
ATOM     65  O2S SGN d 302      19.950   4.935  17.907  0.00  0.00    -0.296 OA
ATOM     66  O5S SGN d 302      11.533   8.608  18.762  0.00  0.00    -0.572 OA
ATOM     67  C5  SGN d 302      14.720   6.108  17.834  0.00  0.00     0.091 C 
ATOM     68  O4  SGN d 302      13.139   4.355  18.409  0.00  0.00    -0.348 OA
ATOM     69  O3  SGN d 302      15.404   2.419  18.222  0.00  0.00    -0.391 OA
ATOM     70  C6  SGN d 302      13.782   7.097  18.550  0.00  0.00     0.067 C 
ATOM     71  S1  SGN d 302      19.599   3.540  17.869  0.00  0.00     0.156 S 
ATOM     72  N   SGN d 302      17.996   3.419  17.329  0.00  0.00    -0.210 NA
ATOM     73  O4S SGN d 302      13.085  10.623  18.546  0.00  0.00    -0.572 OA
ATOM     74  O6  SGN d 302      13.836   8.406  18.044  0.00  0.00    -0.254 OA
ATOM     75  O5  SGN d 302      16.121   6.576  17.947  0.00  0.00    -0.349 OA
ATOM     76  C4  SGN d 302      14.560   4.724  18.469  0.00  0.00     0.095 C 
ATOM     77  S2  SGN d 302      12.848   9.257  18.918  0.00  0.00     0.251 S 
ATOM     78  C1  SGN d 302      17.155   5.658  17.395  0.00  0.00     0.150 C 
ATOM     79  C2  SGN d 302      16.953   4.240  17.939  0.00  0.00     0.081 C 
ATOM     80  O1S SGN d 302      20.308   2.604  17.039  0.00  0.00    -0.296 OA
ATOM     81  C3  SGN d 302      15.511   3.736  17.696  0.00  0.00     0.083 C 
ATOM     82  O3S SGN d 302      19.726   3.118  19.325  0.00  0.00    -0.296 OA
ATOM     83  H   SGN d 302      19.899   5.305  17.012  0.00  0.00     0.231 HD
ATOM     84  H   SGN d 302      14.469   6.049  16.796  0.00  0.00     0.090 H 
ATOM     85  H   SGN d 302      14.504   2.085  18.079  0.00  0.00     0.210 HD
ATOM     86  H   SGN d 302      14.050   7.125  19.585  0.00  0.00     0.080 H 
ATOM     87  H   SGN d 302      12.783   6.746  18.391  0.00  0.00     0.080 H 
ATOM     88  H   SGN d 302      17.716   2.446  17.455  0.00  0.00     0.140 HD
ATOM     89  H   SGN d 302      14.841   4.696  19.501  0.00  0.00     0.091 H 
ATOM     90  H   SGN d 302      18.080   6.079  17.731  0.00  0.00     0.131 H 
ATOM     91  H   SGN d 302      17.051   4.197  19.004  0.00  0.00     0.076 H 
ATOM     92  H   SGN d 302      20.228   2.872  16.110  0.00  0.00     0.231 HD
ATOM     93  H   SGN d 302      15.253   3.709  16.658  0.00  0.00     0.089 H 
ATOM     94  H   SGN d 302      19.249   3.748  19.887  0.00  0.00     0.231 HD
ATOM     95  O5  IDS d 303      17.639   6.048  13.095  0.00  0.00    -0.340 OA
ATOM     96  O2S IDS d 303      21.297   3.675  12.520  0.00  0.00    -0.572 OA
ATOM     97  O4  IDS d 303      17.272   5.615  15.963  0.00  0.00    -0.348 OA
ATOM     98  O1S IDS d 303      20.358   1.774  13.866  0.00  0.00    -0.572 OA
ATOM     99  C4  IDS d 303      17.965   6.750  15.440  0.00  0.00     0.103 C 
ATOM    100  S   IDS d 303      20.809   3.117  13.764  0.00  0.00     0.252 S 
ATOM    101  O2  IDS d 303      19.564   4.057  14.230  0.00  0.00    -0.244 OA
ATOM    102  O3  IDS d 303      19.999   7.843  14.835  0.00  0.00    -0.390 OA
ATOM    103  O61 IDS d 303      14.960   6.490  13.752  0.00  0.00    -0.646 OA
ATOM    104  C2  IDS d 303      19.899   5.508  14.066  0.00  0.00     0.134 C 
ATOM    105  C1  IDS d 303      19.098   5.907  12.817  0.00  0.00     0.161 C 
ATOM    106  O3S IDS d 303      21.968   3.240  14.763  0.00  0.00    -0.572 OA
ATOM    107  C3  IDS d 303      19.514   6.555  15.254  0.00  0.00     0.094 C 
ATOM    108  C5  IDS d 303      17.313   7.093  14.093  0.00  0.00     0.152 C 
ATOM    109  O62 IDS d 303      15.317   8.095  15.233  0.00  0.00    -0.646 OA
ATOM    110  C6  IDS d 303      15.770   7.211  14.339  0.00  0.00     0.206 C 
ATOM    111  H   IDS d 303      17.881   7.540  16.156  0.00  0.00     0.092 H 
ATOM    112  H   IDS d 303      19.791   8.503  15.515  0.00  0.00     0.210 HD
ATOM    113  H   IDS d 303      20.967   5.581  14.039  0.00  0.00     0.097 H 
ATOM    114  H   IDS d 303      19.149   5.112  12.103  0.00  0.00     0.133 H 
ATOM    115  H   IDS d 303      19.930   6.175  16.163  0.00  0.00     0.091 H 
ATOM    116  H   IDS d 303      17.680   8.018  13.703  0.00  0.00     0.104 H 
ATOM    117  C1  UAP d 301      12.399   4.051  17.241  0.00  0.00     0.167 C 
ATOM    118  C5  UAP d 301      11.359   2.179  16.205  0.00  0.00     0.147 C 
ATOM    119  O61 UAP d 301      10.769   0.185  14.988  0.00  0.00    -0.642 OA
ATOM    120  C2  UAP d 301      10.951   4.693  17.436  0.00  0.00     0.135 C 
ATOM    121  O62 UAP d 301      12.566   0.001  16.334  0.00  0.00    -0.642 OA
ATOM    122  O3  UAP d 301      10.590   5.291  15.052  0.00  0.00    -0.389 OA
ATOM    123  O5  UAP d 301      12.288   2.613  17.104  0.00  0.00    -0.311 OA
ATOM    124  C6  UAP d 301      11.535   0.731  15.793  0.00  0.00     0.233 C 
ATOM    125  O2  UAP d 301      10.211   4.092  18.614  0.00  0.00    -0.244 OA
ATOM    126  C3  UAP d 301      10.133   4.405  16.108  0.00  0.00     0.086 C 
ATOM    127  O2S UAP d 301      11.520   5.539  20.112  0.00  0.00    -0.572 OA
ATOM    128  C4  UAP d 301      10.342   2.923  15.686  0.00  0.00    -0.034 C 
ATOM    129  O3S UAP d 301       9.317   6.388  19.455  0.00  0.00    -0.572 OA
ATOM    130  O1S UAP d 301       9.364   4.466  20.940  0.00  0.00    -0.572 OA
ATOM    131  S   UAP d 301      10.122   5.118  19.874  0.00  0.00     0.252 S 
ATOM    132  H   UAP d 301      12.875   4.438  16.364  0.00  0.00     0.134 H 
ATOM    133  H   UAP d 301      11.055   5.740  17.630  0.00  0.00     0.097 H 
ATOM    134  H   UAP d 301      10.457   6.213  15.323  0.00  0.00     0.210 HD
ATOM    135  H   UAP d 301       9.092   4.578  16.283  0.00  0.00     0.093 H 
ATOM    136  H   UAP d 301       9.699   2.496  15.001  0.00  0.00     0.085 H 
ATOM    137  C5  IDS d 305      23.259   9.370   7.659  0.00  0.00     0.152 C 
ATOM    138  O2  IDS d 305      20.917  12.157   7.882  0.00  0.00    -0.244 OA
ATOM    139  C6  IDS d 305      23.608   8.290   8.662  0.00  0.00     0.206 C 
ATOM    140  O61 IDS d 305      23.975   8.582   9.806  0.00  0.00    -0.646 OA
ATOM    141  O2S IDS d 305      21.722  14.472   7.670  0.00  0.00    -0.572 OA
ATOM    142  O62 IDS d 305      23.532   7.008   8.274  0.00  0.00    -0.646 OA
ATOM    143  O5  IDS d 305      23.444  10.693   8.282  0.00  0.00    -0.340 OA
ATOM    144  C3  IDS d 305      21.415  10.378   6.155  0.00  0.00     0.094 C 
ATOM    145  O4  IDS d 305      20.931   9.150   8.361  0.00  0.00    -0.348 OA
ATOM    146  O1S IDS d 305      19.617  13.962   8.896  0.00  0.00    -0.572 OA
ATOM    147  C2  IDS d 305      21.774  11.802   6.757  0.00  0.00     0.134 C 
ATOM    148  C1  IDS d 305      23.243  11.784   7.306  0.00  0.00     0.161 C 
ATOM    149  C4  IDS d 305      21.774   9.192   7.177  0.00  0.00     0.103 C 
ATOM    150  O3  IDS d 305      22.250  10.217   5.026  0.00  0.00    -0.390 OA
ATOM    151  S   IDS d 305      20.492  13.701   7.782  0.00  0.00     0.252 S 
ATOM    152  O3S IDS d 305      19.695  13.882   6.471  0.00  0.00    -0.572 OA
ATOM    153  H   IDS d 305      23.904   9.292   6.809  0.00  0.00     0.104 H 
ATOM    154  H   IDS d 305      20.368  10.332   5.938  0.00  0.00     0.091 H 
ATOM    155  H   IDS d 305      21.643  12.511   5.965  0.00  0.00     0.097 H 
ATOM    156  H   IDS d 305      23.391  12.706   7.829  0.00  0.00     0.133 H 
ATOM    157  H   IDS d 305      21.618   8.280   6.640  0.00  0.00     0.092 H 
ATOM    158  H   IDS d 305      23.179  10.269   5.300  0.00  0.00     0.210 HD
ENDROOT
TORSDOF 49
ENDMDL
MODEL 17
REMARK VINA RESULT:      -7.7      3.460     15.534
REMARK  0 active torsions:
REMARK  status: ('A' for Active; 'I' for Inactive)
REMARK       I    between atoms: N_1  and  C2_65 
REMARK       I    between atoms: N_1  and  S1_100 
REMARK       I    between atoms: O2S_4  and  S1_36 
REMARK       I    between atoms: O2S_5  and  S1_100 
REMARK       I    between atoms: C5_7  and  C6_64 
REMARK       I    between atoms: O3_11  and  C3_17 
REMARK       I    between atoms: C1_12  and  O4_28 
REMARK       I    between atoms: C5_13  and  C6_35 
REMARK       I    between atoms: C5_14  and  C6_52 
REMARK       I    between atoms: O2S_16  and  S1_75 
REMARK       I    between atoms: C2_18  and  O2_63 
REMARK       I    between atoms: C5_19  and  C6_22 
REMARK       I    between atoms: O2_20  and  C2_53 
REMARK       I    between atoms: O2_20  and  S_86 
REMARK       I    between atoms: O4_21  and  C1_67 
REMARK       I    between atoms: O4_21  and  C4_48 
REMARK       I    between atoms: O3_26  and  C3_72 
REMARK       I    between atoms: O4_28  and  C4_71 
REMARK       I    between atoms: O3_30  and  C3_94 
REMARK       I    between atoms: N_33  and  C2_82 
REMARK       I    between atoms: N_33  and  S1_75 
REMARK       I    between atoms: C6_35  and  O6_59 
REMARK       I    between atoms: S1_36  and  N_37 
REMARK       I    between atoms: S1_36  and  O1S_89 
REMARK       I    between atoms: S1_36  and  O3S_97 
REMARK       I    between atoms: N_37  and  C2_78 
REMARK       I    between atoms: C3_38  and  O3_81 
REMARK       I    between atoms: O4_39  and  C1_85 
REMARK       I    between atoms: O4_39  and  C4_69 
REMARK       I    between atoms: O3_40  and  C3_47 
REMARK       I    between atoms: O4_41  and  C1_76 
REMARK       I    between atoms: O4_41  and  C4_43 
REMARK       I    between atoms: S2_44  and  O6_80 
REMARK       I    between atoms: S_46  and  O2_57 
REMARK       I    between atoms: O3S_49  and  S1_75 
REMARK       I    between atoms: C1_54  and  O4_96 
REMARK       I    between atoms: O2_57  and  C2_66 
REMARK       I    between atoms: O6_58  and  C6_64 
REMARK       I    between atoms: O6_58  and  S2_101 
REMARK       I    between atoms: O6_59  and  S2_73 
REMARK       I    between atoms: O3_61  and  C3_77 
REMARK       I    between atoms: O2_63  and  S_104 
REMARK       I    between atoms: S1_75  and  O1S_92 
REMARK       I    between atoms: O6_80  and  C6_88 
REMARK       I    between atoms: C5_83  and  C6_88 
REMARK       I    between atoms: O3S_84  and  S1_100 
REMARK       I    between atoms: C5_87  and  C6_103 
REMARK       I    between atoms: O1S_91  and  S1_100 
REMARK       I    between atoms: O4_96  and  C4_99 
ROOT
ATOM      1  N   SGN d 304      17.439   7.768   9.770  0.00  0.00    -0.210 NA
ATOM      2  O2S SGN d 304      15.757   9.582   9.485  0.00  0.00    -0.296 OA
ATOM      3  C5  SGN d 304      19.691  10.023  12.474  0.00  0.00     0.091 C 
ATOM      4  O5S SGN d 304      21.603  13.290  14.006  0.00  0.00    -0.572 OA
ATOM      5  O3  SGN d 304      20.315   8.081   9.322  0.00  0.00    -0.391 OA
ATOM      6  C3  SGN d 304      19.713   8.379  10.568  0.00  0.00     0.083 C 
ATOM      7  O4  SGN d 304      21.783   9.458  11.289  0.00  0.00    -0.348 OA
ATOM      8  O5  SGN d 304      18.297  10.202  12.311  0.00  0.00    -0.349 OA
ATOM      9  C4  SGN d 304      20.349   9.662  11.122  0.00  0.00     0.095 C 
ATOM     10  O4S SGN d 304      19.987  13.480  15.920  0.00  0.00    -0.572 OA
ATOM     11  O6S SGN d 304      19.483  14.334  13.744  0.00  0.00    -0.572 OA
ATOM     12  O6  SGN d 304      19.684  11.846  14.199  0.00  0.00    -0.254 OA
ATOM     13  C6  SGN d 304      20.245  11.398  12.973  0.00  0.00     0.067 C 
ATOM     14  C2  SGN d 304      18.225   8.787  10.372  0.00  0.00     0.081 C 
ATOM     15  O3S SGN d 304      17.249   9.135   7.625  0.00  0.00    -0.296 OA
ATOM     16  C1  SGN d 304      17.590   9.046  11.739  0.00  0.00     0.150 C 
ATOM     17  O1S SGN d 304      15.627   7.425   8.121  0.00  0.00    -0.296 OA
ATOM     18  S1  SGN d 304      16.389   8.483   8.719  0.00  0.00     0.156 S 
ATOM     19  S2  SGN d 304      20.258  13.268  14.525  0.00  0.00     0.251 S 
ATOM     20  H   SGN d 304      16.919   7.263  10.487  0.00  0.00     0.140 HD
ATOM     21  H   SGN d 304      16.442  10.190   9.804  0.00  0.00     0.231 HD
ATOM     22  H   SGN d 304      19.901   9.230  13.162  0.00  0.00     0.090 H 
ATOM     23  H   SGN d 304      19.923   7.272   8.958  0.00  0.00     0.210 HD
ATOM     24  H   SGN d 304      19.826   7.519  11.193  0.00  0.00     0.089 H 
ATOM     25  H   SGN d 304      20.192  10.471  10.439  0.00  0.00     0.091 H 
ATOM     26  H   SGN d 304      20.042  12.134  12.223  0.00  0.00     0.080 H 
ATOM     27  H   SGN d 304      21.291  11.260  13.149  0.00  0.00     0.080 H 
ATOM     28  H   SGN d 304      18.237   9.648   9.739  0.00  0.00     0.076 H 
ATOM     29  H   SGN d 304      17.773   9.855   8.011  0.00  0.00     0.231 HD
ATOM     30  H   SGN d 304      16.552   9.303  11.745  0.00  0.00     0.131 H 
ATOM     31  H   SGN d 304      15.077   7.001   8.798  0.00  0.00     0.231 HD
ATOM     32  O6S SGN d 306      20.511   2.193  16.087  0.00  0.00    -0.572 OA
ATOM     33  O5S SGN d 306      19.192   0.231  15.543  0.00  0.00    -0.572 OA
ATOM     34  O2S SGN d 306      15.492   7.195  20.120  0.00  0.00    -0.296 OA
ATOM     35  C1  SGN d 306      15.760   4.105  18.852  0.00  0.00     0.038 C 
ATOM     36  N   SGN d 306      13.981   5.700  18.921  0.00  0.00    -0.212 NA
ATOM     37  O3  SGN d 306      13.982   6.050  16.219  0.00  0.00    -0.391 OA
ATOM     38  S2  SGN d 306      19.564   1.112  16.650  0.00  0.00     0.251 S 
ATOM     39  C3  SGN d 306      14.634   4.909  16.794  0.00  0.00     0.081 C 
ATOM     40  O3S SGN d 306      14.305   8.156  18.219  0.00  0.00    -0.296 OA
ATOM     41  O4S SGN d 306      20.134   0.614  17.877  0.00  0.00    -0.572 OA
ATOM     42  O5  SGN d 306      16.903   3.664  18.106  0.00  0.00    -0.379 OA
ATOM     43  S1  SGN d 306      14.158   7.230  19.469  0.00  0.00     0.156 S 
ATOM     44  O6  SGN d 306      18.237   1.748  17.066  0.00  0.00    -0.254 OA
ATOM     45  C2  SGN d 306      15.095   5.275  18.163  0.00  0.00     0.054 C 
ATOM     46  C5  SGN d 306      16.529   3.295  16.761  0.00  0.00     0.087 C 
ATOM     47  C6  SGN d 306      17.827   2.794  16.136  0.00  0.00     0.067 C 
ATOM     48  O1S SGN d 306      12.920   7.527  20.207  0.00  0.00    -0.296 OA
ATOM     49  O4  SGN d 306      15.462   4.164  14.597  0.00  0.00    -0.348 OA
ATOM     50  C4  SGN d 306      15.879   4.497  15.998  0.00  0.00     0.095 C 
ATOM     51  H   SGN d 306      16.169   6.982  19.459  0.00  0.00     0.231 HD
ATOM     52  H   SGN d 306      15.060   3.300  18.932  0.00  0.00     0.077 H 
ATOM     53  H   SGN d 306      16.081   4.414  19.825  0.00  0.00     0.077 H 
ATOM     54  H   SGN d 306      13.869   5.076  19.719  0.00  0.00     0.140 HD
ATOM     55  H   SGN d 306      13.203   6.278  16.750  0.00  0.00     0.210 HD
ATOM     56  H   SGN d 306      13.934   4.100  16.796  0.00  0.00     0.089 H 
ATOM     57  H   SGN d 306      15.128   7.940  17.752  0.00  0.00     0.231 HD
ATOM     58  H   SGN d 306      15.815   6.061  18.083  0.00  0.00     0.072 H 
ATOM     59  H   SGN d 306      15.774   2.537  16.724  0.00  0.00     0.090 H 
ATOM     60  H   SGN d 306      17.657   2.398  15.157  0.00  0.00     0.080 H 
ATOM     61  H   SGN d 306      18.561   3.561  16.002  0.00  0.00     0.080 H 
ATOM     62  H   SGN d 306      12.853   6.939  20.976  0.00  0.00     0.231 HD
ATOM     63  H   SGN d 306      16.607   5.277  15.920  0.00  0.00     0.091 H 
ATOM     64  O6S SGN d 302      27.660   9.876   2.428  0.00  0.00    -0.572 OA
ATOM     65  O2S SGN d 302      27.815  10.026  10.742  0.00  0.00    -0.296 OA
ATOM     66  O5S SGN d 302      26.019  11.559   1.827  0.00  0.00    -0.572 OA
ATOM     67  C5  SGN d 302      26.490  11.988   5.933  0.00  0.00     0.091 C 
ATOM     68  O4  SGN d 302      27.319  14.188   5.319  0.00  0.00    -0.348 OA
ATOM     69  O3  SGN d 302      28.146  14.538   8.166  0.00  0.00    -0.391 OA
ATOM     70  C6  SGN d 302      26.683  11.578   4.461  0.00  0.00     0.067 C 
ATOM     71  S1  SGN d 302      28.166  11.361  11.148  0.00  0.00     0.156 S 
ATOM     72  N   SGN d 302      27.430  12.446  10.071  0.00  0.00    -0.210 NA
ATOM     73  O4S SGN d 302      25.436   9.100   2.177  0.00  0.00    -0.572 OA
ATOM     74  O6  SGN d 302      25.803  10.574   4.027  0.00  0.00    -0.254 OA
ATOM     75  O5  SGN d 302      26.682  10.810   6.811  0.00  0.00    -0.349 OA
ATOM     76  C4  SGN d 302      27.497  13.089   6.278  0.00  0.00     0.095 C 
ATOM     77  S2  SGN d 302      26.179  10.275   2.532  0.00  0.00     0.251 S 
ATOM     78  C1  SGN d 302      26.635  11.080   8.274  0.00  0.00     0.150 C 
ATOM     79  C2  SGN d 302      27.561  12.248   8.629  0.00  0.00     0.081 C 
ATOM     80  O1S SGN d 302      27.811  11.876  12.443  0.00  0.00    -0.296 OA
ATOM     81  C3  SGN d 302      27.252  13.501   7.777  0.00  0.00     0.083 C 
ATOM     82  O3S SGN d 302      29.679  11.374  11.000  0.00  0.00    -0.296 OA
ATOM     83  H   SGN d 302      26.853   9.913  10.802  0.00  0.00     0.231 HD
ATOM     84  H   SGN d 302      25.498  12.361   6.084  0.00  0.00     0.090 H 
ATOM     85  H   SGN d 302      27.967  15.333   7.641  0.00  0.00     0.210 HD
ATOM     86  H   SGN d 302      27.685  11.222   4.341  0.00  0.00     0.080 H 
ATOM     87  H   SGN d 302      26.479  12.445   3.869  0.00  0.00     0.080 H 
ATOM     88  H   SGN d 302      27.811  13.369  10.277  0.00  0.00     0.140 HD
ATOM     89  H   SGN d 302      28.516  12.772   6.195  0.00  0.00     0.091 H 
ATOM     90  H   SGN d 302      26.969  10.165   8.717  0.00  0.00     0.131 H 
ATOM     91  H   SGN d 302      28.584  12.039   8.396  0.00  0.00     0.076 H 
ATOM     92  H   SGN d 302      26.846  11.868  12.540  0.00  0.00     0.231 HD
ATOM     93  H   SGN d 302      26.249  13.851   7.906  0.00  0.00     0.089 H 
ATOM     94  H   SGN d 302      29.922  11.027  10.127  0.00  0.00     0.231 HD
ATOM     95  O5  IDS d 303      22.583  11.260   9.830  0.00  0.00    -0.340 OA
ATOM     96  O2S IDS d 303      23.421  11.261  14.147  0.00  0.00    -0.572 OA
ATOM     97  O4  IDS d 303      25.333  11.305   8.840  0.00  0.00    -0.348 OA
ATOM     98  O1S IDS d 303      25.125  13.088  13.886  0.00  0.00    -0.572 OA
ATOM     99  C4  IDS d 303      24.600  10.092   9.017  0.00  0.00     0.103 C 
ATOM    100  S   IDS d 303      24.678  11.764  13.630  0.00  0.00     0.252 S 
ATOM    101  O2  IDS d 303      24.602  11.608  12.012  0.00  0.00    -0.244 OA
ATOM    102  O3  IDS d 303      24.030   8.182  10.330  0.00  0.00    -0.390 OA
ATOM    103  O61 IDS d 303      22.602  12.271   7.226  0.00  0.00    -0.646 OA
ATOM    104  C2  IDS d 303      24.042  10.272  11.629  0.00  0.00     0.134 C 
ATOM    105  C1  IDS d 303      22.615  10.614  11.175  0.00  0.00     0.161 C 
ATOM    106  O3S IDS d 303      25.765  10.843  14.200  0.00  0.00    -0.572 OA
ATOM    107  C3  IDS d 303      24.750   9.423  10.432  0.00  0.00     0.094 C 
ATOM    108  C5  IDS d 303      23.125  10.415   8.741  0.00  0.00     0.152 C 
ATOM    109  O62 IDS d 303      23.530  10.505   6.268  0.00  0.00    -0.646 OA
ATOM    110  C6  IDS d 303      23.055  11.131   7.349  0.00  0.00     0.206 C 
ATOM    111  H   IDS d 303      25.000   9.369   8.337  0.00  0.00     0.092 H 
ATOM    112  H   IDS d 303      24.418   7.640   9.626  0.00  0.00     0.210 HD
ATOM    113  H   IDS d 303      24.173   9.625  12.471  0.00  0.00     0.097 H 
ATOM    114  H   IDS d 303      22.211  11.359  11.828  0.00  0.00     0.133 H 
ATOM    115  H   IDS d 303      25.790   9.340  10.670  0.00  0.00     0.091 H 
ATOM    116  H   IDS d 303      22.527   9.528   8.712  0.00  0.00     0.104 H 
ATOM    117  C1  UAP d 301      26.202  15.053   5.231  0.00  0.00     0.167 C 
ATOM    118  C5  UAP d 301      25.658  17.336   5.623  0.00  0.00     0.147 C 
ATOM    119  O61 UAP d 301      25.061  19.500   6.496  0.00  0.00    -0.642 OA
ATOM    120  C2  UAP d 301      25.935  15.300   3.678  0.00  0.00     0.135 C 
ATOM    121  O62 UAP d 301      26.678  18.413   7.627  0.00  0.00    -0.642 OA
ATOM    122  O3  UAP d 301      23.460  15.439   3.841  0.00  0.00    -0.389 OA
ATOM    123  O5  UAP d 301      26.515  16.308   5.885  0.00  0.00    -0.311 OA
ATOM    124  C6  UAP d 301      25.767  18.489   6.601  0.00  0.00     0.233 C 
ATOM    125  O2  UAP d 301      27.100  15.989   2.997  0.00  0.00    -0.244 OA
ATOM    126  C3  UAP d 301      24.651  16.225   3.569  0.00  0.00     0.086 C 
ATOM    127  O2S UAP d 301      28.256  13.821   2.887  0.00  0.00    -0.572 OA
ATOM    128  C4  UAP d 301      24.765  17.388   4.594  0.00  0.00    -0.034 C 
ATOM    129  O3S UAP d 301      27.000  14.470   0.886  0.00  0.00    -0.572 OA
ATOM    130  O1S UAP d 301      29.007  15.742   1.394  0.00  0.00    -0.572 OA
ATOM    131  S   UAP d 301      27.932  14.981   2.029  0.00  0.00     0.252 S 
ATOM    132  H   UAP d 301      25.342  14.631   5.706  0.00  0.00     0.134 H 
ATOM    133  H   UAP d 301      25.799  14.357   3.191  0.00  0.00     0.097 H 
ATOM    134  H   UAP d 301      23.396  14.715   3.198  0.00  0.00     0.210 HD
ATOM    135  H   UAP d 301      24.583  16.630   2.582  0.00  0.00     0.093 H 
ATOM    136  H   UAP d 301      24.155  18.214   4.494  0.00  0.00     0.085 H 
ATOM    137  C5  IDS d 305      17.401   6.410  14.498  0.00  0.00     0.152 C 
ATOM    138  O2  IDS d 305      16.323   5.405  11.161  0.00  0.00    -0.244 OA
ATOM    139  C6  IDS d 305      18.739   6.915  14.994  0.00  0.00     0.206 C 
ATOM    140  O61 IDS d 305      19.775   6.271  14.790  0.00  0.00    -0.646 OA
ATOM    141  O2S IDS d 305      15.522   3.115  10.755  0.00  0.00    -0.572 OA
ATOM    142  O62 IDS d 305      18.775   8.068  15.678  0.00  0.00    -0.646 OA
ATOM    143  O5  IDS d 305      17.590   5.121  13.807  0.00  0.00    -0.340 OA
ATOM    144  C3  IDS d 305      15.365   6.881  12.977  0.00  0.00     0.094 C 
ATOM    145  O4  IDS d 305      17.733   7.756  12.488  0.00  0.00    -0.348 OA
ATOM    146  O1S IDS d 305      16.473   4.479   8.903  0.00  0.00    -0.572 OA
ATOM    147  C2  IDS d 305      15.532   5.418  12.386  0.00  0.00     0.134 C 
ATOM    148  C1  IDS d 305      16.297   4.519  13.419  0.00  0.00     0.161 C 
ATOM    149  C4  IDS d 305      16.758   7.464  13.527  0.00  0.00     0.103 C 
ATOM    150  O3  IDS d 305      14.504   6.750  14.091  0.00  0.00    -0.390 OA
ATOM    151  S   IDS d 305      15.664   4.404  10.094  0.00  0.00     0.252 S 
ATOM    152  O3S IDS d 305      14.250   4.932   9.769  0.00  0.00    -0.572 OA
ATOM    153  H   IDS d 305      16.741   6.267  15.328  0.00  0.00     0.104 H 
ATOM    154  H   IDS d 305      15.001   7.538  12.215  0.00  0.00     0.091 H 
ATOM    155  H   IDS d 305      14.545   5.055  12.183  0.00  0.00     0.097 H 
ATOM    156  H   IDS d 305      16.516   3.595  12.925  0.00  0.00     0.133 H 
ATOM    157  H   IDS d 305      16.522   8.388  14.013  0.00  0.00     0.092 H 
ATOM    158  H   IDS d 305      14.900   6.143  14.735  0.00  0.00     0.210 HD
ENDROOT
TORSDOF 49
ENDMDL
MODEL 18
REMARK VINA RESULT:      -7.6      5.415     11.776
REMARK  0 active torsions:
REMARK  status: ('A' for Active; 'I' for Inactive)
REMARK       I    between atoms: N_1  and  C2_65 
REMARK       I    between atoms: N_1  and  S1_100 
REMARK       I    between atoms: O2S_4  and  S1_36 
REMARK       I    between atoms: O2S_5  and  S1_100 
REMARK       I    between atoms: C5_7  and  C6_64 
REMARK       I    between atoms: O3_11  and  C3_17 
REMARK       I    between atoms: C1_12  and  O4_28 
REMARK       I    between atoms: C5_13  and  C6_35 
REMARK       I    between atoms: C5_14  and  C6_52 
REMARK       I    between atoms: O2S_16  and  S1_75 
REMARK       I    between atoms: C2_18  and  O2_63 
REMARK       I    between atoms: C5_19  and  C6_22 
REMARK       I    between atoms: O2_20  and  C2_53 
REMARK       I    between atoms: O2_20  and  S_86 
REMARK       I    between atoms: O4_21  and  C1_67 
REMARK       I    between atoms: O4_21  and  C4_48 
REMARK       I    between atoms: O3_26  and  C3_72 
REMARK       I    between atoms: O4_28  and  C4_71 
REMARK       I    between atoms: O3_30  and  C3_94 
REMARK       I    between atoms: N_33  and  C2_82 
REMARK       I    between atoms: N_33  and  S1_75 
REMARK       I    between atoms: C6_35  and  O6_59 
REMARK       I    between atoms: S1_36  and  N_37 
REMARK       I    between atoms: S1_36  and  O1S_89 
REMARK       I    between atoms: S1_36  and  O3S_97 
REMARK       I    between atoms: N_37  and  C2_78 
REMARK       I    between atoms: C3_38  and  O3_81 
REMARK       I    between atoms: O4_39  and  C1_85 
REMARK       I    between atoms: O4_39  and  C4_69 
REMARK       I    between atoms: O3_40  and  C3_47 
REMARK       I    between atoms: O4_41  and  C1_76 
REMARK       I    between atoms: O4_41  and  C4_43 
REMARK       I    between atoms: S2_44  and  O6_80 
REMARK       I    between atoms: S_46  and  O2_57 
REMARK       I    between atoms: O3S_49  and  S1_75 
REMARK       I    between atoms: C1_54  and  O4_96 
REMARK       I    between atoms: O2_57  and  C2_66 
REMARK       I    between atoms: O6_58  and  C6_64 
REMARK       I    between atoms: O6_58  and  S2_101 
REMARK       I    between atoms: O6_59  and  S2_73 
REMARK       I    between atoms: O3_61  and  C3_77 
REMARK       I    between atoms: O2_63  and  S_104 
REMARK       I    between atoms: S1_75  and  O1S_92 
REMARK       I    between atoms: O6_80  and  C6_88 
REMARK       I    between atoms: C5_83  and  C6_88 
REMARK       I    between atoms: O3S_84  and  S1_100 
REMARK       I    between atoms: C5_87  and  C6_103 
REMARK       I    between atoms: O1S_91  and  S1_100 
REMARK       I    between atoms: O4_96  and  C4_99 
ROOT
ATOM      1  N   SGN d 304      18.521  10.446  15.111  0.00  0.00    -0.210 NA
ATOM      2  O2S SGN d 304      19.190  11.759  17.118  0.00  0.00    -0.296 OA
ATOM      3  C5  SGN d 304      20.558  13.013  12.518  0.00  0.00     0.091 C 
ATOM      4  O5S SGN d 304      21.823  16.549  10.914  0.00  0.00    -0.572 OA
ATOM      5  O3  SGN d 304      17.112  11.550  12.794  0.00  0.00    -0.391 OA
ATOM      6  C3  SGN d 304      18.523  11.582  12.900  0.00  0.00     0.083 C 
ATOM      7  O4  SGN d 304      18.610  13.119  11.002  0.00  0.00    -0.348 OA
ATOM      8  O5  SGN d 304      20.951  12.824  13.863  0.00  0.00    -0.349 OA
ATOM      9  C4  SGN d 304      19.018  12.944  12.391  0.00  0.00     0.095 C 
ATOM     10  O4S SGN d 304      24.198  16.157  11.633  0.00  0.00    -0.572 OA
ATOM     11  O6S SGN d 304      22.541  17.005  13.134  0.00  0.00    -0.572 OA
ATOM     12  O6  SGN d 304      22.453  14.634  12.233  0.00  0.00    -0.254 OA
ATOM     13  C6  SGN d 304      21.049  14.445  12.124  0.00  0.00     0.067 C 
ATOM     14  C2  SGN d 304      18.960  11.590  14.392  0.00  0.00     0.081 C 
ATOM     15  O3S SGN d 304      16.866  11.868  16.431  0.00  0.00    -0.296 OA
ATOM     16  C1  SGN d 304      20.487  11.568  14.469  0.00  0.00     0.150 C 
ATOM     17  O1S SGN d 304      17.618   9.754  17.307  0.00  0.00    -0.296 OA
ATOM     18  S1  SGN d 304      18.068  10.930  16.620  0.00  0.00     0.156 S 
ATOM     19  S2  SGN d 304      22.786  16.130  11.901  0.00  0.00     0.251 S 
ATOM     20  H   SGN d 304      19.279   9.768  15.179  0.00  0.00     0.140 HD
ATOM     21  H   SGN d 304      19.336  12.502  16.513  0.00  0.00     0.231 HD
ATOM     22  H   SGN d 304      20.973  12.257  11.884  0.00  0.00     0.090 H 
ATOM     23  H   SGN d 304      16.783  10.695  13.112  0.00  0.00     0.210 HD
ATOM     24  H   SGN d 304      18.904  10.739  12.362  0.00  0.00     0.089 H 
ATOM     25  H   SGN d 304      18.591  13.729  12.978  0.00  0.00     0.091 H 
ATOM     26  H   SGN d 304      20.565  15.153  12.764  0.00  0.00     0.080 H 
ATOM     27  H   SGN d 304      20.803  14.579  11.091  0.00  0.00     0.080 H 
ATOM     28  H   SGN d 304      18.525  12.468  14.821  0.00  0.00     0.076 H 
ATOM     29  H   SGN d 304      17.151  12.671  15.967  0.00  0.00     0.231 HD
ATOM     30  H   SGN d 304      20.917  11.536  15.449  0.00  0.00     0.131 H 
ATOM     31  H   SGN d 304      18.365   9.149  17.436  0.00  0.00     0.231 HD
ATOM     32  O6S SGN d 306      22.207   5.442   8.645  0.00  0.00    -0.572 OA
ATOM     33  O5S SGN d 306      21.853   3.245   9.610  0.00  0.00    -0.572 OA
ATOM     34  O2S SGN d 306      28.598   8.604  12.599  0.00  0.00    -0.296 OA
ATOM     35  C1  SGN d 306      26.806   5.801  12.194  0.00  0.00     0.038 C 
ATOM     36  N   SGN d 306      27.796   6.853  14.098  0.00  0.00    -0.212 NA
ATOM     37  O3  SGN d 306      25.386   7.390  15.249  0.00  0.00    -0.391 OA
ATOM     38  S2  SGN d 306      22.881   4.109   9.030  0.00  0.00     0.251 S 
ATOM     39  C3  SGN d 306      25.476   6.426  14.192  0.00  0.00     0.081 C 
ATOM     40  O3S SGN d 306      27.461   9.350  14.623  0.00  0.00    -0.296 OA
ATOM     41  O4S SGN d 306      23.708   3.692   7.925  0.00  0.00    -0.572 OA
ATOM     42  O5  SGN d 306      25.629   5.739  11.376  0.00  0.00    -0.379 OA
ATOM     43  S1  SGN d 306      28.498   8.328  14.055  0.00  0.00     0.156 S 
ATOM     44  O6  SGN d 306      23.858   4.333  10.184  0.00  0.00    -0.254 OA
ATOM     45  C2  SGN d 306      26.622   6.798  13.315  0.00  0.00     0.054 C 
ATOM     46  C5  SGN d 306      24.472   5.384  12.164  0.00  0.00     0.087 C 
ATOM     47  C6  SGN d 306      23.339   5.298  11.149  0.00  0.00     0.067 C 
ATOM     48  O1S SGN d 306      29.677   8.227  14.929  0.00  0.00    -0.296 OA
ATOM     49  O4  SGN d 306      23.035   6.095  14.166  0.00  0.00    -0.348 OA
ATOM     50  C4  SGN d 306      24.221   6.422  13.310  0.00  0.00     0.095 C 
ATOM     51  H   SGN d 306      27.709   8.629  12.213  0.00  0.00     0.231 HD
ATOM     52  H   SGN d 306      26.996   4.834  12.610  0.00  0.00     0.077 H 
ATOM     53  H   SGN d 306      27.632   6.111  11.587  0.00  0.00     0.077 H 
ATOM     54  H   SGN d 306      28.459   6.163  13.744  0.00  0.00     0.140 HD
ATOM     55  H   SGN d 306      26.196   7.361  15.782  0.00  0.00     0.210 HD
ATOM     56  H   SGN d 306      25.594   5.461  14.639  0.00  0.00     0.089 H 
ATOM     57  H   SGN d 306      26.695   9.398  14.029  0.00  0.00     0.231 HD
ATOM     58  H   SGN d 306      26.421   7.752  12.876  0.00  0.00     0.072 H 
ATOM     59  H   SGN d 306      24.584   4.457  12.687  0.00  0.00     0.090 H 
ATOM     60  H   SGN d 306      22.437   4.944  11.604  0.00  0.00     0.080 H 
ATOM     61  H   SGN d 306      23.080   6.240  10.714  0.00  0.00     0.080 H 
ATOM     62  H   SGN d 306      30.303   7.588  14.554  0.00  0.00     0.231 HD
ATOM     63  H   SGN d 306      24.018   7.372  12.862  0.00  0.00     0.091 H 
ATOM     64  O6S SGN d 302       8.429  15.753   9.384  0.00  0.00    -0.572 OA
ATOM     65  O2S SGN d 302      15.999  15.320   5.968  0.00  0.00    -0.296 OA
ATOM     66  O5S SGN d 302       8.771  16.976  11.452  0.00  0.00    -0.572 OA
ATOM     67  C5  SGN d 302      12.427  17.208   9.491  0.00  0.00     0.091 C 
ATOM     68  O4  SGN d 302      11.942  19.589   9.475  0.00  0.00    -0.348 OA
ATOM     69  O3  SGN d 302      14.302  19.934   7.680  0.00  0.00    -0.391 OA
ATOM     70  C6  SGN d 302      10.939  16.975   9.815  0.00  0.00     0.067 C 
ATOM     71  S1  SGN d 302      16.472  16.666   5.784  0.00  0.00     0.156 S 
ATOM     72  N   SGN d 302      15.945  17.591   7.104  0.00  0.00    -0.210 NA
ATOM     73  O4S SGN d 302       8.879  14.431  11.298  0.00  0.00    -0.572 OA
ATOM     74  O6  SGN d 302      10.691  15.807  10.555  0.00  0.00    -0.254 OA
ATOM     75  O5  SGN d 302      12.955  16.062   8.714  0.00  0.00    -0.349 OA
ATOM     76  C4  SGN d 302      12.563  18.509   8.696  0.00  0.00     0.095 C 
ATOM     77  S2  SGN d 302       9.135  15.733  10.749  0.00  0.00     0.251 S 
ATOM     78  C1  SGN d 302      14.357  16.200   8.232  0.00  0.00     0.150 C 
ATOM     79  C2  SGN d 302      14.544  17.544   7.519  0.00  0.00     0.081 C 
ATOM     80  O1S SGN d 302      17.875  16.969   5.697  0.00  0.00    -0.296 OA
ATOM     81  C3  SGN d 302      14.095  18.728   8.406  0.00  0.00     0.083 C 
ATOM     82  O3S SGN d 302      15.784  17.095   4.497  0.00  0.00    -0.296 OA
ATOM     83  H   SGN d 302      16.386  14.949   6.777  0.00  0.00     0.231 HD
ATOM     84  H   SGN d 302      12.992  17.289  10.396  0.00  0.00     0.090 H 
ATOM     85  H   SGN d 302      14.025  20.690   8.222  0.00  0.00     0.210 HD
ATOM     86  H   SGN d 302      10.400  16.910   8.893  0.00  0.00     0.080 H 
ATOM     87  H   SGN d 302      10.623  17.798  10.422  0.00  0.00     0.080 H 
ATOM     88  H   SGN d 302      16.153  18.565   6.884  0.00  0.00     0.140 HD
ATOM     89  H   SGN d 302      12.060  18.483   7.751  0.00  0.00     0.091 H 
ATOM     90  H   SGN d 302      14.481  15.378   7.558  0.00  0.00     0.131 H 
ATOM     91  H   SGN d 302      13.920  17.634   6.655  0.00  0.00     0.076 H 
ATOM     92  H   SGN d 302      18.316  16.696   6.517  0.00  0.00     0.231 HD
ATOM     93  H   SGN d 302      14.641  18.786   9.325  0.00  0.00     0.089 H 
ATOM     94  H   SGN d 302      14.837  16.891   4.553  0.00  0.00     0.231 HD
ATOM     95  O5  IDS d 303      17.295  15.173  11.262  0.00  0.00    -0.340 OA
ATOM     96  O2S IDS d 303      20.935  15.076   8.796  0.00  0.00    -0.572 OA
ATOM     97  O4  IDS d 303      15.390  16.026   9.215  0.00  0.00    -0.348 OA
ATOM     98  O1S IDS d 303      20.388  17.307   7.779  0.00  0.00    -0.572 OA
ATOM     99  C4  IDS d 303      15.611  14.651   9.535  0.00  0.00     0.103 C 
ATOM    100  S   IDS d 303      20.089  15.934   7.992  0.00  0.00     0.252 S 
ATOM    101  O2  IDS d 303      18.610  15.885   8.670  0.00  0.00    -0.244 OA
ATOM    102  O3  IDS d 303      16.690  12.566   9.104  0.00  0.00    -0.390 OA
ATOM    103  O61 IDS d 303      15.082  16.342  12.502  0.00  0.00    -0.646 OA
ATOM    104  C2  IDS d 303      18.234  14.480   9.031  0.00  0.00     0.134 C 
ATOM    105  C1  IDS d 303      18.401  14.461  10.558  0.00  0.00     0.161 C 
ATOM    106  O3S IDS d 303      20.053  15.298   6.596  0.00  0.00    -0.572 OA
ATOM    107  C3  IDS d 303      16.734  13.943   8.692  0.00  0.00     0.094 C 
ATOM    108  C5  IDS d 303      15.955  14.587  11.029  0.00  0.00     0.152 C 
ATOM    109  O62 IDS d 303      13.561  14.966  11.672  0.00  0.00    -0.646 OA
ATOM    110  C6  IDS d 303      14.832  15.360  11.801  0.00  0.00     0.206 C 
ATOM    111  H   IDS d 303      14.718  14.114   9.291  0.00  0.00     0.092 H 
ATOM    112  H   IDS d 303      15.810  12.202   8.921  0.00  0.00     0.210 HD
ATOM    113  H   IDS d 303      18.845  13.831   8.437  0.00  0.00     0.097 H 
ATOM    114  H   IDS d 303      19.275  15.020  10.820  0.00  0.00     0.133 H 
ATOM    115  H   IDS d 303      16.556  14.124   7.652  0.00  0.00     0.091 H 
ATOM    116  H   IDS d 303      15.994  13.577  11.381  0.00  0.00     0.104 H 
ATOM    117  C1  UAP d 301      12.420  20.127  10.693  0.00  0.00     0.167 C 
ATOM    118  C5  UAP d 301      13.372  22.146  11.518  0.00  0.00     0.147 C 
ATOM    119  O61 UAP d 301      14.764  24.000  12.173  0.00  0.00    -0.642 OA
ATOM    120  C2  UAP d 301      11.141  20.408  11.604  0.00  0.00     0.135 C 
ATOM    121  O62 UAP d 301      15.017  23.304  10.045  0.00  0.00    -0.642 OA
ATOM    122  O3  UAP d 301      12.221  19.867  13.774  0.00  0.00    -0.389 OA
ATOM    123  O5  UAP d 301      13.121  21.368  10.427  0.00  0.00    -0.311 OA
ATOM    124  C6  UAP d 301      14.427  23.209  11.282  0.00  0.00     0.233 C 
ATOM    125  O2  UAP d 301      10.211  21.433  10.986  0.00  0.00    -0.244 OA
ATOM    126  C3  UAP d 301      11.672  20.961  12.992  0.00  0.00     0.086 C 
ATOM    127  O2S UAP d 301       9.312  19.668   9.529  0.00  0.00    -0.572 OA
ATOM    128  C4  UAP d 301      12.768  22.033  12.735  0.00  0.00    -0.034 C 
ATOM    129  O3S UAP d 301       8.055  20.105  11.586  0.00  0.00    -0.572 OA
ATOM    130  O1S UAP d 301       8.004  21.826   9.872  0.00  0.00    -0.572 OA
ATOM    131  S   UAP d 301       8.846  20.759  10.411  0.00  0.00     0.252 S 
ATOM    132  H   UAP d 301      13.097  19.456  11.179  0.00  0.00     0.134 H 
ATOM    133  H   UAP d 301      10.583  19.502  11.714  0.00  0.00     0.097 H 
ATOM    134  H   UAP d 301      11.532  19.203  13.930  0.00  0.00     0.210 HD
ATOM    135  H   UAP d 301      10.864  21.406  13.534  0.00  0.00     0.093 H 
ATOM    136  H   UAP d 301      13.043  22.671  13.499  0.00  0.00     0.085 H 
ATOM    137  C5  IDS d 305      22.623   8.779  12.967  0.00  0.00     0.152 C 
ATOM    138  O2  IDS d 305      19.793   7.773  15.037  0.00  0.00    -0.244 OA
ATOM    139  C6  IDS d 305      22.673   9.586  11.686  0.00  0.00     0.206 C 
ATOM    140  O61 IDS d 305      21.996   9.259  10.704  0.00  0.00    -0.646 OA
ATOM    141  O2S IDS d 305      19.319   5.389  15.415  0.00  0.00    -0.572 OA
ATOM    142  O62 IDS d 305      23.485  10.652  11.633  0.00  0.00    -0.646 OA
ATOM    143  O5  IDS d 305      21.699   7.643  12.793  0.00  0.00    -0.340 OA
ATOM    144  C3  IDS d 305      22.059   8.800  15.488  0.00  0.00     0.094 C 
ATOM    145  O4  IDS d 305      20.896  10.310  13.764  0.00  0.00    -0.348 OA
ATOM    146  O1S IDS d 305      17.514   7.092  15.601  0.00  0.00    -0.572 OA
ATOM    147  C2  IDS d 305      21.205   7.482  15.257  0.00  0.00     0.134 C 
ATOM    148  C1  IDS d 305      21.714   6.747  13.968  0.00  0.00     0.161 C 
ATOM    149  C4  IDS d 305      22.152   9.692  14.155  0.00  0.00     0.103 C 
ATOM    150  O3  IDS d 305      23.371   8.360  15.784  0.00  0.00    -0.390 OA
ATOM    151  S   IDS d 305      18.885   6.715  15.832  0.00  0.00     0.252 S 
ATOM    152  O3S IDS d 305      19.198   6.868  17.336  0.00  0.00    -0.572 OA
ATOM    153  H   IDS d 305      23.599   8.403  13.192  0.00  0.00     0.104 H 
ATOM    154  H   IDS d 305      21.610   9.390  16.260  0.00  0.00     0.091 H 
ATOM    155  H   IDS d 305      21.318   6.885  16.138  0.00  0.00     0.097 H 
ATOM    156  H   IDS d 305      21.022   5.955  13.769  0.00  0.00     0.133 H 
ATOM    157  H   IDS d 305      22.843  10.480  14.373  0.00  0.00     0.092 H 
ATOM    158  H   IDS d 305      23.710   7.836  15.042  0.00  0.00     0.210 HD
ENDROOT
TORSDOF 49
ENDMDL
MODEL 19
REMARK VINA RESULT:      -7.5      3.581     15.416
REMARK  0 active torsions:
REMARK  status: ('A' for Active; 'I' for Inactive)
REMARK       I    between atoms: N_1  and  C2_65 
REMARK       I    between atoms: N_1  and  S1_100 
REMARK       I    between atoms: O2S_4  and  S1_36 
REMARK       I    between atoms: O2S_5  and  S1_100 
REMARK       I    between atoms: C5_7  and  C6_64 
REMARK       I    between atoms: O3_11  and  C3_17 
REMARK       I    between atoms: C1_12  and  O4_28 
REMARK       I    between atoms: C5_13  and  C6_35 
REMARK       I    between atoms: C5_14  and  C6_52 
REMARK       I    between atoms: O2S_16  and  S1_75 
REMARK       I    between atoms: C2_18  and  O2_63 
REMARK       I    between atoms: C5_19  and  C6_22 
REMARK       I    between atoms: O2_20  and  C2_53 
REMARK       I    between atoms: O2_20  and  S_86 
REMARK       I    between atoms: O4_21  and  C1_67 
REMARK       I    between atoms: O4_21  and  C4_48 
REMARK       I    between atoms: O3_26  and  C3_72 
REMARK       I    between atoms: O4_28  and  C4_71 
REMARK       I    between atoms: O3_30  and  C3_94 
REMARK       I    between atoms: N_33  and  C2_82 
REMARK       I    between atoms: N_33  and  S1_75 
REMARK       I    between atoms: C6_35  and  O6_59 
REMARK       I    between atoms: S1_36  and  N_37 
REMARK       I    between atoms: S1_36  and  O1S_89 
REMARK       I    between atoms: S1_36  and  O3S_97 
REMARK       I    between atoms: N_37  and  C2_78 
REMARK       I    between atoms: C3_38  and  O3_81 
REMARK       I    between atoms: O4_39  and  C1_85 
REMARK       I    between atoms: O4_39  and  C4_69 
REMARK       I    between atoms: O3_40  and  C3_47 
REMARK       I    between atoms: O4_41  and  C1_76 
REMARK       I    between atoms: O4_41  and  C4_43 
REMARK       I    between atoms: S2_44  and  O6_80 
REMARK       I    between atoms: S_46  and  O2_57 
REMARK       I    between atoms: O3S_49  and  S1_75 
REMARK       I    between atoms: C1_54  and  O4_96 
REMARK       I    between atoms: O2_57  and  C2_66 
REMARK       I    between atoms: O6_58  and  C6_64 
REMARK       I    between atoms: O6_58  and  S2_101 
REMARK       I    between atoms: O6_59  and  S2_73 
REMARK       I    between atoms: O3_61  and  C3_77 
REMARK       I    between atoms: O2_63  and  S_104 
REMARK       I    between atoms: S1_75  and  O1S_92 
REMARK       I    between atoms: O6_80  and  C6_88 
REMARK       I    between atoms: C5_83  and  C6_88 
REMARK       I    between atoms: O3S_84  and  S1_100 
REMARK       I    between atoms: C5_87  and  C6_103 
REMARK       I    between atoms: O1S_91  and  S1_100 
REMARK       I    between atoms: O4_96  and  C4_99 
ROOT
ATOM      1  N   SGN d 304      21.683   6.191   8.859  0.00  0.00    -0.210 NA
ATOM      2  O2S SGN d 304      19.870   6.131   7.154  0.00  0.00    -0.296 OA
ATOM      3  C5  SGN d 304      19.833   9.273  10.992  0.00  0.00     0.091 C 
ATOM      4  O5S SGN d 304      17.882  12.807  11.608  0.00  0.00    -0.572 OA
ATOM      5  O3  SGN d 304      23.232   8.576   9.557  0.00  0.00    -0.391 OA
ATOM      6  C3  SGN d 304      21.996   8.275  10.178  0.00  0.00     0.083 C 
ATOM      7  O4  SGN d 304      21.961  10.517  11.150  0.00  0.00    -0.348 OA
ATOM      8  O5  SGN d 304      19.105   8.348  10.207  0.00  0.00    -0.349 OA
ATOM      9  C4  SGN d 304      21.199   9.579  10.335  0.00  0.00     0.095 C 
ATOM     10  O4S SGN d 304      15.795  11.649  12.392  0.00  0.00    -0.572 OA
ATOM     11  O6S SGN d 304      16.306  11.910  10.070  0.00  0.00    -0.572 OA
ATOM     12  O6  SGN d 304      17.675  10.407  11.588  0.00  0.00    -0.254 OA
ATOM     13  C6  SGN d 304      18.970  10.577  11.030  0.00  0.00     0.067 C 
ATOM     14  C2  SGN d 304      21.098   7.432   9.230  0.00  0.00     0.081 C 
ATOM     15  O3S SGN d 304      22.020   7.025   6.472  0.00  0.00    -0.296 OA
ATOM     16  C1  SGN d 304      19.797   7.077   9.952  0.00  0.00     0.150 C 
ATOM     17  O1S SGN d 304      21.949   4.662   6.933  0.00  0.00    -0.296 OA
ATOM     18  S1  SGN d 304      21.330   5.910   7.274  0.00  0.00     0.156 S 
ATOM     19  S2  SGN d 304      16.896  11.763  11.476  0.00  0.00     0.251 S 
ATOM     20  H   SGN d 304      21.301   5.442   9.436  0.00  0.00     0.140 HD
ATOM     21  H   SGN d 304      19.656   7.034   7.432  0.00  0.00     0.231 HD
ATOM     22  H   SGN d 304      20.020   8.885  11.971  0.00  0.00     0.090 H 
ATOM     23  H   SGN d 304      23.747   7.762   9.450  0.00  0.00     0.210 HD
ATOM     24  H   SGN d 304      22.213   7.772  11.097  0.00  0.00     0.089 H 
ATOM     25  H   SGN d 304      21.027  10.017   9.374  0.00  0.00     0.091 H 
ATOM     26  H   SGN d 304      18.859  10.935  10.028  0.00  0.00     0.080 H 
ATOM     27  H   SGN d 304      19.487  11.267  11.664  0.00  0.00     0.080 H 
ATOM     28  H   SGN d 304      20.950   8.030   8.356  0.00  0.00     0.076 H 
ATOM     29  H   SGN d 304      21.614   7.879   6.689  0.00  0.00     0.231 HD
ATOM     30  H   SGN d 304      19.103   6.465   9.416  0.00  0.00     0.131 H 
ATOM     31  H   SGN d 304      21.525   3.945   7.430  0.00  0.00     0.231 HD
ATOM     32  O6S SGN d 306      22.937   4.607  17.597  0.00  0.00    -0.572 OA
ATOM     33  O5S SGN d 306      23.798   2.343  17.458  0.00  0.00    -0.572 OA
ATOM     34  O2S SGN d 306      14.869   3.984  16.601  0.00  0.00    -0.296 OA
ATOM     35  C1  SGN d 306      17.671   2.196  17.024  0.00  0.00     0.038 C 
ATOM     36  N   SGN d 306      15.733   1.906  15.657  0.00  0.00    -0.212 NA
ATOM     37  O3  SGN d 306      17.128   2.233  13.339  0.00  0.00    -0.391 OA
ATOM     38  S2  SGN d 306      22.784   3.164  18.120  0.00  0.00     0.251 S 
ATOM     39  C3  SGN d 306      17.824   1.951  14.561  0.00  0.00     0.081 C 
ATOM     40  O3S SGN d 306      14.800   3.791  14.172  0.00  0.00    -0.296 OA
ATOM     41  O4S SGN d 306      22.653   3.222  19.555  0.00  0.00    -0.572 OA
ATOM     42  O5  SGN d 306      18.975   2.791  17.089  0.00  0.00    -0.379 OA
ATOM     43  S1  SGN d 306      14.551   3.026  15.512  0.00  0.00     0.156 S 
ATOM     44  O6  SGN d 306      21.463   2.570  17.632  0.00  0.00    -0.254 OA
ATOM     45  C2  SGN d 306      17.018   2.490  15.693  0.00  0.00     0.054 C 
ATOM     46  C5  SGN d 306      19.814   2.315  16.014  0.00  0.00     0.087 C 
ATOM     47  C6  SGN d 306      21.160   2.983  16.265  0.00  0.00     0.067 C 
ATOM     48  O1S SGN d 306      13.294   2.265  15.462  0.00  0.00    -0.296 OA
ATOM     49  O4  SGN d 306      20.019   2.161  13.463  0.00  0.00    -0.348 OA
ATOM     50  C4  SGN d 306      19.192   2.644  14.615  0.00  0.00     0.095 C 
ATOM     51  H   SGN d 306      15.742   4.375  16.443  0.00  0.00     0.231 HD
ATOM     52  H   SGN d 306      17.763   1.136  17.145  0.00  0.00     0.077 H 
ATOM     53  H   SGN d 306      17.065   2.606  17.805  0.00  0.00     0.077 H 
ATOM     54  H   SGN d 306      15.586   1.382  16.519  0.00  0.00     0.140 HD
ATOM     55  H   SGN d 306      16.271   1.778  13.344  0.00  0.00     0.210 HD
ATOM     56  H   SGN d 306      17.964   0.892  14.621  0.00  0.00     0.089 H 
ATOM     57  H   SGN d 306      15.634   4.284  14.231  0.00  0.00     0.231 HD
ATOM     58  H   SGN d 306      16.950   3.552  15.589  0.00  0.00     0.072 H 
ATOM     59  H   SGN d 306      19.916   1.249  15.998  0.00  0.00     0.090 H 
ATOM     60  H   SGN d 306      21.902   2.629  15.580  0.00  0.00     0.080 H 
ATOM     61  H   SGN d 306      21.143   4.044  16.132  0.00  0.00     0.080 H 
ATOM     62  H   SGN d 306      13.164   1.801  16.305  0.00  0.00     0.231 HD
ATOM     63  H   SGN d 306      19.130   3.708  14.519  0.00  0.00     0.091 H 
ATOM     64  O6S SGN d 302      29.999  15.525   6.299  0.00  0.00    -0.572 OA
ATOM     65  O2S SGN d 302      25.029  15.446  12.967  0.00  0.00    -0.296 OA
ATOM     66  O5S SGN d 302      28.476  15.420   4.412  0.00  0.00    -0.572 OA
ATOM     67  C5  SGN d 302      26.004  15.911   7.717  0.00  0.00     0.091 C 
ATOM     68  O4  SGN d 302      25.437  18.004   6.622  0.00  0.00    -0.348 OA
ATOM     69  O3  SGN d 302      23.947  18.755   9.097  0.00  0.00    -0.391 OA
ATOM     70  C6  SGN d 302      27.234  15.838   6.792  0.00  0.00     0.067 C 
ATOM     71  S1  SGN d 302      24.143  16.574  12.864  0.00  0.00     0.156 S 
ATOM     72  N   SGN d 302      23.737  16.773  11.229  0.00  0.00    -0.210 NA
ATOM     73  O4S SGN d 302      29.488  13.350   5.509  0.00  0.00    -0.572 OA
ATOM     74  O6  SGN d 302      27.662  14.531   6.511  0.00  0.00    -0.254 OA
ATOM     75  O5  SGN d 302      26.308  15.249   9.007  0.00  0.00    -0.349 OA
ATOM     76  C4  SGN d 302      25.635  17.381   7.937  0.00  0.00     0.095 C 
ATOM     77  S2  SGN d 302      28.930  14.671   5.596  0.00  0.00     0.251 S 
ATOM     78  C1  SGN d 302      25.244  15.339  10.045  0.00  0.00     0.150 C 
ATOM     79  C2  SGN d 302      24.785  16.792  10.211  0.00  0.00     0.081 C 
ATOM     80  O1S SGN d 302      22.871  16.600  13.534  0.00  0.00    -0.296 OA
ATOM     81  C3  SGN d 302      24.362  17.415   8.860  0.00  0.00     0.083 C 
ATOM     82  O3S SGN d 302      24.999  17.726  13.366  0.00  0.00    -0.296 OA
ATOM     83  H   SGN d 302      24.571  14.646  12.665  0.00  0.00     0.231 HD
ATOM     84  H   SGN d 302      25.176  15.405   7.266  0.00  0.00     0.090 H 
ATOM     85  H   SGN d 302      23.677  19.163   8.259  0.00  0.00     0.210 HD
ATOM     86  H   SGN d 302      28.040  16.362   7.264  0.00  0.00     0.080 H 
ATOM     87  H   SGN d 302      26.946  16.277   5.860  0.00  0.00     0.080 H 
ATOM     88  H   SGN d 302      23.239  17.660  11.155  0.00  0.00     0.140 HD
ATOM     89  H   SGN d 302      26.403  17.941   8.429  0.00  0.00     0.091 H 
ATOM     90  H   SGN d 302      25.717  14.973  10.932  0.00  0.00     0.131 H 
ATOM     91  H   SGN d 302      25.579  17.432  10.538  0.00  0.00     0.076 H 
ATOM     92  H   SGN d 302      22.323  15.865  13.215  0.00  0.00     0.231 HD
ATOM     93  H   SGN d 302      23.554  16.887   8.398  0.00  0.00     0.089 H 
ATOM     94  H   SGN d 302      25.858  17.711  12.916  0.00  0.00     0.231 HD
ATOM     95  O5  IDS d 303      22.127  12.356   9.537  0.00  0.00    -0.340 OA
ATOM     96  O2S IDS d 303      19.983  12.834  13.347  0.00  0.00    -0.572 OA
ATOM     97  O4  IDS d 303      24.100  14.489   9.863  0.00  0.00    -0.348 OA
ATOM     98  O1S IDS d 303      19.885  15.327  13.057  0.00  0.00    -0.572 OA
ATOM     99  C4  IDS d 303      24.369  13.132  10.222  0.00  0.00     0.103 C 
ATOM    100  S   IDS d 303      20.626  14.128  13.236  0.00  0.00     0.252 S 
ATOM    101  O2  IDS d 303      21.647  14.026  11.974  0.00  0.00    -0.244 OA
ATOM    102  O3  IDS d 303      24.473  11.400  11.861  0.00  0.00    -0.390 OA
ATOM    103  O61 IDS d 303      23.065  13.128   7.021  0.00  0.00    -0.646 OA
ATOM    104  C2  IDS d 303      22.414  12.739  12.009  0.00  0.00     0.134 C 
ATOM    105  C1  IDS d 303      21.741  11.907  10.906  0.00  0.00     0.161 C 
ATOM    106  O3S IDS d 303      21.412  14.319  14.540  0.00  0.00    -0.572 OA
ATOM    107  C3  IDS d 303      24.015  12.755  11.707  0.00  0.00     0.094 C 
ATOM    108  C5  IDS d 303      23.577  12.245   9.251  0.00  0.00     0.152 C 
ATOM    109  O62 IDS d 303      25.203  12.697   7.397  0.00  0.00    -0.646 OA
ATOM    110  C6  IDS d 303      23.928  12.714   7.798  0.00  0.00     0.206 C 
ATOM    111  H   IDS d 303      25.426  12.982  10.154  0.00  0.00     0.092 H 
ATOM    112  H   IDS d 303      25.427  11.360  11.690  0.00  0.00     0.210 HD
ATOM    113  H   IDS d 303      22.379  12.382  13.018  0.00  0.00     0.097 H 
ATOM    114  H   IDS d 303      20.685  12.071  10.943  0.00  0.00     0.133 H 
ATOM    115  H   IDS d 303      24.458  13.473  12.365  0.00  0.00     0.091 H 
ATOM    116  H   IDS d 303      23.835  11.213   9.362  0.00  0.00     0.104 H 
ATOM    117  C1  UAP d 301      24.382  17.737   5.717  0.00  0.00     0.167 C 
ATOM    118  C5  UAP d 301      22.459  18.817   4.823  0.00  0.00     0.147 C 
ATOM    119  O61 UAP d 301      20.295  19.762   4.346  0.00  0.00    -0.642 OA
ATOM    120  C2  UAP d 301      25.018  17.754   4.253  0.00  0.00     0.135 C 
ATOM    121  O62 UAP d 301      21.122  20.222   6.390  0.00  0.00    -0.642 OA
ATOM    122  O3  UAP d 301      23.565  15.978   3.299  0.00  0.00    -0.389 OA
ATOM    123  O5  UAP d 301      23.377  18.775   5.830  0.00  0.00    -0.311 OA
ATOM    124  C6  UAP d 301      21.219  19.623   5.157  0.00  0.00     0.233 C 
ATOM    125  O2  UAP d 301      25.595  19.108   3.894  0.00  0.00    -0.244 OA
ATOM    126  C3  UAP d 301      23.853  17.401   3.237  0.00  0.00     0.086 C 
ATOM    127  O2S UAP d 301      27.593  18.554   5.217  0.00  0.00    -0.572 OA
ATOM    128  C4  UAP d 301      22.582  18.216   3.606  0.00  0.00    -0.034 C 
ATOM    129  O3S UAP d 301      27.741  18.108   2.812  0.00  0.00    -0.572 OA
ATOM    130  O1S UAP d 301      27.681  20.436   3.504  0.00  0.00    -0.572 OA
ATOM    131  S   UAP d 301      27.223  19.104   3.895  0.00  0.00     0.252 S 
ATOM    132  H   UAP d 301      23.918  16.796   5.922  0.00  0.00     0.134 H 
ATOM    133  H   UAP d 301      25.821  17.048   4.212  0.00  0.00     0.097 H 
ATOM    134  H   UAP d 301      24.363  15.477   3.068  0.00  0.00     0.210 HD
ATOM    135  H   UAP d 301      24.156  17.652   2.242  0.00  0.00     0.093 H 
ATOM    136  H   UAP d 301      21.818  18.305   2.917  0.00  0.00     0.085 H 
ATOM    137  C5  IDS d 305      19.685   5.101  13.220  0.00  0.00     0.152 C 
ATOM    138  O2  IDS d 305      21.742   3.747  10.530  0.00  0.00    -0.244 OA
ATOM    139  C6  IDS d 305      19.763   6.423  13.955  0.00  0.00     0.206 C 
ATOM    140  O61 IDS d 305      20.814   6.785  14.498  0.00  0.00    -0.646 OA
ATOM    141  O2S IDS d 305      22.988   1.652  10.857  0.00  0.00    -0.572 OA
ATOM    142  O62 IDS d 305      18.661   7.184  14.023  0.00  0.00    -0.646 OA
ATOM    143  O5  IDS d 305      20.989   4.419  13.299  0.00  0.00    -0.340 OA
ATOM    144  C3  IDS d 305      19.256   3.935  10.954  0.00  0.00     0.094 C 
ATOM    145  O4  IDS d 305      20.222   6.308  11.166  0.00  0.00    -0.348 OA
ATOM    146  O1S IDS d 305      23.737   3.330   9.178  0.00  0.00    -0.572 OA
ATOM    147  C2  IDS d 305      20.598   3.117  11.178  0.00  0.00     0.134 C 
ATOM    148  C1  IDS d 305      20.930   3.065  12.711  0.00  0.00     0.161 C 
ATOM    149  C4  IDS d 305      19.282   5.346  11.721  0.00  0.00     0.103 C 
ATOM    150  O3  IDS d 305      18.232   3.161  11.547  0.00  0.00    -0.390 OA
ATOM    151  S   IDS d 305      22.659   2.631   9.830  0.00  0.00     0.252 S 
ATOM    152  O3S IDS d 305      21.801   1.927   8.757  0.00  0.00    -0.572 OA
ATOM    153  H   IDS d 305      18.940   4.482  13.675  0.00  0.00     0.104 H 
ATOM    154  H   IDS d 305      19.118   4.120   9.909  0.00  0.00     0.091 H 
ATOM    155  H   IDS d 305      20.438   2.144  10.763  0.00  0.00     0.097 H 
ATOM    156  H   IDS d 305      21.907   2.639  12.802  0.00  0.00     0.133 H 
ATOM    157  H   IDS d 305      18.301   5.760  11.616  0.00  0.00     0.092 H 
ATOM    158  H   IDS d 305      18.425   3.037  12.489  0.00  0.00     0.210 HD
ENDROOT
TORSDOF 49
ENDMDL
MODEL 20
REMARK VINA RESULT:      -7.5      2.436     15.134
REMARK  0 active torsions:
REMARK  status: ('A' for Active; 'I' for Inactive)
REMARK       I    between atoms: N_1  and  C2_65 
REMARK       I    between atoms: N_1  and  S1_100 
REMARK       I    between atoms: O2S_4  and  S1_36 
REMARK       I    between atoms: O2S_5  and  S1_100 
REMARK       I    between atoms: C5_7  and  C6_64 
REMARK       I    between atoms: O3_11  and  C3_17 
REMARK       I    between atoms: C1_12  and  O4_28 
REMARK       I    between atoms: C5_13  and  C6_35 
REMARK       I    between atoms: C5_14  and  C6_52 
REMARK       I    between atoms: O2S_16  and  S1_75 
REMARK       I    between atoms: C2_18  and  O2_63 
REMARK       I    between atoms: C5_19  and  C6_22 
REMARK       I    between atoms: O2_20  and  C2_53 
REMARK       I    between atoms: O2_20  and  S_86 
REMARK       I    between atoms: O4_21  and  C1_67 
REMARK       I    between atoms: O4_21  and  C4_48 
REMARK       I    between atoms: O3_26  and  C3_72 
REMARK       I    between atoms: O4_28  and  C4_71 
REMARK       I    between atoms: O3_30  and  C3_94 
REMARK       I    between atoms: N_33  and  C2_82 
REMARK       I    between atoms: N_33  and  S1_75 
REMARK       I    between atoms: C6_35  and  O6_59 
REMARK       I    between atoms: S1_36  and  N_37 
REMARK       I    between atoms: S1_36  and  O1S_89 
REMARK       I    between atoms: S1_36  and  O3S_97 
REMARK       I    between atoms: N_37  and  C2_78 
REMARK       I    between atoms: C3_38  and  O3_81 
REMARK       I    between atoms: O4_39  and  C1_85 
REMARK       I    between atoms: O4_39  and  C4_69 
REMARK       I    between atoms: O3_40  and  C3_47 
REMARK       I    between atoms: O4_41  and  C1_76 
REMARK       I    between atoms: O4_41  and  C4_43 
REMARK       I    between atoms: S2_44  and  O6_80 
REMARK       I    between atoms: S_46  and  O2_57 
REMARK       I    between atoms: O3S_49  and  S1_75 
REMARK       I    between atoms: C1_54  and  O4_96 
REMARK       I    between atoms: O2_57  and  C2_66 
REMARK       I    between atoms: O6_58  and  C6_64 
REMARK       I    between atoms: O6_58  and  S2_101 
REMARK       I    between atoms: O6_59  and  S2_73 
REMARK       I    between atoms: O3_61  and  C3_77 
REMARK       I    between atoms: O2_63  and  S_104 
REMARK       I    between atoms: S1_75  and  O1S_92 
REMARK       I    between atoms: O6_80  and  C6_88 
REMARK       I    between atoms: C5_83  and  C6_88 
REMARK       I    between atoms: O3S_84  and  S1_100 
REMARK       I    between atoms: C5_87  and  C6_103 
REMARK       I    between atoms: O1S_91  and  S1_100 
REMARK       I    between atoms: O4_96  and  C4_99 
ROOT
ATOM      1  N   SGN d 304      17.666   7.281  10.449  0.00  0.00    -0.210 NA
ATOM      2  O2S SGN d 304      15.558   7.791   9.226  0.00  0.00    -0.296 OA
ATOM      3  C5  SGN d 304      17.520  10.872  12.582  0.00  0.00     0.091 C 
ATOM      4  O5S SGN d 304      17.042  14.877  13.220  0.00  0.00    -0.572 OA
ATOM      5  O3  SGN d 304      20.025   9.013  10.492  0.00  0.00    -0.391 OA
ATOM      6  C3  SGN d 304      18.961   9.171  11.412  0.00  0.00     0.083 C 
ATOM      7  O4  SGN d 304      19.901  11.318  12.102  0.00  0.00    -0.348 OA
ATOM      8  O5  SGN d 304      16.357  10.228  12.097  0.00  0.00    -0.349 OA
ATOM      9  C4  SGN d 304      18.696  10.673  11.597  0.00  0.00     0.095 C 
ATOM     10  O4S SGN d 304      14.966  14.525  14.592  0.00  0.00    -0.572 OA
ATOM     11  O6S SGN d 304      14.922  14.526  12.201  0.00  0.00    -0.572 OA
ATOM     12  O6  SGN d 304      16.073  12.692  13.525  0.00  0.00    -0.254 OA
ATOM     13  C6  SGN d 304      17.165  12.393  12.668  0.00  0.00     0.067 C 
ATOM     14  C2  SGN d 304      17.628   8.657  10.800  0.00  0.00     0.081 C 
ATOM     15  O3S SGN d 304      17.631   7.877   7.969  0.00  0.00    -0.296 OA
ATOM     16  C1  SGN d 304      16.513   8.790  11.838  0.00  0.00     0.150 C 
ATOM     17  O1S SGN d 304      16.922   5.695   8.703  0.00  0.00    -0.296 OA
ATOM     18  S1  SGN d 304      16.847   7.089   9.031  0.00  0.00     0.156 S 
ATOM     19  S2  SGN d 304      15.772  14.229  13.440  0.00  0.00     0.251 S 
ATOM     20  H   SGN d 304      17.223   6.725  11.180  0.00  0.00     0.140 HD
ATOM     21  H   SGN d 304      15.725   8.722   9.440  0.00  0.00     0.231 HD
ATOM     22  H   SGN d 304      17.816  10.473  13.530  0.00  0.00     0.090 H 
ATOM     23  H   SGN d 304      20.205   8.069  10.364  0.00  0.00     0.210 HD
ATOM     24  H   SGN d 304      19.231   8.652  12.308  0.00  0.00     0.089 H 
ATOM     25  H   SGN d 304      18.435  11.114  10.658  0.00  0.00     0.091 H 
ATOM     26  H   SGN d 304      16.923  12.737  11.684  0.00  0.00     0.080 H 
ATOM     27  H   SGN d 304      18.021  12.883  13.082  0.00  0.00     0.080 H 
ATOM     28  H   SGN d 304      17.462   9.243   9.921  0.00  0.00     0.076 H 
ATOM     29  H   SGN d 304      17.593   8.824   8.174  0.00  0.00     0.231 HD
ATOM     30  H   SGN d 304      15.545   8.435  11.550  0.00  0.00     0.131 H 
ATOM     31  H   SGN d 304      16.431   5.181   9.363  0.00  0.00     0.231 HD
ATOM     32  O6S SGN d 306      20.531   5.629  18.785  0.00  0.00    -0.572 OA
ATOM     33  O5S SGN d 306      20.549   3.204  18.713  0.00  0.00    -0.572 OA
ATOM     34  O2S SGN d 306      12.723   7.768  19.754  0.00  0.00    -0.296 OA
ATOM     35  C1  SGN d 306      14.807   5.144  19.722  0.00  0.00     0.038 C 
ATOM     36  N   SGN d 306      12.598   5.492  18.881  0.00  0.00    -0.212 NA
ATOM     37  O3  SGN d 306      13.382   5.253  16.282  0.00  0.00    -0.391 OA
ATOM     38  S2  SGN d 306      20.059   4.341  19.492  0.00  0.00     0.251 S 
ATOM     39  C3  SGN d 306      14.237   4.788  17.335  0.00  0.00     0.081 C 
ATOM     40  O3S SGN d 306      11.977   7.536  17.444  0.00  0.00    -0.296 OA
ATOM     41  O4S SGN d 306      20.325   4.484  20.902  0.00  0.00    -0.572 OA
ATOM     42  O5  SGN d 306      16.204   5.261  19.416  0.00  0.00    -0.379 OA
ATOM     43  S1  SGN d 306      11.846   6.944  18.884  0.00  0.00     0.156 S 
ATOM     44  O6  SGN d 306      18.539   4.219  19.393  0.00  0.00    -0.254 OA
ATOM     45  C2  SGN d 306      13.967   5.603  18.553  0.00  0.00     0.054 C 
ATOM     46  C5  SGN d 306      16.539   4.494  18.239  0.00  0.00     0.087 C 
ATOM     47  C6  SGN d 306      18.047   4.669  18.094  0.00  0.00     0.067 C 
ATOM     48  O1S SGN d 306      10.441   6.656  19.214  0.00  0.00    -0.296 OA
ATOM     49  O4  SGN d 306      16.025   4.203  15.744  0.00  0.00    -0.348 OA
ATOM     50  C4  SGN d 306      15.722   4.973  16.993  0.00  0.00     0.095 C 
ATOM     51  H   SGN d 306      13.605   7.833  19.355  0.00  0.00     0.231 HD
ATOM     52  H   SGN d 306      14.579   4.121  19.939  0.00  0.00     0.077 H 
ATOM     53  H   SGN d 306      14.587   5.760  20.569  0.00  0.00     0.077 H 
ATOM     54  H   SGN d 306      12.515   5.077  19.808  0.00  0.00     0.140 HD
ATOM     55  H   SGN d 306      12.455   5.119  16.537  0.00  0.00     0.210 HD
ATOM     56  H   SGN d 306      14.038   3.747  17.482  0.00  0.00     0.089 H 
ATOM     57  H   SGN d 306      12.911   7.717  17.252  0.00  0.00     0.231 HD
ATOM     58  H   SGN d 306      14.221   6.621  18.346  0.00  0.00     0.072 H 
ATOM     59  H   SGN d 306      16.285   3.458  18.322  0.00  0.00     0.090 H 
ATOM     60  H   SGN d 306      18.433   4.063  17.302  0.00  0.00     0.080 H 
ATOM     61  H   SGN d 306      18.340   5.668  17.848  0.00  0.00     0.080 H 
ATOM     62  H   SGN d 306      10.388   6.290  20.111  0.00  0.00     0.231 HD
ATOM     63  H   SGN d 306      15.984   5.991  16.792  0.00  0.00     0.091 H 
ATOM     64  O6S SGN d 302      27.603  13.132   4.986  0.00  0.00    -0.572 OA
ATOM     65  O2S SGN d 302      24.754  14.956  12.584  0.00  0.00    -0.296 OA
ATOM     66  O5S SGN d 302      25.699  13.497   3.526  0.00  0.00    -0.572 OA
ATOM     67  C5  SGN d 302      24.450  14.902   7.233  0.00  0.00     0.091 C 
ATOM     68  O4  SGN d 302      24.329  17.029   6.065  0.00  0.00    -0.348 OA
ATOM     69  O3  SGN d 302      23.847  18.318   8.714  0.00  0.00    -0.391 OA
ATOM     70  C6  SGN d 302      25.311  14.385   6.065  0.00  0.00     0.067 C 
ATOM     71  S1  SGN d 302      24.284  16.316  12.559  0.00  0.00     0.156 S 
ATOM     72  N   SGN d 302      23.561  16.591  11.049  0.00  0.00    -0.210 NA
ATOM     73  O4S SGN d 302      26.233  11.239   4.591  0.00  0.00    -0.572 OA
ATOM     74  O6  SGN d 302      25.207  13.002   5.844  0.00  0.00    -0.254 OA
ATOM     75  O5  SGN d 302      24.843  14.215   8.485  0.00  0.00    -0.349 OA
ATOM     76  C4  SGN d 302      24.645  16.415   7.361  0.00  0.00     0.095 C 
ATOM     77  S2  SGN d 302      26.174  12.673   4.652  0.00  0.00     0.251 S 
ATOM     78  C1  SGN d 302      24.168  14.694   9.723  0.00  0.00     0.150 C 
ATOM     79  C2  SGN d 302      24.262  16.221   9.822  0.00  0.00     0.081 C 
ATOM     80  O1S SGN d 302      23.304  16.794  13.497  0.00  0.00    -0.296 OA
ATOM     81  C3  SGN d 302      23.731  16.910   8.544  0.00  0.00     0.083 C 
ATOM     82  O3S SGN d 302      25.565  17.120  12.715  0.00  0.00    -0.296 OA
ATOM     83  H   SGN d 302      24.001  14.352  12.490  0.00  0.00     0.231 HD
ATOM     84  H   SGN d 302      23.417  14.696   7.046  0.00  0.00     0.090 H 
ATOM     85  H   SGN d 302      23.519  18.768   7.920  0.00  0.00     0.210 HD
ATOM     86  H   SGN d 302      26.335  14.616   6.274  0.00  0.00     0.080 H 
ATOM     87  H   SGN d 302      24.952  14.867   5.179  0.00  0.00     0.080 H 
ATOM     88  H   SGN d 302      23.374  17.592  10.991  0.00  0.00     0.140 HD
ATOM     89  H   SGN d 302      25.651  16.694   7.596  0.00  0.00     0.091 H 
ATOM     90  H   SGN d 302      24.708  14.215  10.514  0.00  0.00     0.131 H 
ATOM     91  H   SGN d 302      25.275  16.561   9.882  0.00  0.00     0.076 H 
ATOM     92  H   SGN d 302      22.487  16.282  13.399  0.00  0.00     0.231 HD
ATOM     93  H   SGN d 302      22.706  16.675   8.344  0.00  0.00     0.089 H 
ATOM     94  H   SGN d 302      26.228  16.799  12.083  0.00  0.00     0.231 HD
ATOM     95  O5  IDS d 303      20.235  12.941  10.293  0.00  0.00    -0.340 OA
ATOM     96  O2S IDS d 303      19.410  14.237  14.414  0.00  0.00    -0.572 OA
ATOM     97  O4  IDS d 303      22.805  14.280   9.909  0.00  0.00    -0.348 OA
ATOM     98  O1S IDS d 303      20.051  16.604  13.871  0.00  0.00    -0.572 OA
ATOM     99  C4  IDS d 303      22.703  12.925  10.350  0.00  0.00     0.103 C 
ATOM    100  S   IDS d 303      20.384  15.230  14.010  0.00  0.00     0.252 S 
ATOM    101  O2  IDS d 303      20.960  14.747  12.567  0.00  0.00    -0.244 OA
ATOM    102  O3  IDS d 303      22.657  11.312  12.109  0.00  0.00    -0.390 OA
ATOM    103  O61 IDS d 303      20.695  13.269   7.557  0.00  0.00    -0.646 OA
ATOM    104  C2  IDS d 303      21.252  13.277  12.572  0.00  0.00     0.134 C 
ATOM    105  C1  IDS d 303      20.088  12.692  11.757  0.00  0.00     0.161 C 
ATOM    106  O3S IDS d 303      21.496  15.181  15.067  0.00  0.00    -0.572 OA
ATOM    107  C3  IDS d 303      22.638  12.737  11.910  0.00  0.00     0.094 C 
ATOM    108  C5  IDS d 303      21.447  12.333   9.696  0.00  0.00     0.152 C 
ATOM    109  O62 IDS d 303      22.600  12.146   7.478  0.00  0.00    -0.646 OA
ATOM    110  C6  IDS d 303      21.547  12.609   8.157  0.00  0.00     0.206 C 
ATOM    111  H   IDS d 303      23.600  12.421  10.058  0.00  0.00     0.092 H 
ATOM    112  H   IDS d 303      23.470  10.944  11.728  0.00  0.00     0.210 HD
ATOM    113  H   IDS d 303      21.362  12.984  13.596  0.00  0.00     0.097 H 
ATOM    114  H   IDS d 303      19.187  13.208  12.017  0.00  0.00     0.133 H 
ATOM    115  H   IDS d 303      23.442  13.280  12.361  0.00  0.00     0.091 H 
ATOM    116  H   IDS d 303      21.377  11.279   9.862  0.00  0.00     0.104 H 
ATOM    117  C1  UAP d 301      23.050  17.111   5.464  0.00  0.00     0.167 C 
ATOM    118  C5  UAP d 301      21.418  18.755   4.920  0.00  0.00     0.147 C 
ATOM    119  O61 UAP d 301      19.630  20.366   4.849  0.00  0.00    -0.642 OA
ATOM    120  C2  UAP d 301      23.261  16.864   3.901  0.00  0.00     0.135 C 
ATOM    121  O62 UAP d 301      21.054  20.578   6.581  0.00  0.00    -0.642 OA
ATOM    122  O3  UAP d 301      21.120  15.664   3.518  0.00  0.00    -0.389 OA
ATOM    123  O5  UAP d 301      22.499  18.432   5.686  0.00  0.00    -0.311 OA
ATOM    124  C6  UAP d 301      20.634  19.945   5.436  0.00  0.00     0.233 C 
ATOM    125  O2  UAP d 301      24.132  17.929   3.266  0.00  0.00    -0.244 OA
ATOM    126  C3  UAP d 301      21.825  16.900   3.228  0.00  0.00     0.086 C 
ATOM    127  O2S UAP d 301      26.112  16.766   4.147  0.00  0.00    -0.572 OA
ATOM    128  C4  UAP d 301      21.025  18.111   3.784  0.00  0.00    -0.034 C 
ATOM    129  O3S UAP d 301      25.488  16.223   1.841  0.00  0.00    -0.572 OA
ATOM    130  O1S UAP d 301      26.363  18.452   2.255  0.00  0.00    -0.572 OA
ATOM    131  S   UAP d 301      25.614  17.369   2.893  0.00  0.00     0.252 S 
ATOM    132  H   UAP d 301      22.376  16.390   5.878  0.00  0.00     0.134 H 
ATOM    133  H   UAP d 301      23.754  15.926   3.758  0.00  0.00     0.097 H 
ATOM    134  H   UAP d 301      21.626  14.913   3.169  0.00  0.00     0.210 HD
ATOM    135  H   UAP d 301      21.928  17.002   2.168  0.00  0.00     0.093 H 
ATOM    136  H   UAP d 301      20.181  18.434   3.285  0.00  0.00     0.085 H 
ATOM    137  C5  IDS d 305      16.607   7.071  15.249  0.00  0.00     0.152 C 
ATOM    138  O2  IDS d 305      17.357   5.015  12.330  0.00  0.00    -0.244 OA
ATOM    139  C6  IDS d 305      17.294   8.308  15.789  0.00  0.00     0.206 C 
ATOM    140  O61 IDS d 305      18.507   8.306  16.030  0.00  0.00    -0.646 OA
ATOM    141  O2S IDS d 305      17.899   2.631  12.600  0.00  0.00    -0.572 OA
ATOM    142  O62 IDS d 305      16.553   9.402  16.021  0.00  0.00    -0.646 OA
ATOM    143  O5  IDS d 305      17.596   5.987  15.102  0.00  0.00    -0.340 OA
ATOM    144  C3  IDS d 305      15.261   6.053  13.292  0.00  0.00     0.094 C 
ATOM    145  O4  IDS d 305      16.961   7.959  13.002  0.00  0.00    -0.348 OA
ATOM    146  O1S IDS d 305      18.694   3.902  10.613  0.00  0.00    -0.572 OA
ATOM    147  C2  IDS d 305      16.277   4.834  13.293  0.00  0.00     0.134 C 
ATOM    148  C1  IDS d 305      16.954   4.718  14.704  0.00  0.00     0.161 C 
ATOM    149  C4  IDS d 305      15.937   7.393  13.865  0.00  0.00     0.103 C 
ATOM    150  O3  IDS d 305      14.229   5.694  14.190  0.00  0.00    -0.390 OA
ATOM    151  S   IDS d 305      17.653   3.632  11.572  0.00  0.00     0.252 S 
ATOM    152  O3S IDS d 305      16.369   3.231  10.813  0.00  0.00    -0.572 OA
ATOM    153  H   IDS d 305      15.845   6.757  15.931  0.00  0.00     0.104 H 
ATOM    154  H   IDS d 305      14.928   6.243  12.293  0.00  0.00     0.091 H 
ATOM    155  H   IDS d 305      15.710   3.961  13.040  0.00  0.00     0.097 H 
ATOM    156  H   IDS d 305      17.730   3.986  14.616  0.00  0.00     0.133 H 
ATOM    157  H   IDS d 305      15.150   8.113  13.942  0.00  0.00     0.092 H 
ATOM    158  H   IDS d 305      14.607   5.540  15.070  0.00  0.00     0.210 HD
ENDROOT
TORSDOF 49
ENDMDL
MODEL 21
REMARK VINA RESULT:      -7.4      6.269      8.671
REMARK  0 active torsions:
REMARK  status: ('A' for Active; 'I' for Inactive)
REMARK       I    between atoms: N_1  and  C2_65 
REMARK       I    between atoms: N_1  and  S1_100 
REMARK       I    between atoms: O2S_4  and  S1_36 
REMARK       I    between atoms: O2S_5  and  S1_100 
REMARK       I    between atoms: C5_7  and  C6_64 
REMARK       I    between atoms: O3_11  and  C3_17 
REMARK       I    between atoms: C1_12  and  O4_28 
REMARK       I    between atoms: C5_13  and  C6_35 
REMARK       I    between atoms: C5_14  and  C6_52 
REMARK       I    between atoms: O2S_16  and  S1_75 
REMARK       I    between atoms: C2_18  and  O2_63 
REMARK       I    between atoms: C5_19  and  C6_22 
REMARK       I    between atoms: O2_20  and  C2_53 
REMARK       I    between atoms: O2_20  and  S_86 
REMARK       I    between atoms: O4_21  and  C1_67 
REMARK       I    between atoms: O4_21  and  C4_48 
REMARK       I    between atoms: O3_26  and  C3_72 
REMARK       I    between atoms: O4_28  and  C4_71 
REMARK       I    between atoms: O3_30  and  C3_94 
REMARK       I    between atoms: N_33  and  C2_82 
REMARK       I    between atoms: N_33  and  S1_75 
REMARK       I    between atoms: C6_35  and  O6_59 
REMARK       I    between atoms: S1_36  and  N_37 
REMARK       I    between atoms: S1_36  and  O1S_89 
REMARK       I    between atoms: S1_36  and  O3S_97 
REMARK       I    between atoms: N_37  and  C2_78 
REMARK       I    between atoms: C3_38  and  O3_81 
REMARK       I    between atoms: O4_39  and  C1_85 
REMARK       I    between atoms: O4_39  and  C4_69 
REMARK       I    between atoms: O3_40  and  C3_47 
REMARK       I    between atoms: O4_41  and  C1_76 
REMARK       I    between atoms: O4_41  and  C4_43 
REMARK       I    between atoms: S2_44  and  O6_80 
REMARK       I    between atoms: S_46  and  O2_57 
REMARK       I    between atoms: O3S_49  and  S1_75 
REMARK       I    between atoms: C1_54  and  O4_96 
REMARK       I    between atoms: O2_57  and  C2_66 
REMARK       I    between atoms: O6_58  and  C6_64 
REMARK       I    between atoms: O6_58  and  S2_101 
REMARK       I    between atoms: O6_59  and  S2_73 
REMARK       I    between atoms: O3_61  and  C3_77 
REMARK       I    between atoms: O2_63  and  S_104 
REMARK       I    between atoms: S1_75  and  O1S_92 
REMARK       I    between atoms: O6_80  and  C6_88 
REMARK       I    between atoms: C5_83  and  C6_88 
REMARK       I    between atoms: O3S_84  and  S1_100 
REMARK       I    between atoms: C5_87  and  C6_103 
REMARK       I    between atoms: O1S_91  and  S1_100 
REMARK       I    between atoms: O4_96  and  C4_99 
ROOT
ATOM      1  N   SGN d 304      22.819  13.990  11.227  0.00  0.00    -0.210 NA
ATOM      2  O2S SGN d 304      20.378  13.783  11.672  0.00  0.00    -0.296 OA
ATOM      3  C5  SGN d 304      22.823  10.692   8.659  0.00  0.00     0.091 C 
ATOM      4  O5S SGN d 304      21.972   6.922   7.341  0.00  0.00    -0.572 OA
ATOM      5  O3  SGN d 304      24.774  11.852  11.649  0.00  0.00    -0.391 OA
ATOM      6  C3  SGN d 304      24.051  11.980  10.439  0.00  0.00     0.083 C 
ATOM      7  O4  SGN d 304      24.826   9.762   9.765  0.00  0.00    -0.348 OA
ATOM      8  O5  SGN d 304      21.678  11.499   8.857  0.00  0.00    -0.349 OA
ATOM      9  C4  SGN d 304      23.635  10.578   9.970  0.00  0.00     0.095 C 
ATOM     10  O4S SGN d 304      20.527   7.779   5.472  0.00  0.00    -0.572 OA
ATOM     11  O6S SGN d 304      19.716   7.578   7.713  0.00  0.00    -0.572 OA
ATOM     12  O6  SGN d 304      21.496   9.269   7.073  0.00  0.00    -0.254 OA
ATOM     13  C6  SGN d 304      22.287   9.279   8.253  0.00  0.00     0.067 C 
ATOM     14  C2  SGN d 304      22.687  12.682  10.688  0.00  0.00     0.081 C 
ATOM     15  O3S SGN d 304      21.898  13.196  13.469  0.00  0.00    -0.296 OA
ATOM     16  C1  SGN d 304      21.959  12.854   9.354  0.00  0.00     0.150 C 
ATOM     17  O1S SGN d 304      21.803  15.529  12.875  0.00  0.00    -0.296 OA
ATOM     18  S1  SGN d 304      21.627  14.208  12.344  0.00  0.00     0.156 S 
ATOM     19  S2  SGN d 304      20.955   7.816   6.844  0.00  0.00     0.251 S 
ATOM     20  H   SGN d 304      22.725  14.681  10.483  0.00  0.00     0.140 HD
ATOM     21  H   SGN d 304      20.462  12.860  11.387  0.00  0.00     0.231 HD
ATOM     22  H   SGN d 304      23.465  11.109   7.912  0.00  0.00     0.090 H 
ATOM     23  H   SGN d 304      25.045  12.730  11.959  0.00  0.00     0.210 HD
ATOM     24  H   SGN d 304      24.671  12.515   9.750  0.00  0.00     0.089 H 
ATOM     25  H   SGN d 304      23.022  10.113  10.714  0.00  0.00     0.091 H 
ATOM     26  H   SGN d 304      21.692   8.903   9.059  0.00  0.00     0.080 H 
ATOM     27  H   SGN d 304      23.146   8.674   8.051  0.00  0.00     0.080 H 
ATOM     28  H   SGN d 304      22.160  12.062  11.383  0.00  0.00     0.076 H 
ATOM     29  H   SGN d 304      21.784  12.295  13.129  0.00  0.00     0.231 HD
ATOM     30  H   SGN d 304      21.015  13.359   9.385  0.00  0.00     0.131 H 
ATOM     31  H   SGN d 304      21.635  16.182  12.178  0.00  0.00     0.231 HD
ATOM     32  O6S SGN d 306      28.430  15.793   4.467  0.00  0.00    -0.572 OA
ATOM     33  O5S SGN d 306      28.792  18.155   4.887  0.00  0.00    -0.572 OA
ATOM     34  O2S SGN d 306      21.120  15.265   0.895  0.00  0.00    -0.296 OA
ATOM     35  C1  SGN d 306      23.457  17.433   1.928  0.00  0.00     0.038 C 
ATOM     36  N   SGN d 306      21.068  17.438   2.006  0.00  0.00    -0.212 NA
ATOM     37  O3  SGN d 306      21.001  17.296   4.726  0.00  0.00    -0.391 OA
ATOM     38  S2  SGN d 306      28.413  17.204   3.843  0.00  0.00     0.251 S 
ATOM     39  C3  SGN d 306      22.210  17.680   4.058  0.00  0.00     0.081 C 
ATOM     40  O3S SGN d 306      19.715  15.430   2.881  0.00  0.00    -0.296 OA
ATOM     41  O4S SGN d 306      29.093  17.138   2.573  0.00  0.00    -0.572 OA
ATOM     42  O5  SGN d 306      24.645  17.028   2.621  0.00  0.00    -0.379 OA
ATOM     43  S1  SGN d 306      20.146  16.161   1.569  0.00  0.00     0.156 S 
ATOM     44  O6  SGN d 306      26.978  17.602   3.495  0.00  0.00    -0.254 OA
ATOM     45  C2  SGN d 306      22.225  17.041   2.712  0.00  0.00     0.054 C 
ATOM     46  C5  SGN d 306      24.697  17.611   3.942  0.00  0.00     0.087 C 
ATOM     47  C6  SGN d 306      26.032  17.141   4.507  0.00  0.00     0.067 C 
ATOM     48  O1S SGN d 306      18.983  16.737   0.876  0.00  0.00    -0.296 OA
ATOM     49  O4  SGN d 306      23.457  17.775   6.180  0.00  0.00    -0.348 OA
ATOM     50  C4  SGN d 306      23.459  17.188   4.802  0.00  0.00     0.095 C 
ATOM     51  H   SGN d 306      21.805  14.999   1.528  0.00  0.00     0.231 HD
ATOM     52  H   SGN d 306      23.469  18.496   1.801  0.00  0.00     0.077 H 
ATOM     53  H   SGN d 306      23.430  16.947   0.975  0.00  0.00     0.077 H 
ATOM     54  H   SGN d 306      21.352  17.941   1.166  0.00  0.00     0.140 HD
ATOM     55  H   SGN d 306      20.238  17.625   4.226  0.00  0.00     0.210 HD
ATOM     56  H   SGN d 306      22.230  18.749   4.008  0.00  0.00     0.089 H 
ATOM     57  H   SGN d 306      20.498  15.060   3.318  0.00  0.00     0.231 HD
ATOM     58  H   SGN d 306      22.241  15.979   2.838  0.00  0.00     0.072 H 
ATOM     59  H   SGN d 306      24.643  18.680   3.934  0.00  0.00     0.090 H 
ATOM     60  H   SGN d 306      26.231  17.592   5.457  0.00  0.00     0.080 H 
ATOM     61  H   SGN d 306      26.075  16.087   4.685  0.00  0.00     0.080 H 
ATOM     62  H   SGN d 306      19.278  17.184   0.066  0.00  0.00     0.231 HD
ATOM     63  H   SGN d 306      23.485  16.126   4.925  0.00  0.00     0.091 H 
ATOM     64  O6S SGN d 302      29.457   5.907  18.535  0.00  0.00    -0.572 OA
ATOM     65  O2S SGN d 302      28.962   5.328  10.254  0.00  0.00    -0.296 OA
ATOM     66  O5S SGN d 302      27.152   5.782  19.286  0.00  0.00    -0.572 OA
ATOM     67  C5  SGN d 302      26.964   4.970  15.215  0.00  0.00     0.091 C 
ATOM     68  O4  SGN d 302      26.152   2.810  15.975  0.00  0.00    -0.348 OA
ATOM     69  O3  SGN d 302      26.358   1.873  13.149  0.00  0.00    -0.391 OA
ATOM     70  C6  SGN d 302      27.472   5.209  16.649  0.00  0.00     0.067 C 
ATOM     71  S1  SGN d 302      28.308   4.085   9.941  0.00  0.00     0.156 S 
ATOM     72  N   SGN d 302      27.104   3.820  11.107  0.00  0.00    -0.210 NA
ATOM     73  O4S SGN d 302      28.337   7.982  18.766  0.00  0.00    -0.572 OA
ATOM     74  O6  SGN d 302      27.513   6.562  17.023  0.00  0.00    -0.254 OA
ATOM     75  O5  SGN d 302      27.839   5.677  14.250  0.00  0.00    -0.349 OA
ATOM     76  C4  SGN d 302      26.957   3.465  14.936  0.00  0.00     0.095 C 
ATOM     77  S2  SGN d 302      28.084   6.597  18.485  0.00  0.00     0.251 S 
ATOM     78  C1  SGN d 302      27.534   5.444  12.812  0.00  0.00     0.150 C 
ATOM     79  C2  SGN d 302      27.421   3.942  12.528  0.00  0.00     0.081 C 
ATOM     80  O1S SGN d 302      27.621   3.885   8.694  0.00  0.00    -0.296 OA
ATOM     81  C3  SGN d 302      26.409   3.257  13.476  0.00  0.00     0.083 C 
ATOM     82  O3S SGN d 302      29.432   3.069  10.065  0.00  0.00    -0.296 OA
ATOM     83  H   SGN d 302      28.319   6.053  10.202  0.00  0.00     0.231 HD
ATOM     84  H   SGN d 302      25.970   5.351  15.108  0.00  0.00     0.090 H 
ATOM     85  H   SGN d 302      25.727   1.426  13.734  0.00  0.00     0.210 HD
ATOM     86  H   SGN d 302      28.461   4.808  16.727  0.00  0.00     0.080 H 
ATOM     87  H   SGN d 302      26.778   4.728  17.307  0.00  0.00     0.080 H 
ATOM     88  H   SGN d 302      26.759   2.872  10.963  0.00  0.00     0.140 HD
ATOM     89  H   SGN d 302      27.931   3.021  14.978  0.00  0.00     0.091 H 
ATOM     90  H   SGN d 302      28.365   5.879  12.297  0.00  0.00     0.131 H 
ATOM     91  H   SGN d 302      28.335   3.423  12.729  0.00  0.00     0.076 H 
ATOM     92  H   SGN d 302      26.904   4.532   8.613  0.00  0.00     0.231 HD
ATOM     93  H   SGN d 302      25.423   3.663  13.388  0.00  0.00     0.089 H 
ATOM     94  H   SGN d 302      29.898   3.202  10.906  0.00  0.00     0.231 HD
ATOM     95  O5  IDS d 303      24.308   7.954  11.339  0.00  0.00    -0.340 OA
ATOM     96  O2S IDS d 303      24.666   7.204   7.021  0.00  0.00    -0.572 OA
ATOM     97  O4  IDS d 303      26.382   6.123  12.285  0.00  0.00    -0.348 OA
ATOM     98  O1S IDS d 303      24.730   4.720   7.388  0.00  0.00    -0.572 OA
ATOM     99  C4  IDS d 303      26.635   7.507  12.032  0.00  0.00     0.103 C 
ATOM    100  S   IDS d 303      25.296   6.013   7.553  0.00  0.00     0.252 S 
ATOM    101  O2  IDS d 303      25.442   6.249   9.156  0.00  0.00    -0.244 OA
ATOM    102  O3  IDS d 303      27.404   9.247  10.591  0.00  0.00    -0.390 OA
ATOM    103  O61 IDS d 303      23.808   7.306  14.010  0.00  0.00    -0.646 OA
ATOM    104  C2  IDS d 303      25.941   7.632   9.449  0.00  0.00     0.134 C 
ATOM    105  C1  IDS d 303      24.680   8.353   9.951  0.00  0.00     0.161 C 
ATOM    106  O3S IDS d 303      26.682   5.943   6.899  0.00  0.00    -0.572 OA
ATOM    107  C3  IDS d 303      27.106   7.840  10.569  0.00  0.00     0.094 C 
ATOM    108  C5  IDS d 303      25.341   8.266  12.354  0.00  0.00     0.152 C 
ATOM    109  O62 IDS d 303      25.734   8.036  14.820  0.00  0.00    -0.646 OA
ATOM    110  C6  IDS d 303      24.897   7.842  13.796  0.00  0.00     0.206 C 
ATOM    111  H   IDS d 303      27.457   7.804  12.649  0.00  0.00     0.092 H 
ATOM    112  H   IDS d 303      28.097   9.420  11.247  0.00  0.00     0.210 HD
ATOM    113  H   IDS d 303      26.418   7.987   8.559  0.00  0.00     0.097 H 
ATOM    114  H   IDS d 303      23.843   8.043   9.360  0.00  0.00     0.133 H 
ATOM    115  H   IDS d 303      27.919   7.196  10.308  0.00  0.00     0.091 H 
ATOM    116  H   IDS d 303      25.490   9.326  12.328  0.00  0.00     0.104 H 
ATOM    117  C1  UAP d 301      24.751   2.920  16.145  0.00  0.00     0.167 C 
ATOM    118  C5  UAP d 301      22.801   1.573  15.931  0.00  0.00     0.147 C 
ATOM    119  O61 UAP d 301      20.861   0.329  15.229  0.00  0.00    -0.642 OA
ATOM    120  C2  UAP d 301      24.482   2.984  17.716  0.00  0.00     0.135 C 
ATOM    121  O62 UAP d 301      22.717   0.004  13.995  0.00  0.00    -0.642 OA
ATOM    122  O3  UAP d 301      22.541   4.530  17.604  0.00  0.00    -0.389 OA
ATOM    123  O5  UAP d 301      24.106   1.751  15.580  0.00  0.00    -0.311 OA
ATOM    124  C6  UAP d 301      22.053   0.603  15.038  0.00  0.00     0.233 C 
ATOM    125  O2  UAP d 301      24.930   1.722  18.426  0.00  0.00    -0.244 OA
ATOM    126  C3  UAP d 301      22.919   3.162  17.913  0.00  0.00     0.086 C 
ATOM    127  O2S UAP d 301      27.241   2.562  18.358  0.00  0.00    -0.572 OA
ATOM    128  C4  UAP d 301      22.165   2.177  16.975  0.00  0.00    -0.034 C 
ATOM    129  O3S UAP d 301      25.998   3.008  20.422  0.00  0.00    -0.572 OA
ATOM    130  O1S UAP d 301      26.610   0.699  19.976  0.00  0.00    -0.572 OA
ATOM    131  S   UAP d 301      26.280   1.955  19.305  0.00  0.00     0.252 S 
ATOM    132  H   UAP d 301      24.363   3.788  15.654  0.00  0.00     0.134 H 
ATOM    133  H   UAP d 301      25.040   3.796  18.135  0.00  0.00     0.097 H 
ATOM    134  H   UAP d 301      23.016   5.138  18.193  0.00  0.00     0.210 HD
ATOM    135  H   UAP d 301      22.659   2.950  18.929  0.00  0.00     0.093 H 
ATOM    136  H   UAP d 301      21.167   1.978  17.145  0.00  0.00     0.085 H 
ATOM    137  C5  IDS d 305      23.406  14.816   6.413  0.00  0.00     0.152 C 
ATOM    138  O2  IDS d 305      23.480  16.429   9.684  0.00  0.00    -0.244 OA
ATOM    139  C6  IDS d 305      24.033  13.524   5.934  0.00  0.00     0.206 C 
ATOM    140  O61 IDS d 305      25.245  13.317   6.073  0.00  0.00    -0.646 OA
ATOM    141  O2S IDS d 305      24.437  18.681   9.933  0.00  0.00    -0.572 OA
ATOM    142  O62 IDS d 305      23.249  12.615   5.336  0.00  0.00    -0.646 OA
ATOM    143  O5  IDS d 305      24.448  15.676   7.004  0.00  0.00    -0.340 OA
ATOM    144  C3  IDS d 305      21.673  15.895   7.997  0.00  0.00     0.094 C 
ATOM    145  O4  IDS d 305      22.879  13.684   8.511  0.00  0.00    -0.348 OA
ATOM    146  O1S IDS d 305      24.347  17.114  11.865  0.00  0.00    -0.572 OA
ATOM    147  C2  IDS d 305      22.809  16.895   8.476  0.00  0.00     0.134 C 
ATOM    148  C1  IDS d 305      23.913  17.004   7.367  0.00  0.00     0.161 C 
ATOM    149  C4  IDS d 305      22.285  14.507   7.469  0.00  0.00     0.103 C 
ATOM    150  O3  IDS d 305      21.053  16.520   6.891  0.00  0.00    -0.390 OA
ATOM    151  S   IDS d 305      23.724  17.658  10.685  0.00  0.00     0.252 S 
ATOM    152  O3S IDS d 305      22.341  18.228  11.071  0.00  0.00    -0.572 OA
ATOM    153  H   IDS d 305      22.961  15.327   5.585  0.00  0.00     0.104 H 
ATOM    154  H   IDS d 305      21.011  15.685   8.811  0.00  0.00     0.091 H 
ATOM    155  H   IDS d 305      22.330  17.834   8.668  0.00  0.00     0.097 H 
ATOM    156  H   IDS d 305      24.722  17.565   7.788  0.00  0.00     0.133 H 
ATOM    157  H   IDS d 305      21.465  13.958   7.056  0.00  0.00     0.092 H 
ATOM    158  H   IDS d 305      21.712  16.677   6.197  0.00  0.00     0.210 HD
ENDROOT
TORSDOF 49
ENDMDL
MODEL 22
REMARK VINA RESULT:      -7.4      2.548      3.514
REMARK  0 active torsions:
REMARK  status: ('A' for Active; 'I' for Inactive)
REMARK       I    between atoms: N_1  and  C2_65 
REMARK       I    between atoms: N_1  and  S1_100 
REMARK       I    between atoms: O2S_4  and  S1_36 
REMARK       I    between atoms: O2S_5  and  S1_100 
REMARK       I    between atoms: C5_7  and  C6_64 
REMARK       I    between atoms: O3_11  and  C3_17 
REMARK       I    between atoms: C1_12  and  O4_28 
REMARK       I    between atoms: C5_13  and  C6_35 
REMARK       I    between atoms: C5_14  and  C6_52 
REMARK       I    between atoms: O2S_16  and  S1_75 
REMARK       I    between atoms: C2_18  and  O2_63 
REMARK       I    between atoms: C5_19  and  C6_22 
REMARK       I    between atoms: O2_20  and  C2_53 
REMARK       I    between atoms: O2_20  and  S_86 
REMARK       I    between atoms: O4_21  and  C1_67 
REMARK       I    between atoms: O4_21  and  C4_48 
REMARK       I    between atoms: O3_26  and  C3_72 
REMARK       I    between atoms: O4_28  and  C4_71 
REMARK       I    between atoms: O3_30  and  C3_94 
REMARK       I    between atoms: N_33  and  C2_82 
REMARK       I    between atoms: N_33  and  S1_75 
REMARK       I    between atoms: C6_35  and  O6_59 
REMARK       I    between atoms: S1_36  and  N_37 
REMARK       I    between atoms: S1_36  and  O1S_89 
REMARK       I    between atoms: S1_36  and  O3S_97 
REMARK       I    between atoms: N_37  and  C2_78 
REMARK       I    between atoms: C3_38  and  O3_81 
REMARK       I    between atoms: O4_39  and  C1_85 
REMARK       I    between atoms: O4_39  and  C4_69 
REMARK       I    between atoms: O3_40  and  C3_47 
REMARK       I    between atoms: O4_41  and  C1_76 
REMARK       I    between atoms: O4_41  and  C4_43 
REMARK       I    between atoms: S2_44  and  O6_80 
REMARK       I    between atoms: S_46  and  O2_57 
REMARK       I    between atoms: O3S_49  and  S1_75 
REMARK       I    between atoms: C1_54  and  O4_96 
REMARK       I    between atoms: O2_57  and  C2_66 
REMARK       I    between atoms: O6_58  and  C6_64 
REMARK       I    between atoms: O6_58  and  S2_101 
REMARK       I    between atoms: O6_59  and  S2_73 
REMARK       I    between atoms: O3_61  and  C3_77 
REMARK       I    between atoms: O2_63  and  S_104 
REMARK       I    between atoms: S1_75  and  O1S_92 
REMARK       I    between atoms: O6_80  and  C6_88 
REMARK       I    between atoms: C5_83  and  C6_88 
REMARK       I    between atoms: O3S_84  and  S1_100 
REMARK       I    between atoms: C5_87  and  C6_103 
REMARK       I    between atoms: O1S_91  and  S1_100 
REMARK       I    between atoms: O4_96  and  C4_99 
ROOT
ATOM      1  N   SGN d 304      22.060  13.919  12.938  0.00  0.00    -0.210 NA
ATOM      2  O2S SGN d 304      20.016  15.316  13.202  0.00  0.00    -0.296 OA
ATOM      3  C5  SGN d 304      20.260  11.496  10.047  0.00  0.00     0.091 C 
ATOM      4  O5S SGN d 304      17.362   9.216   8.292  0.00  0.00    -0.572 OA
ATOM      5  O3  SGN d 304      22.140  11.010  13.260  0.00  0.00    -0.391 OA
ATOM      6  C3  SGN d 304      21.810  11.620  12.026  0.00  0.00     0.083 C 
ATOM      7  O4  SGN d 304      21.066   9.453  11.176  0.00  0.00    -0.348 OA
ATOM      8  O5  SGN d 304      19.879  12.843  10.255  0.00  0.00    -0.349 OA
ATOM      9  C4  SGN d 304      20.654  10.835  11.388  0.00  0.00     0.095 C 
ATOM     10  O4S SGN d 304      17.024  10.874   6.434  0.00  0.00    -0.572 OA
ATOM     11  O6S SGN d 304      16.018  11.155   8.585  0.00  0.00    -0.572 OA
ATOM     12  O6  SGN d 304      18.526  11.325   8.240  0.00  0.00    -0.254 OA
ATOM     13  C6  SGN d 304      18.999  10.778   9.463  0.00  0.00     0.067 C 
ATOM     14  C2  SGN d 304      21.188  13.025  12.259  0.00  0.00     0.081 C 
ATOM     15  O3S SGN d 304      20.593  13.819  15.022  0.00  0.00    -0.296 OA
ATOM     16  C1  SGN d 304      20.898  13.678  10.907  0.00  0.00     0.150 C 
ATOM     17  O1S SGN d 304      22.075  15.685  14.670  0.00  0.00    -0.296 OA
ATOM     18  S1  SGN d 304      21.161  14.810  13.994  0.00  0.00     0.156 S 
ATOM     19  S2  SGN d 304      17.214  10.573   7.826  0.00  0.00     0.251 S 
ATOM     20  H   SGN d 304      22.515  14.536  12.266  0.00  0.00     0.140 HD
ATOM     21  H   SGN d 304      19.525  14.568  12.829  0.00  0.00     0.231 HD
ATOM     22  H   SGN d 304      21.101  11.430   9.389  0.00  0.00     0.090 H 
ATOM     23  H   SGN d 304      22.869  11.494  13.676  0.00  0.00     0.210 HD
ATOM     24  H   SGN d 304      22.703  11.655  11.437  0.00  0.00     0.089 H 
ATOM     25  H   SGN d 304      19.805  10.847  12.038  0.00  0.00     0.091 H 
ATOM     26  H   SGN d 304      18.212  10.843  10.185  0.00  0.00     0.080 H 
ATOM     27  H   SGN d 304      19.291   9.770   9.254  0.00  0.00     0.080 H 
ATOM     28  H   SGN d 304      20.312  12.865  12.851  0.00  0.00     0.076 H 
ATOM     29  H   SGN d 304      19.971  13.217  14.583  0.00  0.00     0.231 HD
ATOM     30  H   SGN d 304      20.497  14.670  10.929  0.00  0.00     0.131 H 
ATOM     31  H   SGN d 304      22.444  16.319  14.035  0.00  0.00     0.231 HD
ATOM     32  O6S SGN d 306      28.268  11.942   6.775  0.00  0.00    -0.572 OA
ATOM     33  O5S SGN d 306      30.000  13.496   7.461  0.00  0.00    -0.572 OA
ATOM     34  O2S SGN d 306      22.774  16.387   2.708  0.00  0.00    -0.296 OA
ATOM     35  C1  SGN d 306      25.816  16.497   4.108  0.00  0.00     0.038 C 
ATOM     36  N   SGN d 306      23.990  18.036   4.033  0.00  0.00    -0.212 NA
ATOM     37  O3  SGN d 306      23.533  17.866   6.714  0.00  0.00    -0.391 OA
ATOM     38  S2  SGN d 306      29.225  13.055   6.301  0.00  0.00     0.251 S 
ATOM     39  C3  SGN d 306      24.777  17.407   6.168  0.00  0.00     0.081 C 
ATOM     40  O3S SGN d 306      21.578  17.341   4.606  0.00  0.00    -0.296 OA
ATOM     41  O4S SGN d 306      29.849  12.615   5.077  0.00  0.00    -0.572 OA
ATOM     42  O5  SGN d 306      26.384  15.395   4.829  0.00  0.00    -0.379 OA
ATOM     43  S1  SGN d 306      22.524  17.673   3.408  0.00  0.00     0.156 S 
ATOM     44  O6  SGN d 306      28.426  14.297   5.906  0.00  0.00    -0.254 OA
ATOM     45  C2  SGN d 306      24.537  16.961   4.767  0.00  0.00     0.054 C 
ATOM     46  C5  SGN d 306      26.642  15.756   6.204  0.00  0.00     0.087 C 
ATOM     47  C6  SGN d 306      27.295  14.515   6.802  0.00  0.00     0.067 C 
ATOM     48  O1S SGN d 306      22.085  18.888   2.705  0.00  0.00    -0.296 OA
ATOM     49  O4  SGN d 306      25.542  16.593   8.364  0.00  0.00    -0.348 OA
ATOM     50  C4  SGN d 306      25.329  16.198   6.935  0.00  0.00     0.095 C 
ATOM     51  H   SGN d 306      23.054  15.717   3.352  0.00  0.00     0.231 HD
ATOM     52  H   SGN d 306      26.517  17.306   4.093  0.00  0.00     0.077 H 
ATOM     53  H   SGN d 306      25.596  16.180   3.110  0.00  0.00     0.077 H 
ATOM     54  H   SGN d 306      24.624  18.270   3.270  0.00  0.00     0.140 HD
ATOM     55  H   SGN d 306      23.219  18.628   6.204  0.00  0.00     0.210 HD
ATOM     56  H   SGN d 306      25.479  18.212   6.231  0.00  0.00     0.089 H 
ATOM     57  H   SGN d 306      21.889  16.537   5.051  0.00  0.00     0.231 HD
ATOM     58  H   SGN d 306      23.858  16.134   4.783  0.00  0.00     0.072 H 
ATOM     59  H   SGN d 306      27.283  16.608   6.305  0.00  0.00     0.090 H 
ATOM     60  H   SGN d 306      27.623  14.695   7.804  0.00  0.00     0.080 H 
ATOM     61  H   SGN d 306      26.635  13.676   6.872  0.00  0.00     0.080 H 
ATOM     62  H   SGN d 306      22.688  19.071   1.967  0.00  0.00     0.231 HD
ATOM     63  H   SGN d 306      24.658  15.365   6.948  0.00  0.00     0.091 H 
ATOM     64  O6S SGN d 302      21.124   3.185  19.775  0.00  0.00    -0.572 OA
ATOM     65  O2S SGN d 302      21.337   3.382  11.463  0.00  0.00    -0.296 OA
ATOM     66  O5S SGN d 302      19.201   4.546  20.360  0.00  0.00    -0.572 OA
ATOM     67  C5  SGN d 302      19.012   4.204  16.222  0.00  0.00     0.091 C 
ATOM     68  O4  SGN d 302      16.929   3.048  16.701  0.00  0.00    -0.348 OA
ATOM     69  O3  SGN d 302      16.816   2.309  13.811  0.00  0.00    -0.391 OA
ATOM     70  C6  SGN d 302      19.385   4.005  17.703  0.00  0.00     0.067 C 
ATOM     71  S1  SGN d 302      20.083   2.866  10.982  0.00  0.00     0.156 S 
ATOM     72  N   SGN d 302      18.862   3.394  12.035  0.00  0.00    -0.210 NA
ATOM     73  O4S SGN d 302      21.566   5.483  20.148  0.00  0.00    -0.572 OA
ATOM     74  O6  SGN d 302      20.235   4.996  18.218  0.00  0.00    -0.254 OA
ATOM     75  O5  SGN d 302      20.241   4.218  15.394  0.00  0.00    -0.349 OA
ATOM     76  C4  SGN d 302      18.080   3.069  15.788  0.00  0.00     0.095 C 
ATOM     77  S2  SGN d 302      20.523   4.599  19.709  0.00  0.00     0.251 S 
ATOM     78  C1  SGN d 302      20.026   4.292  13.923  0.00  0.00     0.150 C 
ATOM     79  C2  SGN d 302      19.017   3.229  13.478  0.00  0.00     0.081 C 
ATOM     80  O1S SGN d 302      19.577   3.204   9.679  0.00  0.00    -0.296 OA
ATOM     81  C3  SGN d 302      17.699   3.321  14.282  0.00  0.00     0.083 C 
ATOM     82  O3S SGN d 302      20.279   1.361  11.071  0.00  0.00    -0.296 OA
ATOM     83  H   SGN d 302      21.315   4.352  11.446  0.00  0.00     0.231 HD
ATOM     84  H   SGN d 302      18.509   5.139  16.093  0.00  0.00     0.090 H 
ATOM     85  H   SGN d 302      15.982   2.351  14.305  0.00  0.00     0.210 HD
ATOM     86  H   SGN d 302      19.874   3.058  17.802  0.00  0.00     0.080 H 
ATOM     87  H   SGN d 302      18.474   4.059  18.261  0.00  0.00     0.080 H 
ATOM     88  H   SGN d 302      18.011   2.898  11.771  0.00  0.00     0.140 HD
ATOM     89  H   SGN d 302      18.535   2.102  15.846  0.00  0.00     0.091 H 
ATOM     90  H   SGN d 302      20.997   4.109  13.511  0.00  0.00     0.131 H 
ATOM     91  H   SGN d 302      19.359   2.235  13.681  0.00  0.00     0.076 H 
ATOM     92  H   SGN d 302      19.451   4.164   9.620  0.00  0.00     0.231 HD
ATOM     93  H   SGN d 302      17.216   4.269  14.175  0.00  0.00     0.089 H 
ATOM     94  H   SGN d 302      20.621   1.131  11.949  0.00  0.00     0.231 HD
ATOM     95  O5  IDS d 303      19.337   8.344  12.517  0.00  0.00    -0.340 OA
ATOM     96  O2S IDS d 303      19.632   7.708   8.175  0.00  0.00    -0.572 OA
ATOM     97  O4  IDS d 303      19.643   5.573  13.397  0.00  0.00    -0.348 OA
ATOM     98  O1S IDS d 303      18.056   5.755   8.285  0.00  0.00    -0.572 OA
ATOM     99  C4  IDS d 303      20.746   6.476  13.306  0.00  0.00     0.103 C 
ATOM    100  S   IDS d 303      19.292   6.372   8.620  0.00  0.00     0.252 S 
ATOM    101  O2  IDS d 303      19.369   6.396  10.245  0.00  0.00    -0.244 OA
ATOM    102  O3  IDS d 303      22.607   7.366  12.106  0.00  0.00    -0.390 OA
ATOM    103  O61 IDS d 303      18.234   8.068  15.069  0.00  0.00    -0.646 OA
ATOM    104  C2  IDS d 303      20.596   7.120  10.712  0.00  0.00     0.134 C 
ATOM    105  C1  IDS d 303      20.036   8.463  11.204  0.00  0.00     0.161 C 
ATOM    106  O3S IDS d 303      20.380   5.450   8.052  0.00  0.00    -0.572 OA
ATOM    107  C3  IDS d 303      21.486   6.485  11.919  0.00  0.00     0.094 C 
ATOM    108  C5  IDS d 303      20.206   7.878  13.622  0.00  0.00     0.152 C 
ATOM    109  O62 IDS d 303      20.073   7.354  16.071  0.00  0.00    -0.646 OA
ATOM    110  C6  IDS d 303      19.431   7.784  14.981  0.00  0.00     0.206 C 
ATOM    111  H   IDS d 303      21.490   6.151  14.003  0.00  0.00     0.092 H 
ATOM    112  H   IDS d 303      23.170   7.027  12.820  0.00  0.00     0.210 HD
ATOM    113  H   IDS d 303      21.288   7.118   9.896  0.00  0.00     0.097 H 
ATOM    114  H   IDS d 303      19.269   8.788  10.532  0.00  0.00     0.133 H 
ATOM    115  H   IDS d 303      21.726   5.479  11.645  0.00  0.00     0.091 H 
ATOM    116  H   IDS d 303      20.997   8.592  13.716  0.00  0.00     0.104 H 
ATOM    117  C1  UAP d 301      15.911   4.028  16.791  0.00  0.00     0.167 C 
ATOM    118  C5  UAP d 301      13.592   4.264  16.314  0.00  0.00     0.147 C 
ATOM    119  O61 UAP d 301      11.403   4.591  15.364  0.00  0.00    -0.642 OA
ATOM    120  C2  UAP d 301      15.565   4.189  18.340  0.00  0.00     0.135 C 
ATOM    121  O62 UAP d 301      12.753   3.194  14.224  0.00  0.00    -0.642 OA
ATOM    122  O3  UAP d 301      15.084   6.625  18.265  0.00  0.00    -0.389 OA
ATOM    123  O5  UAP d 301      14.741   3.573  16.068  0.00  0.00    -0.311 OA
ATOM    124  C6  UAP d 301      12.507   4.039  15.279  0.00  0.00     0.233 C 
ATOM    125  O2  UAP d 301      15.021   2.909  18.942  0.00  0.00    -0.244 OA
ATOM    126  C3  UAP d 301      14.465   5.325  18.454  0.00  0.00     0.086 C 
ATOM    127  O2S UAP d 301      17.325   2.065  19.109  0.00  0.00    -0.572 OA
ATOM    128  C4  UAP d 301      13.372   5.095  17.373  0.00  0.00    -0.034 C 
ATOM    129  O3S UAP d 301      16.423   3.127  21.125  0.00  0.00    -0.572 OA
ATOM    130  O1S UAP d 301      15.470   0.986  20.481  0.00  0.00    -0.572 OA
ATOM    131  S   UAP d 301      16.097   2.184  19.924  0.00  0.00     0.252 S 
ATOM    132  H   UAP d 301      16.226   4.960  16.370  0.00  0.00     0.134 H 
ATOM    133  H   UAP d 301      16.459   4.434  18.875  0.00  0.00     0.097 H 
ATOM    134  H   UAP d 301      15.764   6.761  18.943  0.00  0.00     0.210 HD
ATOM    135  H   UAP d 301      14.013   5.291  19.424  0.00  0.00     0.093 H 
ATOM    136  H   UAP d 301      12.464   5.579  17.457  0.00  0.00     0.085 H 
ATOM    137  C5  IDS d 305      23.591  14.357   8.284  0.00  0.00     0.152 C 
ATOM    138  O2  IDS d 305      24.296  15.415  11.703  0.00  0.00    -0.244 OA
ATOM    139  C6  IDS d 305      23.301  12.985   7.714  0.00  0.00     0.206 C 
ATOM    140  O61 IDS d 305      24.077  12.041   7.908  0.00  0.00    -0.646 OA
ATOM    141  O2S IDS d 305      26.431  16.510  12.246  0.00  0.00    -0.572 OA
ATOM    142  O62 IDS d 305      22.194  12.819   6.975  0.00  0.00    -0.646 OA
ATOM    143  O5  IDS d 305      24.865  14.320   9.026  0.00  0.00    -0.340 OA
ATOM    144  C3  IDS d 305      22.774  16.237   9.858  0.00  0.00     0.094 C 
ATOM    145  O4  IDS d 305      22.225  13.751  10.215  0.00  0.00    -0.348 OA
ATOM    146  O1S IDS d 305      25.141  15.296  13.994  0.00  0.00    -0.572 OA
ATOM    147  C2  IDS d 305      24.221  16.251  10.510  0.00  0.00     0.134 C 
ATOM    148  C1  IDS d 305      25.261  15.665   9.491  0.00  0.00     0.161 C 
ATOM    149  C4  IDS d 305      22.418  14.802   9.228  0.00  0.00     0.103 C 
ATOM    150  O3  IDS d 305      22.828  17.157   8.785  0.00  0.00    -0.390 OA
ATOM    151  S   IDS d 305      25.149  16.159  12.841  0.00  0.00     0.252 S 
ATOM    152  O3S IDS d 305      24.413  17.469  13.194  0.00  0.00    -0.572 OA
ATOM    153  H   IDS d 305      23.673  15.067   7.487  0.00  0.00     0.104 H 
ATOM    154  H   IDS d 305      22.042  16.471  10.602  0.00  0.00     0.091 H 
ATOM    155  H   IDS d 305      24.432  17.268  10.768  0.00  0.00     0.097 H 
ATOM    156  H   IDS d 305      26.185  15.556  10.019  0.00  0.00     0.133 H 
ATOM    157  H   IDS d 305      21.491  14.928   8.709  0.00  0.00     0.092 H 
ATOM    158  H   IDS d 305      23.510  16.879   8.155  0.00  0.00     0.210 HD
ENDROOT
TORSDOF 49
ENDMDL
MODEL 23
REMARK VINA RESULT:      -7.3      4.899      9.065
REMARK  0 active torsions:
REMARK  status: ('A' for Active; 'I' for Inactive)
REMARK       I    between atoms: N_1  and  C2_65 
REMARK       I    between atoms: N_1  and  S1_100 
REMARK       I    between atoms: O2S_4  and  S1_36 
REMARK       I    between atoms: O2S_5  and  S1_100 
REMARK       I    between atoms: C5_7  and  C6_64 
REMARK       I    between atoms: O3_11  and  C3_17 
REMARK       I    between atoms: C1_12  and  O4_28 
REMARK       I    between atoms: C5_13  and  C6_35 
REMARK       I    between atoms: C5_14  and  C6_52 
REMARK       I    between atoms: O2S_16  and  S1_75 
REMARK       I    between atoms: C2_18  and  O2_63 
REMARK       I    between atoms: C5_19  and  C6_22 
REMARK       I    between atoms: O2_20  and  C2_53 
REMARK       I    between atoms: O2_20  and  S_86 
REMARK       I    between atoms: O4_21  and  C1_67 
REMARK       I    between atoms: O4_21  and  C4_48 
REMARK       I    between atoms: O3_26  and  C3_72 
REMARK       I    between atoms: O4_28  and  C4_71 
REMARK       I    between atoms: O3_30  and  C3_94 
REMARK       I    between atoms: N_33  and  C2_82 
REMARK       I    between atoms: N_33  and  S1_75 
REMARK       I    between atoms: C6_35  and  O6_59 
REMARK       I    between atoms: S1_36  and  N_37 
REMARK       I    between atoms: S1_36  and  O1S_89 
REMARK       I    between atoms: S1_36  and  O3S_97 
REMARK       I    between atoms: N_37  and  C2_78 
REMARK       I    between atoms: C3_38  and  O3_81 
REMARK       I    between atoms: O4_39  and  C1_85 
REMARK       I    between atoms: O4_39  and  C4_69 
REMARK       I    between atoms: O3_40  and  C3_47 
REMARK       I    between atoms: O4_41  and  C1_76 
REMARK       I    between atoms: O4_41  and  C4_43 
REMARK       I    between atoms: S2_44  and  O6_80 
REMARK       I    between atoms: S_46  and  O2_57 
REMARK       I    between atoms: O3S_49  and  S1_75 
REMARK       I    between atoms: C1_54  and  O4_96 
REMARK       I    between atoms: O2_57  and  C2_66 
REMARK       I    between atoms: O6_58  and  C6_64 
REMARK       I    between atoms: O6_58  and  S2_101 
REMARK       I    between atoms: O6_59  and  S2_73 
REMARK       I    between atoms: O3_61  and  C3_77 
REMARK       I    between atoms: O2_63  and  S_104 
REMARK       I    between atoms: S1_75  and  O1S_92 
REMARK       I    between atoms: O6_80  and  C6_88 
REMARK       I    between atoms: C5_83  and  C6_88 
REMARK       I    between atoms: O3S_84  and  S1_100 
REMARK       I    between atoms: C5_87  and  C6_103 
REMARK       I    between atoms: O1S_91  and  S1_100 
REMARK       I    between atoms: O4_96  and  C4_99 
ROOT
ATOM      1  N   SGN d 304      18.672   9.683  10.146  0.00  0.00    -0.210 NA
ATOM      2  O2S SGN d 304      17.463   9.053   8.063  0.00  0.00    -0.296 OA
ATOM      3  C5  SGN d 304      19.043   5.701  11.360  0.00  0.00     0.091 C 
ATOM      4  O5S SGN d 304      17.908   1.848  12.095  0.00  0.00    -0.572 OA
ATOM      5  O3  SGN d 304      17.836   8.930  12.849  0.00  0.00    -0.391 OA
ATOM      6  C3  SGN d 304      18.651   8.089  12.053  0.00  0.00     0.083 C 
ATOM      7  O4  SGN d 304      18.292   6.269  13.644  0.00  0.00    -0.348 OA
ATOM      8  O5  SGN d 304      18.948   6.075   9.999  0.00  0.00    -0.349 OA
ATOM      9  C4  SGN d 304      18.181   6.639  12.238  0.00  0.00     0.095 C 
ATOM     10  O4S SGN d 304      19.404   0.943  10.291  0.00  0.00    -0.572 OA
ATOM     11  O6S SGN d 304      17.255   1.875   9.809  0.00  0.00    -0.572 OA
ATOM     12  O6  SGN d 304      19.180   3.298  10.651  0.00  0.00    -0.254 OA
ATOM     13  C6  SGN d 304      18.481   4.244  11.447  0.00  0.00     0.067 C 
ATOM     14  C2  SGN d 304      18.394   8.347  10.542  0.00  0.00     0.081 C 
ATOM     15  O3S SGN d 304      16.185  10.140   9.816  0.00  0.00    -0.296 OA
ATOM     16  C1  SGN d 304      19.329   7.465   9.714  0.00  0.00     0.150 C 
ATOM     17  O1S SGN d 304      17.828  11.501   8.697  0.00  0.00    -0.296 OA
ATOM     18  S1  SGN d 304      17.523  10.147   9.059  0.00  0.00     0.156 S 
ATOM     19  S2  SGN d 304      18.453   1.912  10.761  0.00  0.00     0.251 S 
ATOM     20  H   SGN d 304      19.595   9.730   9.714  0.00  0.00     0.140 HD
ATOM     21  H   SGN d 304      17.243   8.221   8.510  0.00  0.00     0.231 HD
ATOM     22  H   SGN d 304      20.053   5.764  11.709  0.00  0.00     0.090 H 
ATOM     23  H   SGN d 304      18.121   9.851  12.743  0.00  0.00     0.210 HD
ATOM     24  H   SGN d 304      19.668   8.268  12.336  0.00  0.00     0.089 H 
ATOM     25  H   SGN d 304      17.159   6.546  11.936  0.00  0.00     0.091 H 
ATOM     26  H   SGN d 304      17.459   4.260  11.128  0.00  0.00     0.080 H 
ATOM     27  H   SGN d 304      18.596   3.932  12.464  0.00  0.00     0.080 H 
ATOM     28  H   SGN d 304      17.358   8.137  10.381  0.00  0.00     0.076 H 
ATOM     29  H   SGN d 304      15.961   9.231  10.070  0.00  0.00     0.231 HD
ATOM     30  H   SGN d 304      19.275   7.574   8.651  0.00  0.00     0.131 H 
ATOM     31  H   SGN d 304      18.671  11.525   8.217  0.00  0.00     0.231 HD
ATOM     32  O6S SGN d 306      26.737   8.723  13.951  0.00  0.00    -0.572 OA
ATOM     33  O5S SGN d 306      27.721  10.845  13.307  0.00  0.00    -0.572 OA
ATOM     34  O2S SGN d 306      27.095   3.999   7.315  0.00  0.00    -0.296 OA
ATOM     35  C1  SGN d 306      28.093   6.937   8.580  0.00  0.00     0.038 C 
ATOM     36  N   SGN d 306      27.302   6.263   6.428  0.00  0.00    -0.212 NA
ATOM     37  O3  SGN d 306      25.027   7.749   6.627  0.00  0.00    -0.391 OA
ATOM     38  S2  SGN d 306      27.956   9.400  13.291  0.00  0.00     0.251 S 
ATOM     39  C3  SGN d 306      26.130   8.006   7.506  0.00  0.00     0.081 C 
ATOM     40  O3S SGN d 306      25.157   4.873   6.122  0.00  0.00    -0.296 OA
ATOM     41  O4S SGN d 306      29.149   8.805  13.841  0.00  0.00    -0.572 OA
ATOM     42  O5  SGN d 306      27.693   7.405   9.876  0.00  0.00    -0.379 OA
ATOM     43  S1  SGN d 306      26.716   4.772   6.105  0.00  0.00     0.156 S 
ATOM     44  O6  SGN d 306      28.000   9.058  11.802  0.00  0.00    -0.254 OA
ATOM     45  C2  SGN d 306      26.886   6.736   7.693  0.00  0.00     0.054 C 
ATOM     46  C5  SGN d 306      26.948   8.638   9.772  0.00  0.00     0.087 C 
ATOM     47  C6  SGN d 306      26.662   9.027  11.218  0.00  0.00     0.067 C 
ATOM     48  O1S SGN d 306      27.211   4.439   4.761  0.00  0.00    -0.296 OA
ATOM     49  O4  SGN d 306      24.857   9.712   8.747  0.00  0.00    -0.348 OA
ATOM     50  C4  SGN d 306      25.663   8.458   8.897  0.00  0.00     0.095 C 
ATOM     51  H   SGN d 306      26.661   4.383   8.093  0.00  0.00     0.231 HD
ATOM     52  H   SGN d 306      28.743   7.659   8.131  0.00  0.00     0.077 H 
ATOM     53  H   SGN d 306      28.600   6.001   8.692  0.00  0.00     0.077 H 
ATOM     54  H   SGN d 306      28.321   6.227   6.410  0.00  0.00     0.140 HD
ATOM     55  H   SGN d 306      25.362   7.467   5.762  0.00  0.00     0.210 HD
ATOM     56  H   SGN d 306      26.724   8.780   7.067  0.00  0.00     0.089 H 
ATOM     57  H   SGN d 306      24.856   5.093   7.018  0.00  0.00     0.231 HD
ATOM     58  H   SGN d 306      26.245   6.023   8.167  0.00  0.00     0.072 H 
ATOM     59  H   SGN d 306      27.486   9.416   9.270  0.00  0.00     0.090 H 
ATOM     60  H   SGN d 306      26.192   9.986  11.275  0.00  0.00     0.080 H 
ATOM     61  H   SGN d 306      25.992   8.359  11.717  0.00  0.00     0.080 H 
ATOM     62  H   SGN d 306      28.180   4.382   4.778  0.00  0.00     0.231 HD
ATOM     63  H   SGN d 306      25.027   7.745   9.379  0.00  0.00     0.091 H 
ATOM     64  O6S SGN d 302      10.697   9.989  20.101  0.00  0.00    -0.572 OA
ATOM     65  O2S SGN d 302      16.892   4.500  19.294  0.00  0.00    -0.296 OA
ATOM     66  O5S SGN d 302       9.326   9.643  18.129  0.00  0.00    -0.572 OA
ATOM     67  C5  SGN d 302      12.118   6.567  18.006  0.00  0.00     0.091 C 
ATOM     68  O4  SGN d 302      10.152   5.160  18.244  0.00  0.00    -0.348 OA
ATOM     69  O3  SGN d 302      12.002   2.848  18.621  0.00  0.00    -0.391 OA
ATOM     70  C6  SGN d 302      11.245   7.750  18.467  0.00  0.00     0.067 C 
ATOM     71  S1  SGN d 302      16.306   3.189  19.208  0.00  0.00     0.156 S 
ATOM     72  N   SGN d 302      14.867   3.318  18.319  0.00  0.00    -0.210 NA
ATOM     73  O4S SGN d 302      11.233  11.336  18.227  0.00  0.00    -0.572 OA
ATOM     74  O6  SGN d 302      11.651   8.994  17.958  0.00  0.00    -0.254 OA
ATOM     75  O5  SGN d 302      13.522   6.789  18.425  0.00  0.00    -0.349 OA
ATOM     76  C4  SGN d 302      11.568   5.276  18.618  0.00  0.00     0.095 C 
ATOM     77  S2  SGN d 302      10.671  10.059  18.565  0.00  0.00     0.251 S 
ATOM     78  C1  SGN d 302      14.463   5.670  18.143  0.00  0.00     0.150 C 
ATOM     79  C2  SGN d 302      13.886   4.347  18.657  0.00  0.00     0.081 C 
ATOM     80  O1S SGN d 302      16.994   2.093  18.582  0.00  0.00    -0.296 OA
ATOM     81  C3  SGN d 302      12.465   4.090  18.104  0.00  0.00     0.083 C 
ATOM     82  O3S SGN d 302      16.030   2.845  20.663  0.00  0.00    -0.296 OA
ATOM     83  H   SGN d 302      17.109   4.816  18.403  0.00  0.00     0.231 HD
ATOM     84  H   SGN d 302      12.094   6.488  16.939  0.00  0.00     0.090 H 
ATOM     85  H   SGN d 302      11.110   2.670  18.284  0.00  0.00     0.210 HD
ATOM     86  H   SGN d 302      11.279   7.796  19.536  0.00  0.00     0.080 H 
ATOM     87  H   SGN d 302      10.259   7.570  18.093  0.00  0.00     0.080 H 
ATOM     88  H   SGN d 302      14.390   2.420  18.399  0.00  0.00     0.140 HD
ATOM     89  H   SGN d 302      11.605   5.265  19.687  0.00  0.00     0.091 H 
ATOM     90  H   SGN d 302      15.353   5.942  18.671  0.00  0.00     0.131 H 
ATOM     91  H   SGN d 302      13.738   4.354  19.717  0.00  0.00     0.076 H 
ATOM     92  H   SGN d 302      17.171   2.311  17.653  0.00  0.00     0.231 HD
ATOM     93  H   SGN d 302      12.441   4.043  17.035  0.00  0.00     0.089 H 
ATOM     94  H   SGN d 302      15.566   3.583  21.088  0.00  0.00     0.231 HD
ATOM     95  O5  IDS d 303      15.944   5.695  14.059  0.00  0.00    -0.340 OA
ATOM     96  O2S IDS d 303      19.133   2.684  14.384  0.00  0.00    -0.572 OA
ATOM     97  O4  IDS d 303      14.882   5.516  16.777  0.00  0.00    -0.348 OA
ATOM     98  O1S IDS d 303      17.585   1.067  15.522  0.00  0.00    -0.572 OA
ATOM     99  C4  IDS d 303      15.871   6.476  16.400  0.00  0.00     0.103 C 
ATOM    100  S   IDS d 303      18.288   2.301  15.497  0.00  0.00     0.252 S 
ATOM    101  O2  IDS d 303      17.168   3.472  15.646  0.00  0.00    -0.244 OA
ATOM    102  O3  IDS d 303      18.155   7.154  16.250  0.00  0.00    -0.390 OA
ATOM    103  O61 IDS d 303      13.316   6.642  14.078  0.00  0.00    -0.646 OA
ATOM    104  C2  IDS d 303      17.795   4.829  15.531  0.00  0.00     0.134 C 
ATOM    105  C1  IDS d 303      17.376   5.282  14.123  0.00  0.00     0.161 C 
ATOM    106  O3S IDS d 303      19.201   2.282  16.730  0.00  0.00    -0.572 OA
ATOM    107  C3  IDS d 303      17.360   6.000  16.576  0.00  0.00     0.094 C 
ATOM    108  C5  IDS d 303      15.606   6.842  14.933  0.00  0.00     0.152 C 
ATOM    109  O62 IDS d 303      13.630   8.250  15.565  0.00  0.00    -0.646 OA
ATOM    110  C6  IDS d 303      14.096   7.245  14.818  0.00  0.00     0.206 C 
ATOM    111  H   IDS d 303      15.780   7.313  17.060  0.00  0.00     0.092 H 
ATOM    112  H   IDS d 303      17.929   7.882  16.850  0.00  0.00     0.210 HD
ATOM    113  H   IDS d 303      18.837   4.711  15.746  0.00  0.00     0.097 H 
ATOM    114  H   IDS d 303      17.435   4.448  13.457  0.00  0.00     0.133 H 
ATOM    115  H   IDS d 303      17.487   5.611  17.564  0.00  0.00     0.091 H 
ATOM    116  H   IDS d 303      16.216   7.662  14.616  0.00  0.00     0.104 H 
ATOM    117  C1  UAP d 301       9.643   4.918  16.945  0.00  0.00     0.167 C 
ATOM    118  C5  UAP d 301       8.528   3.196  15.741  0.00  0.00     0.147 C 
ATOM    119  O61 UAP d 301       7.860   1.264  14.466  0.00  0.00    -0.642 OA
ATOM    120  C2  UAP d 301       8.333   5.816  16.791  0.00  0.00     0.135 C 
ATOM    121  O62 UAP d 301       9.251   0.852  16.190  0.00  0.00    -0.642 OA
ATOM    122  O3  UAP d 301       8.622   6.315  14.375  0.00  0.00    -0.389 OA
ATOM    123  O5  UAP d 301       9.300   3.516  16.818  0.00  0.00    -0.311 OA
ATOM    124  C6  UAP d 301       8.518   1.716  15.412  0.00  0.00     0.233 C 
ATOM    125  O2  UAP d 301       7.254   5.430  17.783  0.00  0.00    -0.244 OA
ATOM    126  C3  UAP d 301       7.788   5.592  15.319  0.00  0.00     0.086 C 
ATOM    127  O2S UAP d 301       8.446   6.716  19.507  0.00  0.00    -0.572 OA
ATOM    128  C4  UAP d 301       7.805   4.073  14.987  0.00  0.00    -0.034 C 
ATOM    129  O3S UAP d 301       6.639   7.896  18.347  0.00  0.00    -0.572 OA
ATOM    130  O1S UAP d 301       6.000   6.093  19.846  0.00  0.00    -0.572 OA
ATOM    131  S   UAP d 301       7.082   6.533  18.966  0.00  0.00     0.252 S 
ATOM    132  H   UAP d 301      10.363   5.158  16.192  0.00  0.00     0.134 H 
ATOM    133  H   UAP d 301       8.584   6.838  16.981  0.00  0.00     0.097 H 
ATOM    134  H   UAP d 301       8.606   7.262  14.589  0.00  0.00     0.210 HD
ATOM    135  H   UAP d 301       6.785   5.957  15.248  0.00  0.00     0.093 H 
ATOM    136  H   UAP d 301       7.261   3.723  14.184  0.00  0.00     0.085 H 
ATOM    137  C5  IDS d 305      23.138   7.625   9.973  0.00  0.00     0.152 C 
ATOM    138  O2  IDS d 305      21.363  10.790   9.596  0.00  0.00    -0.244 OA
ATOM    139  C6  IDS d 305      23.051   6.567  11.053  0.00  0.00     0.206 C 
ATOM    140  O61 IDS d 305      23.205   6.862  12.244  0.00  0.00    -0.646 OA
ATOM    141  O2S IDS d 305      22.610  12.908   9.522  0.00  0.00    -0.572 OA
ATOM    142  O62 IDS d 305      22.825   5.296  10.686  0.00  0.00    -0.646 OA
ATOM    143  O5  IDS d 305      23.423   8.932  10.592  0.00  0.00    -0.340 OA
ATOM    144  C3  IDS d 305      21.890   8.845   8.067  0.00  0.00     0.094 C 
ATOM    145  O4  IDS d 305      20.713   7.863  10.131  0.00  0.00    -0.348 OA
ATOM    146  O1S IDS d 305      20.230  12.856  10.247  0.00  0.00    -0.572 OA
ATOM    147  C2  IDS d 305      22.366  10.219   8.703  0.00  0.00     0.134 C 
ATOM    148  C1  IDS d 305      23.649   9.978   9.573  0.00  0.00     0.161 C 
ATOM    149  C4  IDS d 305      21.789   7.681   9.170  0.00  0.00     0.103 C 
ATOM    150  O3  IDS d 305      22.908   8.468   7.161  0.00  0.00    -0.390 OA
ATOM    151  S   IDS d 305      21.264  12.375   9.367  0.00  0.00     0.252 S 
ATOM    152  O3S IDS d 305      20.824  12.610   7.906  0.00  0.00    -0.572 OA
ATOM    153  H   IDS d 305      23.928   7.381   9.294  0.00  0.00     0.104 H 
ATOM    154  H   IDS d 305      20.926   8.970   7.619  0.00  0.00     0.091 H 
ATOM    155  H   IDS d 305      22.546  10.889   7.887  0.00  0.00     0.097 H 
ATOM    156  H   IDS d 305      23.846  10.891  10.095  0.00  0.00     0.133 H 
ATOM    157  H   IDS d 305      21.588   6.778   8.632  0.00  0.00     0.092 H 
ATOM    158  H   IDS d 305      23.746   8.374   7.639  0.00  0.00     0.210 HD
ENDROOT
TORSDOF 49
ENDMDL
MODEL 24
REMARK VINA RESULT:      -7.3      3.702      7.679
REMARK  0 active torsions:
REMARK  status: ('A' for Active; 'I' for Inactive)
REMARK       I    between atoms: N_1  and  C2_65 
REMARK       I    between atoms: N_1  and  S1_100 
REMARK       I    between atoms: O2S_4  and  S1_36 
REMARK       I    between atoms: O2S_5  and  S1_100 
REMARK       I    between atoms: C5_7  and  C6_64 
REMARK       I    between atoms: O3_11  and  C3_17 
REMARK       I    between atoms: C1_12  and  O4_28 
REMARK       I    between atoms: C5_13  and  C6_35 
REMARK       I    between atoms: C5_14  and  C6_52 
REMARK       I    between atoms: O2S_16  and  S1_75 
REMARK       I    between atoms: C2_18  and  O2_63 
REMARK       I    between atoms: C5_19  and  C6_22 
REMARK       I    between atoms: O2_20  and  C2_53 
REMARK       I    between atoms: O2_20  and  S_86 
REMARK       I    between atoms: O4_21  and  C1_67 
REMARK       I    between atoms: O4_21  and  C4_48 
REMARK       I    between atoms: O3_26  and  C3_72 
REMARK       I    between atoms: O4_28  and  C4_71 
REMARK       I    between atoms: O3_30  and  C3_94 
REMARK       I    between atoms: N_33  and  C2_82 
REMARK       I    between atoms: N_33  and  S1_75 
REMARK       I    between atoms: C6_35  and  O6_59 
REMARK       I    between atoms: S1_36  and  N_37 
REMARK       I    between atoms: S1_36  and  O1S_89 
REMARK       I    between atoms: S1_36  and  O3S_97 
REMARK       I    between atoms: N_37  and  C2_78 
REMARK       I    between atoms: C3_38  and  O3_81 
REMARK       I    between atoms: O4_39  and  C1_85 
REMARK       I    between atoms: O4_39  and  C4_69 
REMARK       I    between atoms: O3_40  and  C3_47 
REMARK       I    between atoms: O4_41  and  C1_76 
REMARK       I    between atoms: O4_41  and  C4_43 
REMARK       I    between atoms: S2_44  and  O6_80 
REMARK       I    between atoms: S_46  and  O2_57 
REMARK       I    between atoms: O3S_49  and  S1_75 
REMARK       I    between atoms: C1_54  and  O4_96 
REMARK       I    between atoms: O2_57  and  C2_66 
REMARK       I    between atoms: O6_58  and  C6_64 
REMARK       I    between atoms: O6_58  and  S2_101 
REMARK       I    between atoms: O6_59  and  S2_73 
REMARK       I    between atoms: O3_61  and  C3_77 
REMARK       I    between atoms: O2_63  and  S_104 
REMARK       I    between atoms: S1_75  and  O1S_92 
REMARK       I    between atoms: O6_80  and  C6_88 
REMARK       I    between atoms: C5_83  and  C6_88 
REMARK       I    between atoms: O3S_84  and  S1_100 
REMARK       I    between atoms: C5_87  and  C6_103 
REMARK       I    between atoms: O1S_91  and  S1_100 
REMARK       I    between atoms: O4_96  and  C4_99 
ROOT
ATOM      1  N   SGN d 304      19.938  14.376   6.832  0.00  0.00    -0.210 NA
ATOM      2  O2S SGN d 304      19.081  12.692   5.211  0.00  0.00    -0.296 OA
ATOM      3  C5  SGN d 304      21.287  11.429   9.471  0.00  0.00     0.091 C 
ATOM      4  O5S SGN d 304      21.185   8.000  11.686  0.00  0.00    -0.572 OA
ATOM      5  O3  SGN d 304      19.161  14.518   9.651  0.00  0.00    -0.391 OA
ATOM      6  C3  SGN d 304      20.222  13.695   9.206  0.00  0.00     0.083 C 
ATOM      7  O4  SGN d 304      20.264  12.600  11.390  0.00  0.00    -0.348 OA
ATOM      8  O5  SGN d 304      21.183  11.211   8.077  0.00  0.00    -0.349 OA
ATOM      9  C4  SGN d 304      20.149  12.357   9.956  0.00  0.00     0.095 C 
ATOM     10  O4S SGN d 304      22.984   6.920  10.304  0.00  0.00    -0.572 OA
ATOM     11  O6S SGN d 304      20.700   6.970   9.599  0.00  0.00    -0.572 OA
ATOM     12  O6  SGN d 304      22.112   9.074   9.738  0.00  0.00    -0.254 OA
ATOM     13  C6  SGN d 304      21.133  10.023  10.138  0.00  0.00     0.067 C 
ATOM     14  C2  SGN d 304      20.004  13.273   7.725  0.00  0.00     0.081 C 
ATOM     15  O3S SGN d 304      17.446  13.974   6.465  0.00  0.00    -0.296 OA
ATOM     16  C1  SGN d 304      21.194  12.433   7.260  0.00  0.00     0.150 C 
ATOM     17  O1S SGN d 304      18.732  15.195   4.834  0.00  0.00    -0.296 OA
ATOM     18  S1  SGN d 304      18.779  14.056   5.704  0.00  0.00     0.156 S 
ATOM     19  S2  SGN d 304      21.779   7.695  10.407  0.00  0.00     0.251 S 
ATOM     20  H   SGN d 304      20.840  14.504   6.373  0.00  0.00     0.140 HD
ATOM     21  H   SGN d 304      19.065  12.069   5.954  0.00  0.00     0.231 HD
ATOM     22  H   SGN d 304      22.218  11.894   9.721  0.00  0.00     0.090 H 
ATOM     23  H   SGN d 304      19.193  15.368   9.185  0.00  0.00     0.210 HD
ATOM     24  H   SGN d 304      21.133  14.238   9.350  0.00  0.00     0.089 H 
ATOM     25  H   SGN d 304      19.212  11.881   9.761  0.00  0.00     0.091 H 
ATOM     26  H   SGN d 304      20.168   9.635   9.885  0.00  0.00     0.080 H 
ATOM     27  H   SGN d 304      21.261  10.168  11.190  0.00  0.00     0.080 H 
ATOM     28  H   SGN d 304      19.075  12.743   7.705  0.00  0.00     0.076 H 
ATOM     29  H   SGN d 304      17.459  13.208   7.060  0.00  0.00     0.231 HD
ATOM     30  H   SGN d 304      21.182  12.107   6.241  0.00  0.00     0.131 H 
ATOM     31  H   SGN d 304      19.566  15.262   4.344  0.00  0.00     0.231 HD
ATOM     32  O6S SGN d 306      27.697  17.190  10.341  0.00  0.00    -0.572 OA
ATOM     33  O5S SGN d 306      28.114  19.084   8.883  0.00  0.00    -0.572 OA
ATOM     34  O2S SGN d 306      29.745  10.577   6.032  0.00  0.00    -0.296 OA
ATOM     35  C1  SGN d 306      29.831  13.927   6.019  0.00  0.00     0.038 C 
ATOM     36  N   SGN d 306      29.392  12.292   4.332  0.00  0.00    -0.212 NA
ATOM     37  O3  SGN d 306      26.793  13.058   4.046  0.00  0.00    -0.391 OA
ATOM     38  S2  SGN d 306      28.729  17.868   9.415  0.00  0.00     0.251 S 
ATOM     39  C3  SGN d 306      27.727  13.923   4.706  0.00  0.00     0.081 C 
ATOM     40  O3S SGN d 306      27.725  10.362   4.684  0.00  0.00    -0.296 OA
ATOM     41  O4S SGN d 306      30.000  17.879  10.097  0.00  0.00    -0.572 OA
ATOM     42  O5  SGN d 306      29.236  14.727   7.050  0.00  0.00    -0.379 OA
ATOM     43  S1  SGN d 306      29.252  10.692   4.636  0.00  0.00     0.156 S 
ATOM     44  O6  SGN d 306      28.960  17.007   8.173  0.00  0.00    -0.254 OA
ATOM     45  C2  SGN d 306      28.783  13.080   5.333  0.00  0.00     0.054 C 
ATOM     46  C5  SGN d 306      28.195  15.572   6.512  0.00  0.00     0.087 C 
ATOM     47  C6  SGN d 306      27.722  16.391   7.708  0.00  0.00     0.067 C 
ATOM     48  O1S SGN d 306      29.905  10.019   3.503  0.00  0.00    -0.296 OA
ATOM     49  O4  SGN d 306      25.964  15.556   5.250  0.00  0.00    -0.348 OA
ATOM     50  C4  SGN d 306      27.066  14.726   5.834  0.00  0.00     0.095 C 
ATOM     51  H   SGN d 306      29.174  11.096   6.621  0.00  0.00     0.231 HD
ATOM     52  H   SGN d 306      30.291  14.570   5.297  0.00  0.00     0.077 H 
ATOM     53  H   SGN d 306      30.562  13.283   6.460  0.00  0.00     0.077 H 
ATOM     54  H   SGN d 306      30.382  12.532   4.282  0.00  0.00     0.140 HD
ATOM     55  H   SGN d 306      27.248  12.569   3.342  0.00  0.00     0.210 HD
ATOM     56  H   SGN d 306      28.117  14.600   3.976  0.00  0.00     0.089 H 
ATOM     57  H   SGN d 306      27.319  10.818   5.439  0.00  0.00     0.231 HD
ATOM     58  H   SGN d 306      28.328  12.457   6.075  0.00  0.00     0.072 H 
ATOM     59  H   SGN d 306      28.535  16.213   5.725  0.00  0.00     0.090 H 
ATOM     60  H   SGN d 306      27.008  17.131   7.412  0.00  0.00     0.080 H 
ATOM     61  H   SGN d 306      27.226  15.809   8.456  0.00  0.00     0.080 H 
ATOM     62  H   SGN d 306      30.850  10.240   3.497  0.00  0.00     0.231 HD
ATOM     63  H   SGN d 306      26.616  14.109   6.583  0.00  0.00     0.091 H 
ATOM     64  O6S SGN d 302      11.544  16.281  16.251  0.00  0.00    -0.572 OA
ATOM     65  O2S SGN d 302      19.027  12.821  17.342  0.00  0.00    -0.296 OA
ATOM     66  O5S SGN d 302      10.448  14.846  14.630  0.00  0.00    -0.572 OA
ATOM     67  C5  SGN d 302      13.967  12.847  15.576  0.00  0.00     0.091 C 
ATOM     68  O4  SGN d 302      12.441  11.159  16.428  0.00  0.00    -0.348 OA
ATOM     69  O3  SGN d 302      14.817   9.769  17.583  0.00  0.00    -0.391 OA
ATOM     70  C6  SGN d 302      12.779  13.829  15.584  0.00  0.00     0.067 C 
ATOM     71  S1  SGN d 302      18.822  11.471  17.796  0.00  0.00     0.156 S 
ATOM     72  N   SGN d 302      17.462  10.851  16.993  0.00  0.00    -0.210 NA
ATOM     73  O4S SGN d 302      11.819  16.898  13.980  0.00  0.00    -0.572 OA
ATOM     74  O6  SGN d 302      12.868  14.843  14.617  0.00  0.00    -0.254 OA
ATOM     75  O5  SGN d 302      15.229  13.586  15.812  0.00  0.00    -0.349 OA
ATOM     76  C4  SGN d 302      13.746  11.792  16.663  0.00  0.00     0.095 C 
ATOM     77  S2  SGN d 302      11.600  15.747  14.810  0.00  0.00     0.251 S 
ATOM     78  C1  SGN d 302      16.453  12.749  15.941  0.00  0.00     0.150 C 
ATOM     79  C2  SGN d 302      16.221  11.620  16.952  0.00  0.00     0.081 C 
ATOM     80  O1S SGN d 302      19.819  10.451  17.611  0.00  0.00    -0.296 OA
ATOM     81  C3  SGN d 302      14.961  10.794  16.606  0.00  0.00     0.083 C 
ATOM     82  O3S SGN d 302      18.554  11.649  19.282  0.00  0.00    -0.296 OA
ATOM     83  H   SGN d 302      19.209  12.817  16.389  0.00  0.00     0.231 HD
ATOM     84  H   SGN d 302      14.035  12.362  14.625  0.00  0.00     0.090 H 
ATOM     85  H   SGN d 302      14.029   9.239  17.382  0.00  0.00     0.210 HD
ATOM     86  H   SGN d 302      12.731  14.288  16.550  0.00  0.00     0.080 H 
ATOM     87  H   SGN d 302      11.904  13.258  15.354  0.00  0.00     0.080 H 
ATOM     88  H   SGN d 302      17.241   9.959  17.435  0.00  0.00     0.140 HD
ATOM     89  H   SGN d 302      13.714  12.202  17.651  0.00  0.00     0.091 H 
ATOM     90  H   SGN d 302      17.200  13.434  16.282  0.00  0.00     0.131 H 
ATOM     91  H   SGN d 302      16.008  11.993  17.933  0.00  0.00     0.076 H 
ATOM     92  H   SGN d 302      19.991  10.337  16.663  0.00  0.00     0.231 HD
ATOM     93  H   SGN d 302      15.020  10.336  15.640  0.00  0.00     0.089 H 
ATOM     94  H   SGN d 302      17.882  12.337  19.409  0.00  0.00     0.231 HD
ATOM     95  O5  IDS d 303      18.135  11.611  12.101  0.00  0.00    -0.340 OA
ATOM     96  O2S IDS d 303      21.989   9.950  13.416  0.00  0.00    -0.572 OA
ATOM     97  O4  IDS d 303      16.985  12.204  14.723  0.00  0.00    -0.348 OA
ATOM     98  O1S IDS d 303      20.862   8.536  15.160  0.00  0.00    -0.572 OA
ATOM     99  C4  IDS d 303      17.702  13.177  13.960  0.00  0.00     0.103 C 
ATOM    100  S   IDS d 303      21.208   9.807  14.628  0.00  0.00     0.252 S 
ATOM    101  O2  IDS d 303      19.806  10.592  14.365  0.00  0.00    -0.244 OA
ATOM    102  O3  IDS d 303      19.724  14.341  13.456  0.00  0.00    -0.390 OA
ATOM    103  O61 IDS d 303      15.353  11.736  11.873  0.00  0.00    -0.646 OA
ATOM    104  C2  IDS d 303      20.050  11.916  13.707  0.00  0.00     0.134 C 
ATOM    105  C1  IDS d 303      19.618  11.663  12.254  0.00  0.00     0.161 C 
ATOM    106  O3S IDS d 303      22.010  10.512  15.730  0.00  0.00    -0.572 OA
ATOM    107  C3  IDS d 303      19.249  13.231  14.238  0.00  0.00     0.094 C 
ATOM    108  C5  IDS d 303      17.444  12.865  12.479  0.00  0.00     0.152 C 
ATOM    109  O62 IDS d 303      15.125  13.810  12.609  0.00  0.00    -0.646 OA
ATOM    110  C6  IDS d 303      15.893  12.765  12.286  0.00  0.00     0.206 C 
ATOM    111  H   IDS d 303      17.346  14.143  14.249  0.00  0.00     0.092 H 
ATOM    112  H   IDS d 303      19.272  15.152  13.738  0.00  0.00     0.210 HD
ATOM    113  H   IDS d 303      21.069  12.179  13.903  0.00  0.00     0.097 H 
ATOM    114  H   IDS d 303      19.942  10.687  11.959  0.00  0.00     0.133 H 
ATOM    115  H   IDS d 303      19.412  13.301  15.293  0.00  0.00     0.091 H 
ATOM    116  H   IDS d 303      17.830  13.634  11.843  0.00  0.00     0.104 H 
ATOM    117  C1  UAP d 301      12.102  10.309  15.348  0.00  0.00     0.167 C 
ATOM    118  C5  UAP d 301      11.572   8.024  14.954  0.00  0.00     0.147 C 
ATOM    119  O61 UAP d 301      11.534   5.648  14.555  0.00  0.00    -0.642 OA
ATOM    120  C2  UAP d 301      10.611  10.685  14.919  0.00  0.00     0.135 C 
ATOM    121  O62 UAP d 301      12.869   6.325  16.238  0.00  0.00    -0.642 OA
ATOM    122  O3  UAP d 301      10.912  10.279  12.487  0.00  0.00    -0.389 OA
ATOM    123  O5  UAP d 301      12.158   8.930  15.787  0.00  0.00    -0.311 OA
ATOM    124  C6  UAP d 301      11.982   6.589  15.222  0.00  0.00     0.233 C 
ATOM    125  O2  UAP d 301       9.614  10.429  16.031  0.00  0.00    -0.244 OA
ATOM    126  C3  UAP d 301      10.244   9.774  13.674  0.00  0.00     0.086 C 
ATOM    127  O2S UAP d 301      10.301  12.550  17.069  0.00  0.00    -0.572 OA
ATOM    128  C4  UAP d 301      10.691   8.312  13.954  0.00  0.00    -0.034 C 
ATOM    129  O3S UAP d 301       8.322  12.653  15.628  0.00  0.00    -0.572 OA
ATOM    130  O1S UAP d 301       8.096  11.462  17.733  0.00  0.00    -0.572 OA
ATOM    131  S   UAP d 301       9.074  11.810  16.704  0.00  0.00     0.252 S 
ATOM    132  H   UAP d 301      12.778  10.430  14.528  0.00  0.00     0.134 H 
ATOM    133  H   UAP d 301      10.565  11.728  14.688  0.00  0.00     0.097 H 
ATOM    134  H   UAP d 301      10.628  11.192  12.319  0.00  0.00     0.210 HD
ATOM    135  H   UAP d 301       9.186   9.795  13.514  0.00  0.00     0.093 H 
ATOM    136  H   UAP d 301      10.315   7.546  13.374  0.00  0.00     0.085 H 
ATOM    137  C5  IDS d 305      24.794  13.714   7.263  0.00  0.00     0.152 C 
ATOM    138  O2  IDS d 305      22.261  15.877   5.775  0.00  0.00    -0.244 OA
ATOM    139  C6  IDS d 305      24.925  13.170   8.670  0.00  0.00     0.206 C 
ATOM    140  O61 IDS d 305      24.916  13.928   9.647  0.00  0.00    -0.646 OA
ATOM    141  O2S IDS d 305      22.894  18.059   4.832  0.00  0.00    -0.572 OA
ATOM    142  O62 IDS d 305      25.074  11.847   8.833  0.00  0.00    -0.646 OA
ATOM    143  O5  IDS d 305      24.676  15.183   7.316  0.00  0.00    -0.340 OA
ATOM    144  C3  IDS d 305      23.390  13.719   5.093  0.00  0.00     0.094 C 
ATOM    145  O4  IDS d 305      22.389  13.322   7.427  0.00  0.00    -0.348 OA
ATOM    146  O1S IDS d 305      20.574  17.640   5.630  0.00  0.00    -0.572 OA
ATOM    147  C2  IDS d 305      23.436  15.306   5.127  0.00  0.00     0.134 C 
ATOM    148  C1  IDS d 305      24.677  15.776   5.963  0.00  0.00     0.161 C 
ATOM    149  C4  IDS d 305      23.535  13.087   6.563  0.00  0.00     0.103 C 
ATOM    150  O3  IDS d 305      24.529  13.318   4.357  0.00  0.00    -0.390 OA
ATOM    151  S   IDS d 305      21.754  17.161   4.957  0.00  0.00     0.252 S 
ATOM    152  O3S IDS d 305      21.363  16.688   3.540  0.00  0.00    -0.572 OA
ATOM    153  H   IDS d 305      25.663  13.455   6.695  0.00  0.00     0.104 H 
ATOM    154  H   IDS d 305      22.460  13.395   4.675  0.00  0.00     0.091 H 
ATOM    155  H   IDS d 305      23.482  15.633   4.109  0.00  0.00     0.097 H 
ATOM    156  H   IDS d 305      24.587  16.836   6.083  0.00  0.00     0.133 H 
ATOM    157  H   IDS d 305      23.620  12.030   6.425  0.00  0.00     0.092 H 
ATOM    158  H   IDS d 305      25.329  13.647   4.795  0.00  0.00     0.210 HD
ENDROOT
TORSDOF 49
ENDMDL
MODEL 25
REMARK VINA RESULT:      -7.2      5.065     15.365
REMARK  0 active torsions:
REMARK  status: ('A' for Active; 'I' for Inactive)
REMARK       I    between atoms: N_1  and  C2_65 
REMARK       I    between atoms: N_1  and  S1_100 
REMARK       I    between atoms: O2S_4  and  S1_36 
REMARK       I    between atoms: O2S_5  and  S1_100 
REMARK       I    between atoms: C5_7  and  C6_64 
REMARK       I    between atoms: O3_11  and  C3_17 
REMARK       I    between atoms: C1_12  and  O4_28 
REMARK       I    between atoms: C5_13  and  C6_35 
REMARK       I    between atoms: C5_14  and  C6_52 
REMARK       I    between atoms: O2S_16  and  S1_75 
REMARK       I    between atoms: C2_18  and  O2_63 
REMARK       I    between atoms: C5_19  and  C6_22 
REMARK       I    between atoms: O2_20  and  C2_53 
REMARK       I    between atoms: O2_20  and  S_86 
REMARK       I    between atoms: O4_21  and  C1_67 
REMARK       I    between atoms: O4_21  and  C4_48 
REMARK       I    between atoms: O3_26  and  C3_72 
REMARK       I    between atoms: O4_28  and  C4_71 
REMARK       I    between atoms: O3_30  and  C3_94 
REMARK       I    between atoms: N_33  and  C2_82 
REMARK       I    between atoms: N_33  and  S1_75 
REMARK       I    between atoms: C6_35  and  O6_59 
REMARK       I    between atoms: S1_36  and  N_37 
REMARK       I    between atoms: S1_36  and  O1S_89 
REMARK       I    between atoms: S1_36  and  O3S_97 
REMARK       I    between atoms: N_37  and  C2_78 
REMARK       I    between atoms: C3_38  and  O3_81 
REMARK       I    between atoms: O4_39  and  C1_85 
REMARK       I    between atoms: O4_39  and  C4_69 
REMARK       I    between atoms: O3_40  and  C3_47 
REMARK       I    between atoms: O4_41  and  C1_76 
REMARK       I    between atoms: O4_41  and  C4_43 
REMARK       I    between atoms: S2_44  and  O6_80 
REMARK       I    between atoms: S_46  and  O2_57 
REMARK       I    between atoms: O3S_49  and  S1_75 
REMARK       I    between atoms: C1_54  and  O4_96 
REMARK       I    between atoms: O2_57  and  C2_66 
REMARK       I    between atoms: O6_58  and  C6_64 
REMARK       I    between atoms: O6_58  and  S2_101 
REMARK       I    between atoms: O6_59  and  S2_73 
REMARK       I    between atoms: O3_61  and  C3_77 
REMARK       I    between atoms: O2_63  and  S_104 
REMARK       I    between atoms: S1_75  and  O1S_92 
REMARK       I    between atoms: O6_80  and  C6_88 
REMARK       I    between atoms: C5_83  and  C6_88 
REMARK       I    between atoms: O3S_84  and  S1_100 
REMARK       I    between atoms: C5_87  and  C6_103 
REMARK       I    between atoms: O1S_91  and  S1_100 
REMARK       I    between atoms: O4_96  and  C4_99 
ROOT
ATOM      1  N   SGN d 304      20.577  12.800  12.768  0.00  0.00    -0.210 NA
ATOM      2  O2S SGN d 304      21.041  14.448  14.576  0.00  0.00    -0.296 OA
ATOM      3  C5  SGN d 304      24.525  12.906  11.399  0.00  0.00     0.091 C 
ATOM      4  O5S SGN d 304      28.091  14.535  10.257  0.00  0.00    -0.572 OA
ATOM      5  O3  SGN d 304      21.091  13.263   9.923  0.00  0.00    -0.391 OA
ATOM      6  C3  SGN d 304      22.087  12.756  10.793  0.00  0.00     0.083 C 
ATOM      7  O4  SGN d 304      23.767  13.134   9.060  0.00  0.00    -0.348 OA
ATOM      8  O5  SGN d 304      24.179  13.175  12.745  0.00  0.00    -0.349 OA
ATOM      9  C4  SGN d 304      23.424  13.427  10.447  0.00  0.00     0.095 C 
ATOM     10  O4S SGN d 304      29.300  13.557  12.231  0.00  0.00    -0.572 OA
ATOM     11  O6S SGN d 304      28.014  15.566  12.398  0.00  0.00    -0.572 OA
ATOM     12  O6  SGN d 304      26.934  13.309  11.978  0.00  0.00    -0.254 OA
ATOM     13  C6  SGN d 304      25.855  13.685  11.133  0.00  0.00     0.067 C 
ATOM     14  C2  SGN d 304      21.830  13.228  12.252  0.00  0.00     0.081 C 
ATOM     15  O3S SGN d 304      19.693  15.191  12.701  0.00  0.00    -0.296 OA
ATOM     16  C1  SGN d 304      22.888  12.618  13.172  0.00  0.00     0.150 C 
ATOM     17  O1S SGN d 304      18.680  13.564  14.159  0.00  0.00    -0.296 OA
ATOM     18  S1  SGN d 304      19.947  14.027  13.671  0.00  0.00     0.156 S 
ATOM     19  S2  SGN d 304      28.163  14.230  11.665  0.00  0.00     0.251 S 
ATOM     20  H   SGN d 304      20.708  11.974  13.351  0.00  0.00     0.140 HD
ATOM     21  H   SGN d 304      21.807  14.724  14.050  0.00  0.00     0.231 HD
ATOM     22  H   SGN d 304      24.633  11.855  11.231  0.00  0.00     0.090 H 
ATOM     23  H   SGN d 304      20.240  12.848  10.130  0.00  0.00     0.210 HD
ATOM     24  H   SGN d 304      22.084  11.690  10.697  0.00  0.00     0.089 H 
ATOM     25  H   SGN d 304      23.341  14.487  10.566  0.00  0.00     0.091 H 
ATOM     26  H   SGN d 304      25.667  14.729  11.276  0.00  0.00     0.080 H 
ATOM     27  H   SGN d 304      26.153  13.447  10.134  0.00  0.00     0.080 H 
ATOM     28  H   SGN d 304      21.856  14.297  12.224  0.00  0.00     0.076 H 
ATOM     29  H   SGN d 304      20.540  15.519  12.359  0.00  0.00     0.231 HD
ATOM     30  H   SGN d 304      22.802  12.839  14.215  0.00  0.00     0.131 H 
ATOM     31  H   SGN d 304      18.821  12.827  14.775  0.00  0.00     0.231 HD
ATOM     32  O6S SGN d 306      22.851   4.475  10.326  0.00  0.00    -0.572 OA
ATOM     33  O5S SGN d 306      20.958   3.272  11.252  0.00  0.00    -0.572 OA
ATOM     34  O2S SGN d 306      27.751   6.105  16.636  0.00  0.00    -0.296 OA
ATOM     35  C1  SGN d 306      25.003   4.413  15.734  0.00  0.00     0.038 C 
ATOM     36  N   SGN d 306      25.587   5.674  17.678  0.00  0.00    -0.212 NA
ATOM     37  O3  SGN d 306      23.714   7.591  17.186  0.00  0.00    -0.391 OA
ATOM     38  S2  SGN d 306      22.421   3.294  11.221  0.00  0.00     0.251 S 
ATOM     39  C3  SGN d 306      23.632   6.323  16.523  0.00  0.00     0.081 C 
ATOM     40  O3S SGN d 306      26.580   8.045  17.535  0.00  0.00    -0.296 OA
ATOM     41  O4S SGN d 306      23.203   2.142  10.847  0.00  0.00    -0.572 OA
ATOM     42  O5  SGN d 306      24.435   4.492  14.419  0.00  0.00    -0.379 OA
ATOM     43  S1  SGN d 306      26.958   6.554  17.809  0.00  0.00     0.156 S 
ATOM     44  O6  SGN d 306      22.808   3.573  12.674  0.00  0.00    -0.254 OA
ATOM     45  C2  SGN d 306      25.011   5.773  16.392  0.00  0.00     0.054 C 
ATOM     46  C5  SGN d 306      23.092   5.022  14.469  0.00  0.00     0.087 C 
ATOM     47  C6  SGN d 306      22.617   4.977  13.021  0.00  0.00     0.067 C 
ATOM     48  O1S SGN d 306      27.412   6.367  19.195  0.00  0.00    -0.296 OA
ATOM     49  O4  SGN d 306      21.692   7.046  15.188  0.00  0.00    -0.348 OA
ATOM     50  C4  SGN d 306      23.065   6.453  15.103  0.00  0.00     0.095 C 
ATOM     51  H   SGN d 306      27.274   6.322  15.820  0.00  0.00     0.231 HD
ATOM     52  H   SGN d 306      24.422   3.738  16.328  0.00  0.00     0.077 H 
ATOM     53  H   SGN d 306      26.011   4.061  15.653  0.00  0.00     0.077 H 
ATOM     54  H   SGN d 306      25.804   4.696  17.866  0.00  0.00     0.140 HD
ATOM     55  H   SGN d 306      24.076   7.466  18.078  0.00  0.00     0.210 HD
ATOM     56  H   SGN d 306      22.989   5.692  17.101  0.00  0.00     0.089 H 
ATOM     57  H   SGN d 306      26.284   8.140  16.616  0.00  0.00     0.231 HD
ATOM     58  H   SGN d 306      25.585   6.433  15.775  0.00  0.00     0.072 H 
ATOM     59  H   SGN d 306      22.437   4.457  15.100  0.00  0.00     0.090 H 
ATOM     60  H   SGN d 306      21.588   5.259  12.942  0.00  0.00     0.080 H 
ATOM     61  H   SGN d 306      23.140   5.653  12.378  0.00  0.00     0.080 H 
ATOM     62  H   SGN d 306      27.641   5.435  19.338  0.00  0.00     0.231 HD
ATOM     63  H   SGN d 306      23.639   7.106  14.478  0.00  0.00     0.091 H 
ATOM     64  O6S SGN d 302      18.568  18.724   1.646  0.00  0.00    -0.572 OA
ATOM     65  O2S SGN d 302      25.095  13.797   3.160  0.00  0.00    -0.296 OA
ATOM     66  O5S SGN d 302      18.720  20.460   3.335  0.00  0.00    -0.572 OA
ATOM     67  C5  SGN d 302      22.247  18.300   3.745  0.00  0.00     0.091 C 
ATOM     68  O4  SGN d 302      23.274  20.404   3.096  0.00  0.00    -0.348 OA
ATOM     69  O3  SGN d 302      25.867  18.938   2.900  0.00  0.00    -0.391 OA
ATOM     70  C6  SGN d 302      20.915  18.862   3.214  0.00  0.00     0.067 C 
ATOM     71  S1  SGN d 302      26.282  14.604   3.068  0.00  0.00     0.156 S 
ATOM     72  N   SGN d 302      25.924  16.134   3.708  0.00  0.00    -0.210 NA
ATOM     73  O4S SGN d 302      17.393  18.304   3.661  0.00  0.00    -0.572 OA
ATOM     74  O6  SGN d 302      19.779  18.346   3.857  0.00  0.00    -0.254 OA
ATOM     75  O5  SGN d 302      22.268  16.827   3.582  0.00  0.00    -0.349 OA
ATOM     76  C4  SGN d 302      23.401  18.945   2.974  0.00  0.00     0.095 C 
ATOM     77  S2  SGN d 302      18.539  19.008   3.157  0.00  0.00     0.251 S 
ATOM     78  C1  SGN d 302      23.544  16.155   3.952  0.00  0.00     0.150 C 
ATOM     79  C2  SGN d 302      24.728  16.850   3.270  0.00  0.00     0.081 C 
ATOM     80  O1S SGN d 302      27.501  14.235   3.735  0.00  0.00    -0.296 OA
ATOM     81  C3  SGN d 302      24.743  18.368   3.560  0.00  0.00     0.083 C 
ATOM     82  O3S SGN d 302      26.530  14.674   1.570  0.00  0.00    -0.296 OA
ATOM     83  H   SGN d 302      24.849  13.690   4.092  0.00  0.00     0.231 HD
ATOM     84  H   SGN d 302      22.352  18.524   4.786  0.00  0.00     0.090 H 
ATOM     85  H   SGN d 302      25.893  19.893   3.071  0.00  0.00     0.210 HD
ATOM     86  H   SGN d 302      20.845  18.633   2.171  0.00  0.00     0.080 H 
ATOM     87  H   SGN d 302      20.927  19.915   3.405  0.00  0.00     0.080 H 
ATOM     88  H   SGN d 302      26.720  16.735   3.495  0.00  0.00     0.140 HD
ATOM     89  H   SGN d 302      23.388  18.723   1.927  0.00  0.00     0.091 H 
ATOM     90  H   SGN d 302      23.420  15.153   3.599  0.00  0.00     0.131 H 
ATOM     91  H   SGN d 302      24.663  16.804   2.203  0.00  0.00     0.076 H 
ATOM     92  H   SGN d 302      27.345  14.189   4.691  0.00  0.00     0.231 HD
ATOM     93  H   SGN d 302      24.816  18.588   4.605  0.00  0.00     0.089 H 
ATOM     94  H   SGN d 302      25.708  14.923   1.117  0.00  0.00     0.231 HD
ATOM     95  O5  IDS d 303      23.901  15.435   8.222  0.00  0.00    -0.340 OA
ATOM     96  O2S IDS d 303      27.421  12.800   8.261  0.00  0.00    -0.572 OA
ATOM     97  O4  IDS d 303      23.809  16.016   5.358  0.00  0.00    -0.348 OA
ATOM     98  O1S IDS d 303      28.703  14.376   6.784  0.00  0.00    -0.572 OA
ATOM     99  C4  IDS d 303      23.053  14.960   5.952  0.00  0.00     0.103 C 
ATOM    100  S   IDS d 303      27.616  13.488   7.001  0.00  0.00     0.252 S 
ATOM    101  O2  IDS d 303      26.260  14.348   6.735  0.00  0.00    -0.244 OA
ATOM    102  O3  IDS d 303      22.797  12.657   6.525  0.00  0.00    -0.390 OA
ATOM    103  O61 IDS d 303      22.500  17.818   7.816  0.00  0.00    -0.646 OA
ATOM    104  C2  IDS d 303      25.040  13.530   7.034  0.00  0.00     0.134 C 
ATOM    105  C1  IDS d 303      24.560  14.106   8.375  0.00  0.00     0.161 C 
ATOM    106  O3S IDS d 303      27.762  12.389   5.941  0.00  0.00    -0.572 OA
ATOM    107  C3  IDS d 303      23.781  13.567   6.002  0.00  0.00     0.094 C 
ATOM    108  C5  IDS d 303      22.687  15.413   7.373  0.00  0.00     0.152 C 
ATOM    109  O62 IDS d 303      20.932  16.977   6.501  0.00  0.00    -0.646 OA
ATOM    110  C6  IDS d 303      22.024  16.828   7.255  0.00  0.00     0.206 C 
ATOM    111  H   IDS d 303      22.194  14.789   5.337  0.00  0.00     0.092 H 
ATOM    112  H   IDS d 303      22.024  12.646   5.939  0.00  0.00     0.210 HD
ATOM    113  H   IDS d 303      25.336  12.502   6.991  0.00  0.00     0.097 H 
ATOM    114  H   IDS d 303      25.411  14.310   8.991  0.00  0.00     0.133 H 
ATOM    115  H   IDS d 303      24.158  13.335   5.028  0.00  0.00     0.091 H 
ATOM    116  H   IDS d 303      21.999  14.738   7.836  0.00  0.00     0.104 H 
ATOM    117  C1  UAP d 301      23.459  21.167   4.273  0.00  0.00     0.167 C 
ATOM    118  C5  UAP d 301      24.988  22.755   5.168  0.00  0.00     0.147 C 
ATOM    119  O61 UAP d 301      26.805  23.957   6.196  0.00  0.00    -0.642 OA
ATOM    120  C2  UAP d 301      22.346  22.311   4.257  0.00  0.00     0.135 C 
ATOM    121  O62 UAP d 301      27.409  22.374   4.710  0.00  0.00    -0.642 OA
ATOM    122  O3  UAP d 301      21.975  22.372   6.713  0.00  0.00    -0.389 OA
ATOM    123  O5  UAP d 301      24.780  21.762   4.258  0.00  0.00    -0.311 OA
ATOM    124  C6  UAP d 301      26.451  23.075   5.402  0.00  0.00     0.233 C 
ATOM    125  O2  UAP d 301      22.504  23.248   3.077  0.00  0.00    -0.244 OA
ATOM    126  C3  UAP d 301      22.511  23.137   5.601  0.00  0.00     0.086 C 
ATOM    127  O2S UAP d 301      21.403  21.569   1.658  0.00  0.00    -0.572 OA
ATOM    128  C4  UAP d 301      24.018  23.438   5.840  0.00  0.00    -0.034 C 
ATOM    129  O3S UAP d 301      19.954  23.324   2.564  0.00  0.00    -0.572 OA
ATOM    130  O1S UAP d 301      21.569  23.987   0.875  0.00  0.00    -0.572 OA
ATOM    131  S   UAP d 301      21.355  23.018   1.949  0.00  0.00     0.252 S 
ATOM    132  H   UAP d 301      23.372  20.561   5.151  0.00  0.00     0.134 H 
ATOM    133  H   UAP d 301      21.380  21.860   4.174  0.00  0.00     0.097 H 
ATOM    134  H   UAP d 301      21.036  22.188   6.556  0.00  0.00     0.210 HD
ATOM    135  H   UAP d 301      21.976  24.060   5.523  0.00  0.00     0.093 H 
ATOM    136  H   UAP d 301      24.288  24.167   6.518  0.00  0.00     0.085 H 
ATOM    137  C5  IDS d 305      23.403   8.853  13.569  0.00  0.00     0.152 C 
ATOM    138  O2  IDS d 305      19.985  10.100  13.828  0.00  0.00    -0.244 OA
ATOM    139  C6  IDS d 305      24.397   8.927  12.429  0.00  0.00     0.206 C 
ATOM    140  O61 IDS d 305      24.101   8.518  11.301  0.00  0.00    -0.646 OA
ATOM    141  O2S IDS d 305      18.125   8.542  14.237  0.00  0.00    -0.572 OA
ATOM    142  O62 IDS d 305      25.617   9.428  12.677  0.00  0.00    -0.646 OA
ATOM    143  O5  IDS d 305      22.150   8.244  13.085  0.00  0.00    -0.340 OA
ATOM    144  C3  IDS d 305      22.035  10.191  15.306  0.00  0.00     0.094 C 
ATOM    145  O4  IDS d 305      22.731  11.135  13.019  0.00  0.00    -0.348 OA
ATOM    146  O1S IDS d 305      17.731  10.731  13.119  0.00  0.00    -0.572 OA
ATOM    147  C2  IDS d 305      20.750   9.383  14.842  0.00  0.00     0.134 C 
ATOM    148  C1  IDS d 305      21.191   8.027  14.188  0.00  0.00     0.161 C 
ATOM    149  C4  IDS d 305      23.130  10.293  14.135  0.00  0.00     0.103 C 
ATOM    150  O3  IDS d 305      22.613   9.428  16.347  0.00  0.00    -0.390 OA
ATOM    151  S   IDS d 305      18.414   9.965  14.131  0.00  0.00     0.252 S 
ATOM    152  O3S IDS d 305      18.147  10.610  15.508  0.00  0.00    -0.572 OA
ATOM    153  H   IDS d 305      23.803   8.249  14.356  0.00  0.00     0.104 H 
ATOM    154  H   IDS d 305      21.753  11.183  15.592  0.00  0.00     0.091 H 
ATOM    155  H   IDS d 305      20.147   9.238  15.715  0.00  0.00     0.097 H 
ATOM    156  H   IDS d 305      20.314   7.588  13.761  0.00  0.00     0.133 H 
ATOM    157  H   IDS d 305      23.997  10.737  14.577  0.00  0.00     0.092 H 
ATOM    158  H   IDS d 305      22.842   8.547  16.012  0.00  0.00     0.210 HD
ENDROOT
TORSDOF 49
ENDMDL
MODEL 26
REMARK VINA RESULT:      -7.1      4.066     15.292
REMARK  0 active torsions:
REMARK  status: ('A' for Active; 'I' for Inactive)
REMARK       I    between atoms: N_1  and  C2_65 
REMARK       I    between atoms: N_1  and  S1_100 
REMARK       I    between atoms: O2S_4  and  S1_36 
REMARK       I    between atoms: O2S_5  and  S1_100 
REMARK       I    between atoms: C5_7  and  C6_64 
REMARK       I    between atoms: O3_11  and  C3_17 
REMARK       I    between atoms: C1_12  and  O4_28 
REMARK       I    between atoms: C5_13  and  C6_35 
REMARK       I    between atoms: C5_14  and  C6_52 
REMARK       I    between atoms: O2S_16  and  S1_75 
REMARK       I    between atoms: C2_18  and  O2_63 
REMARK       I    between atoms: C5_19  and  C6_22 
REMARK       I    between atoms: O2_20  and  C2_53 
REMARK       I    between atoms: O2_20  and  S_86 
REMARK       I    between atoms: O4_21  and  C1_67 
REMARK       I    between atoms: O4_21  and  C4_48 
REMARK       I    between atoms: O3_26  and  C3_72 
REMARK       I    between atoms: O4_28  and  C4_71 
REMARK       I    between atoms: O3_30  and  C3_94 
REMARK       I    between atoms: N_33  and  C2_82 
REMARK       I    between atoms: N_33  and  S1_75 
REMARK       I    between atoms: C6_35  and  O6_59 
REMARK       I    between atoms: S1_36  and  N_37 
REMARK       I    between atoms: S1_36  and  O1S_89 
REMARK       I    between atoms: S1_36  and  O3S_97 
REMARK       I    between atoms: N_37  and  C2_78 
REMARK       I    between atoms: C3_38  and  O3_81 
REMARK       I    between atoms: O4_39  and  C1_85 
REMARK       I    between atoms: O4_39  and  C4_69 
REMARK       I    between atoms: O3_40  and  C3_47 
REMARK       I    between atoms: O4_41  and  C1_76 
REMARK       I    between atoms: O4_41  and  C4_43 
REMARK       I    between atoms: S2_44  and  O6_80 
REMARK       I    between atoms: S_46  and  O2_57 
REMARK       I    between atoms: O3S_49  and  S1_75 
REMARK       I    between atoms: C1_54  and  O4_96 
REMARK       I    between atoms: O2_57  and  C2_66 
REMARK       I    between atoms: O6_58  and  C6_64 
REMARK       I    between atoms: O6_58  and  S2_101 
REMARK       I    between atoms: O6_59  and  S2_73 
REMARK       I    between atoms: O3_61  and  C3_77 
REMARK       I    between atoms: O2_63  and  S_104 
REMARK       I    between atoms: S1_75  and  O1S_92 
REMARK       I    between atoms: O6_80  and  C6_88 
REMARK       I    between atoms: C5_83  and  C6_88 
REMARK       I    between atoms: O3S_84  and  S1_100 
REMARK       I    between atoms: C5_87  and  C6_103 
REMARK       I    between atoms: O1S_91  and  S1_100 
REMARK       I    between atoms: O4_96  and  C4_99 
ROOT
ATOM      1  N   SGN d 304      18.063   4.342  15.882  0.00  0.00    -0.210 NA
ATOM      2  O2S SGN d 304      18.241   2.138  14.739  0.00  0.00    -0.296 OA
ATOM      3  C5  SGN d 304      16.332   6.151  12.535  0.00  0.00     0.091 C 
ATOM      4  O5S SGN d 304      15.811   7.118   8.602  0.00  0.00    -0.572 OA
ATOM      5  O3  SGN d 304      19.197   6.841  14.862  0.00  0.00    -0.391 OA
ATOM      6  C3  SGN d 304      17.910   6.391  14.482  0.00  0.00     0.083 C 
ATOM      7  O4  SGN d 304      17.857   8.084  12.721  0.00  0.00    -0.348 OA
ATOM      8  O5  SGN d 304      16.200   4.769  12.806  0.00  0.00    -0.349 OA
ATOM      9  C4  SGN d 304      17.724   6.656  12.980  0.00  0.00     0.095 C 
ATOM     10  O4S SGN d 304      13.633   5.871   8.467  0.00  0.00    -0.572 OA
ATOM     11  O6S SGN d 304      15.745   4.760   8.296  0.00  0.00    -0.572 OA
ATOM     12  O6  SGN d 304      14.961   5.836  10.457  0.00  0.00    -0.254 OA
ATOM     13  C6  SGN d 304      16.195   6.300  10.984  0.00  0.00     0.067 C 
ATOM     14  C2  SGN d 304      17.823   4.841  14.573  0.00  0.00     0.081 C 
ATOM     15  O3S SGN d 304      20.297   3.363  15.137  0.00  0.00    -0.296 OA
ATOM     16  C1  SGN d 304      16.406   4.394  14.212  0.00  0.00     0.150 C 
ATOM     17  O1S SGN d 304      19.181   2.495  17.087  0.00  0.00    -0.296 OA
ATOM     18  S1  SGN d 304      18.947   2.957  15.750  0.00  0.00     0.156 S 
ATOM     19  S2  SGN d 304      15.002   5.959   8.894  0.00  0.00     0.251 S 
ATOM     20  H   SGN d 304      17.176   4.143  16.344  0.00  0.00     0.140 HD
ATOM     21  H   SGN d 304      18.186   2.629  13.905  0.00  0.00     0.231 HD
ATOM     22  H   SGN d 304      15.594   6.720  13.061  0.00  0.00     0.090 H 
ATOM     23  H   SGN d 304      19.329   6.681  15.809  0.00  0.00     0.210 HD
ATOM     24  H   SGN d 304      17.198   6.882  15.113  0.00  0.00     0.089 H 
ATOM     25  H   SGN d 304      18.473   6.133  12.423  0.00  0.00     0.091 H 
ATOM     26  H   SGN d 304      16.986   5.746  10.523  0.00  0.00     0.080 H 
ATOM     27  H   SGN d 304      16.242   7.348  10.773  0.00  0.00     0.080 H 
ATOM     28  H   SGN d 304      18.571   4.466  13.907  0.00  0.00     0.076 H 
ATOM     29  H   SGN d 304      20.158   3.679  14.230  0.00  0.00     0.231 HD
ATOM     30  H   SGN d 304      16.205   3.344  14.270  0.00  0.00     0.131 H 
ATOM     31  H   SGN d 304      18.339   2.233  17.491  0.00  0.00     0.231 HD
ATOM     32  O6S SGN d 306      11.811  10.074  18.796  0.00  0.00    -0.572 OA
ATOM     33  O5S SGN d 306      11.724   9.397  21.125  0.00  0.00    -0.572 OA
ATOM     34  O2S SGN d 306       7.584   4.441  14.687  0.00  0.00    -0.296 OA
ATOM     35  C1  SGN d 306       8.375   5.489  17.770  0.00  0.00     0.038 C 
ATOM     36  N   SGN d 306       8.157   3.325  16.780  0.00  0.00    -0.212 NA
ATOM     37  O3  SGN d 306      10.809   2.762  17.052  0.00  0.00    -0.391 OA
ATOM     38  S2  SGN d 306      10.884   9.639  19.951  0.00  0.00     0.251 S 
ATOM     39  C3  SGN d 306      10.224   3.836  17.800  0.00  0.00     0.081 C 
ATOM     40  O3S SGN d 306       9.292   2.707  14.554  0.00  0.00    -0.296 OA
ATOM     41  O4S SGN d 306       9.756  10.537  19.980  0.00  0.00    -0.572 OA
ATOM     42  O5  SGN d 306       9.282   6.572  18.017  0.00  0.00    -0.379 OA
ATOM     43  S1  SGN d 306       7.911   3.080  15.183  0.00  0.00     0.156 S 
ATOM     44  O6  SGN d 306      10.283   8.267  19.649  0.00  0.00    -0.254 OA
ATOM     45  C2  SGN d 306       9.071   4.373  17.024  0.00  0.00     0.054 C 
ATOM     46  C5  SGN d 306      10.432   6.122  18.767  0.00  0.00     0.087 C 
ATOM     47  C6  SGN d 306      11.249   7.388  18.998  0.00  0.00     0.067 C 
ATOM     48  O1S SGN d 306       6.968   1.954  15.099  0.00  0.00    -0.296 OA
ATOM     49  O4  SGN d 306      12.406   4.485  18.742  0.00  0.00    -0.348 OA
ATOM     50  C4  SGN d 306      11.207   4.996  18.002  0.00  0.00     0.095 C 
ATOM     51  H   SGN d 306       8.339   5.030  14.838  0.00  0.00     0.231 HD
ATOM     52  H   SGN d 306       8.012   5.114  18.705  0.00  0.00     0.077 H 
ATOM     53  H   SGN d 306       7.562   5.848  17.175  0.00  0.00     0.077 H 
ATOM     54  H   SGN d 306       7.266   3.557  17.218  0.00  0.00     0.140 HD
ATOM     55  H   SGN d 306      10.157   2.050  16.946  0.00  0.00     0.210 HD
ATOM     56  H   SGN d 306       9.935   3.449  18.755  0.00  0.00     0.089 H 
ATOM     57  H   SGN d 306       9.894   3.465  14.622  0.00  0.00     0.231 HD
ATOM     58  H   SGN d 306       9.436   4.773  16.102  0.00  0.00     0.072 H 
ATOM     59  H   SGN d 306      10.176   5.660  19.698  0.00  0.00     0.090 H 
ATOM     60  H   SGN d 306      12.088   7.196  19.633  0.00  0.00     0.080 H 
ATOM     61  H   SGN d 306      11.665   7.798  18.102  0.00  0.00     0.080 H 
ATOM     62  H   SGN d 306       6.121   2.212  15.496  0.00  0.00     0.231 HD
ATOM     63  H   SGN d 306      11.571   5.406  17.083  0.00  0.00     0.091 H 
ATOM     64  O6S SGN d 302      27.774  11.942  12.600  0.00  0.00    -0.572 OA
ATOM     65  O2S SGN d 302      19.843  13.420  10.577  0.00  0.00    -0.296 OA
ATOM     66  O5S SGN d 302      28.245   9.764  11.637  0.00  0.00    -0.572 OA
ATOM     67  C5  SGN d 302      24.473  10.746  10.193  0.00  0.00     0.091 C 
ATOM     68  O4  SGN d 302      25.599  10.696   8.041  0.00  0.00    -0.348 OA
ATOM     69  O3  SGN d 302      23.106  11.825   6.848  0.00  0.00    -0.391 OA
ATOM     70  C6  SGN d 302      25.867  10.815  10.846  0.00  0.00     0.067 C 
ATOM     71  S1  SGN d 302      19.744  13.378   9.142  0.00  0.00     0.156 S 
ATOM     72  N   SGN d 302      20.783  12.160   8.582  0.00  0.00    -0.210 NA
ATOM     73  O4S SGN d 302      27.387  10.084  14.019  0.00  0.00    -0.572 OA
ATOM     74  O6  SGN d 302      25.926  10.251  12.131  0.00  0.00    -0.254 OA
ATOM     75  O5  SGN d 302      23.488  11.456  11.042  0.00  0.00    -0.349 OA
ATOM     76  C4  SGN d 302      24.545  11.380   8.802  0.00  0.00     0.095 C 
ATOM     77  S2  SGN d 302      27.400  10.450  12.631  0.00  0.00     0.251 S 
ATOM     78  C1  SGN d 302      22.113  11.567  10.481  0.00  0.00     0.150 C 
ATOM     79  C2  SGN d 302      22.167  12.106   9.047  0.00  0.00     0.081 C 
ATOM     80  O1S SGN d 302      18.500  13.095   8.479  0.00  0.00    -0.296 OA
ATOM     81  C3  SGN d 302      23.114  11.267   8.157  0.00  0.00     0.083 C 
ATOM     82  O3S SGN d 302      20.233  14.757   8.728  0.00  0.00    -0.296 OA
ATOM     83  H   SGN d 302      19.550  12.572  10.946  0.00  0.00     0.231 HD
ATOM     84  H   SGN d 302      24.162   9.726  10.099  0.00  0.00     0.090 H 
ATOM     85  H   SGN d 302      23.696  11.311   6.274  0.00  0.00     0.210 HD
ATOM     86  H   SGN d 302      26.154  11.843  10.916  0.00  0.00     0.080 H 
ATOM     87  H   SGN d 302      26.526  10.243  10.227  0.00  0.00     0.080 H 
ATOM     88  H   SGN d 302      20.817  12.247   7.566  0.00  0.00     0.140 HD
ATOM     89  H   SGN d 302      24.805  12.418   8.823  0.00  0.00     0.091 H 
ATOM     90  H   SGN d 302      21.620  12.251  11.139  0.00  0.00     0.131 H 
ATOM     91  H   SGN d 302      22.591  13.087   8.999  0.00  0.00     0.076 H 
ATOM     92  H   SGN d 302      18.187  12.215   8.743  0.00  0.00     0.231 HD
ATOM     93  H   SGN d 302      22.816  10.241   8.091  0.00  0.00     0.089 H 
ATOM     94  H   SGN d 302      21.072  14.951   9.175  0.00  0.00     0.231 HD
ATOM     95  O5  IDS d 303      19.725   7.997  11.134  0.00  0.00    -0.340 OA
ATOM     96  O2S IDS d 303      15.767   9.495   9.938  0.00  0.00    -0.572 OA
ATOM     97  O4  IDS d 303      21.309  10.377  10.520  0.00  0.00    -0.348 OA
ATOM     98  O1S IDS d 303      16.694  10.440   7.803  0.00  0.00    -0.572 OA
ATOM     99  C4  IDS d 303      20.781  10.120  11.823  0.00  0.00     0.103 C 
ATOM    100  S   IDS d 303      16.629  10.414   9.222  0.00  0.00     0.252 S 
ATOM    101  O2  IDS d 303      18.143  10.125   9.747  0.00  0.00    -0.244 OA
ATOM    102  O3  IDS d 303      19.088  10.432  13.476  0.00  0.00    -0.390 OA
ATOM    103  O61 IDS d 303      22.392   7.251  10.763  0.00  0.00    -0.646 OA
ATOM    104  C2  IDS d 303      18.173   9.977  11.238  0.00  0.00     0.134 C 
ATOM    105  C1  IDS d 303      18.339   8.462  11.430  0.00  0.00     0.161 C 
ATOM    106  O3S IDS d 303      16.184  11.821   9.642  0.00  0.00    -0.572 OA
ATOM    107  C3  IDS d 303      19.350  10.714  12.090  0.00  0.00     0.094 C 
ATOM    108  C5  IDS d 303      20.761   8.596  12.007  0.00  0.00     0.152 C 
ATOM    109  O62 IDS d 303      23.244   8.532  12.353  0.00  0.00    -0.646 OA
ATOM    110  C6  IDS d 303      22.196   8.066  11.667  0.00  0.00     0.206 C 
ATOM    111  H   IDS d 303      21.411  10.616  12.532  0.00  0.00     0.092 H 
ATOM    112  H   IDS d 303      19.768  10.853  14.025  0.00  0.00     0.210 HD
ATOM    113  H   IDS d 303      17.291  10.451  11.617  0.00  0.00     0.097 H 
ATOM    114  H   IDS d 303      17.736   7.951  10.708  0.00  0.00     0.133 H 
ATOM    115  H   IDS d 303      19.344  11.748  11.816  0.00  0.00     0.091 H 
ATOM    116  H   IDS d 303      20.514   8.325  13.012  0.00  0.00     0.104 H 
ATOM    117  C1  UAP d 301      25.566   9.360   7.575  0.00  0.00     0.167 C 
ATOM    118  C5  UAP d 301      25.427   8.173   5.518  0.00  0.00     0.147 C 
ATOM    119  O61 UAP d 301      24.793   7.056   3.480  0.00  0.00    -0.642 OA
ATOM    120  C2  UAP d 301      27.037   8.772   7.766  0.00  0.00     0.135 C 
ATOM    121  O62 UAP d 301      23.902   9.104   3.778  0.00  0.00    -0.642 OA
ATOM    122  O3  UAP d 301      26.339   6.451   8.312  0.00  0.00    -0.389 OA
ATOM    123  O5  UAP d 301      25.207   9.349   6.172  0.00  0.00    -0.311 OA
ATOM    124  C6  UAP d 301      24.693   8.060   4.196  0.00  0.00     0.233 C 
ATOM    125  O2  UAP d 301      28.064   9.518   6.939  0.00  0.00    -0.244 OA
ATOM    126  C3  UAP d 301      26.995   7.257   7.298  0.00  0.00     0.086 C 
ATOM    127  O2S UAP d 301      28.091  11.283   8.651  0.00  0.00    -0.572 OA
ATOM    128  C4  UAP d 301      26.220   7.154   5.954  0.00  0.00    -0.034 C 
ATOM    129  O3S UAP d 301      29.831   9.569   8.850  0.00  0.00    -0.572 OA
ATOM    130  O1S UAP d 301      30.000  11.105   6.975  0.00  0.00    -0.572 OA
ATOM    131  S   UAP d 301      29.025  10.460   7.853  0.00  0.00     0.252 S 
ATOM    132  H   UAP d 301      24.848   8.776   8.111  0.00  0.00     0.134 H 
ATOM    133  H   UAP d 301      27.325   8.872   8.792  0.00  0.00     0.097 H 
ATOM    134  H   UAP d 301      26.828   6.521   9.147  0.00  0.00     0.210 HD
ATOM    135  H   UAP d 301      27.993   6.897   7.158  0.00  0.00     0.093 H 
ATOM    136  H   UAP d 301      26.308   6.299   5.382  0.00  0.00     0.085 H 
ATOM    137  C5  IDS d 305      13.296   5.538  16.113  0.00  0.00     0.152 C 
ATOM    138  O2  IDS d 305      16.099   4.308  18.098  0.00  0.00    -0.244 OA
ATOM    139  C6  IDS d 305      13.204   6.701  15.147  0.00  0.00     0.206 C 
ATOM    140  O61 IDS d 305      13.534   7.841  15.495  0.00  0.00    -0.646 OA
ATOM    141  O2S IDS d 305      15.946   4.243  20.552  0.00  0.00    -0.572 OA
ATOM    142  O62 IDS d 305      12.736   6.470  13.911  0.00  0.00    -0.646 OA
ATOM    143  O5  IDS d 305      13.799   6.020  17.412  0.00  0.00    -0.340 OA
ATOM    144  C3  IDS d 305      14.369   3.237  16.595  0.00  0.00     0.094 C 
ATOM    145  O4  IDS d 305      15.516   5.072  15.208  0.00  0.00    -0.348 OA
ATOM    146  O1S IDS d 305      18.157   4.374  19.416  0.00  0.00    -0.572 OA
ATOM    147  C2  IDS d 305      14.744   3.772  18.043  0.00  0.00     0.134 C 
ATOM    148  C1  IDS d 305      13.784   4.950  18.431  0.00  0.00     0.161 C 
ATOM    149  C4  IDS d 305      14.250   4.434  15.530  0.00  0.00     0.103 C 
ATOM    150  O3  IDS d 305      13.082   2.664  16.719  0.00  0.00    -0.390 OA
ATOM    151  S   IDS d 305      16.817   3.845  19.456  0.00  0.00     0.252 S 
ATOM    152  O3S IDS d 305      16.891   2.302  19.442  0.00  0.00    -0.572 OA
ATOM    153  H   IDS d 305      12.326   5.109  16.253  0.00  0.00     0.104 H 
ATOM    154  H   IDS d 305      15.123   2.556  16.257  0.00  0.00     0.091 H 
ATOM    155  H   IDS d 305      14.658   2.939  18.709  0.00  0.00     0.097 H 
ATOM    156  H   IDS d 305      14.162   5.372  19.338  0.00  0.00     0.133 H 
ATOM    157  H   IDS d 305      13.875   3.993  14.630  0.00  0.00     0.092 H 
ATOM    158  H   IDS d 305      12.458   3.338  17.028  0.00  0.00     0.210 HD
ENDROOT
TORSDOF 49
ENDMDL
MODEL 27
REMARK VINA RESULT:      -7.1      3.628      7.071
REMARK  0 active torsions:
REMARK  status: ('A' for Active; 'I' for Inactive)
REMARK       I    between atoms: N_1  and  C2_65 
REMARK       I    between atoms: N_1  and  S1_100 
REMARK       I    between atoms: O2S_4  and  S1_36 
REMARK       I    between atoms: O2S_5  and  S1_100 
REMARK       I    between atoms: C5_7  and  C6_64 
REMARK       I    between atoms: O3_11  and  C3_17 
REMARK       I    between atoms: C1_12  and  O4_28 
REMARK       I    between atoms: C5_13  and  C6_35 
REMARK       I    between atoms: C5_14  and  C6_52 
REMARK       I    between atoms: O2S_16  and  S1_75 
REMARK       I    between atoms: C2_18  and  O2_63 
REMARK       I    between atoms: C5_19  and  C6_22 
REMARK       I    between atoms: O2_20  and  C2_53 
REMARK       I    between atoms: O2_20  and  S_86 
REMARK       I    between atoms: O4_21  and  C1_67 
REMARK       I    between atoms: O4_21  and  C4_48 
REMARK       I    between atoms: O3_26  and  C3_72 
REMARK       I    between atoms: O4_28  and  C4_71 
REMARK       I    between atoms: O3_30  and  C3_94 
REMARK       I    between atoms: N_33  and  C2_82 
REMARK       I    between atoms: N_33  and  S1_75 
REMARK       I    between atoms: C6_35  and  O6_59 
REMARK       I    between atoms: S1_36  and  N_37 
REMARK       I    between atoms: S1_36  and  O1S_89 
REMARK       I    between atoms: S1_36  and  O3S_97 
REMARK       I    between atoms: N_37  and  C2_78 
REMARK       I    between atoms: C3_38  and  O3_81 
REMARK       I    between atoms: O4_39  and  C1_85 
REMARK       I    between atoms: O4_39  and  C4_69 
REMARK       I    between atoms: O3_40  and  C3_47 
REMARK       I    between atoms: O4_41  and  C1_76 
REMARK       I    between atoms: O4_41  and  C4_43 
REMARK       I    between atoms: S2_44  and  O6_80 
REMARK       I    between atoms: S_46  and  O2_57 
REMARK       I    between atoms: O3S_49  and  S1_75 
REMARK       I    between atoms: C1_54  and  O4_96 
REMARK       I    between atoms: O2_57  and  C2_66 
REMARK       I    between atoms: O6_58  and  C6_64 
REMARK       I    between atoms: O6_58  and  S2_101 
REMARK       I    between atoms: O6_59  and  S2_73 
REMARK       I    between atoms: O3_61  and  C3_77 
REMARK       I    between atoms: O2_63  and  S_104 
REMARK       I    between atoms: S1_75  and  O1S_92 
REMARK       I    between atoms: O6_80  and  C6_88 
REMARK       I    between atoms: C5_83  and  C6_88 
REMARK       I    between atoms: O3S_84  and  S1_100 
REMARK       I    between atoms: C5_87  and  C6_103 
REMARK       I    between atoms: O1S_91  and  S1_100 
REMARK       I    between atoms: O4_96  and  C4_99 
ROOT
ATOM      1  N   SGN d 304      19.330  11.891   8.750  0.00  0.00    -0.210 NA
ATOM      2  O2S SGN d 304      18.037  11.013   6.812  0.00  0.00    -0.296 OA
ATOM      3  C5  SGN d 304      21.203   8.213   9.409  0.00  0.00     0.091 C 
ATOM      4  O5S SGN d 304      21.551   4.167   9.839  0.00  0.00    -0.572 OA
ATOM      5  O3  SGN d 304      19.294  10.730  11.438  0.00  0.00    -0.391 OA
ATOM      6  C3  SGN d 304      20.181  10.272  10.434  0.00  0.00     0.083 C 
ATOM      7  O4  SGN d 304      20.736   8.345  11.831  0.00  0.00    -0.348 OA
ATOM      8  O5  SGN d 304      20.744   8.614   8.133  0.00  0.00    -0.349 OA
ATOM      9  C4  SGN d 304      20.256   8.740  10.512  0.00  0.00     0.095 C 
ATOM     10  O4S SGN d 304      22.907   3.946   7.735  0.00  0.00    -0.572 OA
ATOM     11  O6S SGN d 304      20.521   4.109   7.696  0.00  0.00    -0.572 OA
ATOM     12  O6  SGN d 304      21.991   6.052   8.405  0.00  0.00    -0.254 OA
ATOM     13  C6  SGN d 304      21.176   6.649   9.404  0.00  0.00     0.067 C 
ATOM     14  C2  SGN d 304      19.583  10.519   9.021  0.00  0.00     0.081 C 
ATOM     15  O3S SGN d 304      16.815  11.483   8.854  0.00  0.00    -0.296 OA
ATOM     16  C1  SGN d 304      20.589  10.066   7.962  0.00  0.00     0.150 C 
ATOM     17  O1S SGN d 304      17.687  13.392   7.673  0.00  0.00    -0.296 OA
ATOM     18  S1  SGN d 304      17.915  11.997   7.912  0.00  0.00     0.156 S 
ATOM     19  S2  SGN d 304      21.793   4.498   8.456  0.00  0.00     0.251 S 
ATOM     20  H   SGN d 304      20.091  12.279   8.193  0.00  0.00     0.140 HD
ATOM     21  H   SGN d 304      18.189  10.130   7.184  0.00  0.00     0.231 HD
ATOM     22  H   SGN d 304      22.182   8.598   9.607  0.00  0.00     0.090 H 
ATOM     23  H   SGN d 304      19.236  11.697  11.402  0.00  0.00     0.210 HD
ATOM     24  H   SGN d 304      21.116  10.772  10.580  0.00  0.00     0.089 H 
ATOM     25  H   SGN d 304      19.284   8.321  10.358  0.00  0.00     0.091 H 
ATOM     26  H   SGN d 304      20.166   6.332   9.246  0.00  0.00     0.080 H 
ATOM     27  H   SGN d 304      21.570   6.333  10.347  0.00  0.00     0.080 H 
ATOM     28  H   SGN d 304      18.662   9.976   8.993  0.00  0.00     0.076 H 
ATOM     29  H   SGN d 304      16.952  10.539   9.028  0.00  0.00     0.231 HD
ATOM     30  H   SGN d 304      20.310  10.215   6.940  0.00  0.00     0.131 H 
ATOM     31  H   SGN d 304      18.373  13.735   7.078  0.00  0.00     0.231 HD
ATOM     32  O6S SGN d 306      27.811  13.533  11.160  0.00  0.00    -0.572 OA
ATOM     33  O5S SGN d 306      27.909  15.899  10.634  0.00  0.00    -0.572 OA
ATOM     34  O2S SGN d 306      28.489   9.641   4.027  0.00  0.00    -0.296 OA
ATOM     35  C1  SGN d 306      28.678  12.659   5.471  0.00  0.00     0.038 C 
ATOM     36  N   SGN d 306      27.775  11.888   3.397  0.00  0.00    -0.212 NA
ATOM     37  O3  SGN d 306      25.215  12.484   4.112  0.00  0.00    -0.391 OA
ATOM     38  S2  SGN d 306      28.598  14.628  10.410  0.00  0.00     0.251 S 
ATOM     39  C3  SGN d 306      26.312  13.050   4.840  0.00  0.00     0.081 C 
ATOM     40  O3S SGN d 306      26.189   9.866   3.252  0.00  0.00    -0.296 OA
ATOM     41  O4S SGN d 306      30.000  14.447  10.699  0.00  0.00    -0.572 OA
ATOM     42  O5  SGN d 306      28.390  12.879   6.859  0.00  0.00    -0.379 OA
ATOM     43  S1  SGN d 306      27.664  10.309   2.989  0.00  0.00     0.156 S 
ATOM     44  O6  SGN d 306      28.481  14.414   8.901  0.00  0.00    -0.254 OA
ATOM     45  C2  SGN d 306      27.465  12.109   4.757  0.00  0.00     0.054 C 
ATOM     46  C5  SGN d 306      27.275  13.785   7.016  0.00  0.00     0.087 C 
ATOM     47  C6  SGN d 306      27.145  13.961   8.525  0.00  0.00     0.067 C 
ATOM     48  O1S SGN d 306      27.988  10.251   1.556  0.00  0.00    -0.296 OA
ATOM     49  O4  SGN d 306      24.798  14.134   6.453  0.00  0.00    -0.348 OA
ATOM     50  C4  SGN d 306      25.984  13.227   6.328  0.00  0.00     0.095 C 
ATOM     51  H   SGN d 306      28.102   9.803   4.902  0.00  0.00     0.231 HD
ATOM     52  H   SGN d 306      28.963  13.586   5.019  0.00  0.00     0.077 H 
ATOM     53  H   SGN d 306      29.476  11.950   5.393  0.00  0.00     0.077 H 
ATOM     54  H   SGN d 306      28.728  12.206   3.222  0.00  0.00     0.140 HD
ATOM     55  H   SGN d 306      25.461  12.389   3.178  0.00  0.00     0.210 HD
ATOM     56  H   SGN d 306      26.529  14.007   4.412  0.00  0.00     0.089 H 
ATOM     57  H   SGN d 306      26.001   9.913   4.203  0.00  0.00     0.231 HD
ATOM     58  H   SGN d 306      27.191  11.192   5.233  0.00  0.00     0.072 H 
ATOM     59  H   SGN d 306      27.426  14.729   6.536  0.00  0.00     0.090 H 
ATOM     60  H   SGN d 306      26.405  14.694   8.766  0.00  0.00     0.080 H 
ATOM     61  H   SGN d 306      26.835  13.073   9.035  0.00  0.00     0.080 H 
ATOM     62  H   SGN d 306      28.908  10.530   1.421  0.00  0.00     0.231 HD
ATOM     63  H   SGN d 306      25.717  12.311   6.812  0.00  0.00     0.091 H 
ATOM     64  O6S SGN d 302      13.648   8.817  19.754  0.00  0.00    -0.572 OA
ATOM     65  O2S SGN d 302      21.047   5.858  17.374  0.00  0.00    -0.296 OA
ATOM     66  O5S SGN d 302      12.132   8.143  17.982  0.00  0.00    -0.572 OA
ATOM     67  C5  SGN d 302      15.708   6.230  17.074  0.00  0.00     0.091 C 
ATOM     68  O4  SGN d 302      14.392   4.220  17.434  0.00  0.00    -0.348 OA
ATOM     69  O3  SGN d 302      16.935   2.668  17.249  0.00  0.00    -0.391 OA
ATOM     70  C6  SGN d 302      14.595   7.009  17.799  0.00  0.00     0.067 C 
ATOM     71  S1  SGN d 302      20.919   4.433  17.221  0.00  0.00     0.156 S 
ATOM     72  N   SGN d 302      19.381   4.113  16.580  0.00  0.00    -0.210 NA
ATOM     73  O4S SGN d 302      13.362  10.379  17.995  0.00  0.00    -0.572 OA
ATOM     74  O6  SGN d 302      14.470   8.345  17.388  0.00  0.00    -0.254 OA
ATOM     75  O5  SGN d 302      17.013   6.895  17.301  0.00  0.00    -0.349 OA
ATOM     76  C4  SGN d 302      15.734   4.793  17.602  0.00  0.00     0.095 C 
ATOM     77  S2  SGN d 302      13.322   8.968  18.259  0.00  0.00     0.251 S 
ATOM     78  C1  SGN d 302      18.202   6.188  16.749  0.00  0.00     0.150 C 
ATOM     79  C2  SGN d 302      18.196   4.718  17.182  0.00  0.00     0.081 C 
ATOM     80  O1S SGN d 302      21.803   3.681  16.372  0.00  0.00    -0.296 OA
ATOM     81  C3  SGN d 302      16.862   4.023  16.821  0.00  0.00     0.083 C 
ATOM     82  O3S SGN d 302      21.040   3.925  18.649  0.00  0.00    -0.296 OA
ATOM     83  H   SGN d 302      20.982   6.283  16.505  0.00  0.00     0.231 HD
ATOM     84  H   SGN d 302      15.519   6.213  16.021  0.00  0.00     0.090 H 
ATOM     85  H   SGN d 302      16.106   2.214  17.031  0.00  0.00     0.210 HD
ATOM     86  H   SGN d 302      14.806   6.998  18.848  0.00  0.00     0.080 H 
ATOM     87  H   SGN d 302      13.672   6.524  17.559  0.00  0.00     0.080 H 
ATOM     88  H   SGN d 302      19.249   3.102  16.622  0.00  0.00     0.140 HD
ATOM     89  H   SGN d 302      15.967   4.730  18.645  0.00  0.00     0.091 H 
ATOM     90  H   SGN d 302      19.033   6.717  17.166  0.00  0.00     0.131 H 
ATOM     91  H   SGN d 302      18.249   4.609  18.245  0.00  0.00     0.076 H 
ATOM     92  H   SGN d 302      21.727   4.004  15.460  0.00  0.00     0.231 HD
ATOM     93  H   SGN d 302      16.661   4.036  15.770  0.00  0.00     0.089 H 
ATOM     94  H   SGN d 302      20.445   4.431  19.224  0.00  0.00     0.231 HD
ATOM     95  O5  IDS d 303      18.824   6.973  12.522  0.00  0.00    -0.340 OA
ATOM     96  O2S IDS d 303      22.828   5.231  12.001  0.00  0.00    -0.572 OA
ATOM     97  O4  IDS d 303      18.392   6.273  15.327  0.00  0.00    -0.348 OA
ATOM     98  O1S IDS d 303      22.132   3.113  13.157  0.00  0.00    -0.572 OA
ATOM     99  C4  IDS d 303      18.925   7.535  14.924  0.00  0.00     0.103 C 
ATOM    100  S   IDS d 303      22.373   4.513  13.174  0.00  0.00     0.252 S 
ATOM    101  O2  IDS d 303      20.977   5.215  13.629  0.00  0.00    -0.244 OA
ATOM    102  O3  IDS d 303      20.791   8.966  14.515  0.00  0.00    -0.390 OA
ATOM    103  O61 IDS d 303      16.080   6.955  13.049  0.00  0.00    -0.646 OA
ATOM    104  C2  IDS d 303      21.091   6.709  13.585  0.00  0.00     0.134 C 
ATOM    105  C1  IDS d 303      20.298   7.076  12.321  0.00  0.00     0.161 C 
ATOM    106  O3S IDS d 303      23.450   4.733  14.245  0.00  0.00    -0.572 OA
ATOM    107  C3  IDS d 303      20.493   7.592  14.816  0.00  0.00     0.094 C 
ATOM    108  C5  IDS d 303      18.292   7.878  13.568  0.00  0.00     0.152 C 
ATOM    109  O62 IDS d 303      16.113   8.477  14.654  0.00  0.00    -0.646 OA
ATOM    110  C6  IDS d 303      16.740   7.743  13.730  0.00  0.00     0.206 C 
ATOM    111  H   IDS d 303      18.685   8.247  15.686  0.00  0.00     0.092 H 
ATOM    112  H   IDS d 303      20.452   9.534  15.226  0.00  0.00     0.210 HD
ATOM    113  H   IDS d 303      22.134   6.944  13.625  0.00  0.00     0.097 H 
ATOM    114  H   IDS d 303      20.506   6.356  11.558  0.00  0.00     0.133 H 
ATOM    115  H   IDS d 303      20.919   7.210  15.721  0.00  0.00     0.091 H 
ATOM    116  H   IDS d 303      18.530   8.876  13.264  0.00  0.00     0.104 H 
ATOM    117  C1  UAP d 301      13.765   3.898  16.207  0.00  0.00     0.167 C 
ATOM    118  C5  UAP d 301      13.077   1.975  14.986  0.00  0.00     0.147 C 
ATOM    119  O61 UAP d 301      12.862   0.014  13.604  0.00  0.00    -0.642 OA
ATOM    120  C2  UAP d 301      12.227   4.297  16.360  0.00  0.00     0.135 C 
ATOM    121  O62 UAP d 301      14.600   0.001  15.037  0.00  0.00    -0.642 OA
ATOM    122  O3  UAP d 301      11.891   5.014  14.005  0.00  0.00    -0.389 OA
ATOM    123  O5  UAP d 301      13.884   2.474  15.965  0.00  0.00    -0.311 OA
ATOM    124  C6  UAP d 301      13.495   0.605  14.488  0.00  0.00     0.233 C 
ATOM    125  O2  UAP d 301      11.534   3.503  17.449  0.00  0.00    -0.244 OA
ATOM    126  C3  UAP d 301      11.528   3.991  14.970  0.00  0.00     0.086 C 
ATOM    127  O2S UAP d 301      12.530   5.012  19.116  0.00  0.00    -0.572 OA
ATOM    128  C4  UAP d 301      11.983   2.595  14.460  0.00  0.00    -0.034 C 
ATOM    129  O3S UAP d 301      10.256   5.567  18.390  0.00  0.00    -0.572 OA
ATOM    130  O1S UAP d 301      10.529   3.566  19.741  0.00  0.00    -0.572 OA
ATOM    131  S   UAP d 301      11.227   4.405  18.768  0.00  0.00     0.252 S 
ATOM    132  H   UAP d 301      14.216   4.418  15.388  0.00  0.00     0.134 H 
ATOM    133  H   UAP d 301      12.158   5.330  16.631  0.00  0.00     0.097 H 
ATOM    134  H   UAP d 301      11.605   5.882  14.331  0.00  0.00     0.210 HD
ATOM    135  H   UAP d 301      10.465   3.992  15.095  0.00  0.00     0.093 H 
ATOM    136  H   UAP d 301      11.447   2.129  13.711  0.00  0.00     0.085 H 
ATOM    137  C5  IDS d 305      24.114  11.511   7.664  0.00  0.00     0.152 C 
ATOM    138  O2  IDS d 305      21.360  13.888   7.939  0.00  0.00    -0.244 OA
ATOM    139  C6  IDS d 305      24.578  10.423   8.609  0.00  0.00     0.206 C 
ATOM    140  O61 IDS d 305      24.839  10.679   9.791  0.00  0.00    -0.646 OA
ATOM    141  O2S IDS d 305      21.806  16.307   7.933  0.00  0.00    -0.572 OA
ATOM    142  O62 IDS d 305      24.719   9.178   8.131  0.00  0.00    -0.646 OA
ATOM    143  O5  IDS d 305      24.061  12.796   8.385  0.00  0.00    -0.340 OA
ATOM    144  C3  IDS d 305      22.209  12.341   6.127  0.00  0.00     0.094 C 
ATOM    145  O4  IDS d 305      21.816  10.890   8.211  0.00  0.00    -0.348 OA
ATOM    146  O1S IDS d 305      19.749  15.393   8.996  0.00  0.00    -0.572 OA
ATOM    147  C2  IDS d 305      22.314  13.754   6.844  0.00  0.00     0.134 C 
ATOM    148  C1  IDS d 305      23.741  13.916   7.476  0.00  0.00     0.161 C 
ATOM    149  C4  IDS d 305      22.699  11.149   7.085  0.00  0.00     0.103 C 
ATOM    150  O3  IDS d 305      23.112  12.395   5.040  0.00  0.00    -0.390 OA
ATOM    151  S   IDS d 305      20.706  15.353   7.919  0.00  0.00     0.252 S 
ATOM    152  O3S IDS d 305      19.954  15.512   6.579  0.00  0.00    -0.572 OA
ATOM    153  H   IDS d 305      24.802  11.597   6.850  0.00  0.00     0.104 H 
ATOM    154  H   IDS d 305      21.194  12.155   5.846  0.00  0.00     0.091 H 
ATOM    155  H   IDS d 305      22.113  14.493   6.097  0.00  0.00     0.097 H 
ATOM    156  H   IDS d 305      23.719  14.806   8.069  0.00  0.00     0.133 H 
ATOM    157  H   IDS d 305      22.711  10.267   6.479  0.00  0.00     0.092 H 
ATOM    158  H   IDS d 305      24.007  12.566   5.372  0.00  0.00     0.210 HD
ENDROOT
TORSDOF 49
ENDMDL
MODEL 28
REMARK VINA RESULT:      -7.1      5.557     15.761
REMARK  0 active torsions:
REMARK  status: ('A' for Active; 'I' for Inactive)
REMARK       I    between atoms: N_1  and  C2_65 
REMARK       I    between atoms: N_1  and  S1_100 
REMARK       I    between atoms: O2S_4  and  S1_36 
REMARK       I    between atoms: O2S_5  and  S1_100 
REMARK       I    between atoms: C5_7  and  C6_64 
REMARK       I    between atoms: O3_11  and  C3_17 
REMARK       I    between atoms: C1_12  and  O4_28 
REMARK       I    between atoms: C5_13  and  C6_35 
REMARK       I    between atoms: C5_14  and  C6_52 
REMARK       I    between atoms: O2S_16  and  S1_75 
REMARK       I    between atoms: C2_18  and  O2_63 
REMARK       I    between atoms: C5_19  and  C6_22 
REMARK       I    between atoms: O2_20  and  C2_53 
REMARK       I    between atoms: O2_20  and  S_86 
REMARK       I    between atoms: O4_21  and  C1_67 
REMARK       I    between atoms: O4_21  and  C4_48 
REMARK       I    between atoms: O3_26  and  C3_72 
REMARK       I    between atoms: O4_28  and  C4_71 
REMARK       I    between atoms: O3_30  and  C3_94 
REMARK       I    between atoms: N_33  and  C2_82 
REMARK       I    between atoms: N_33  and  S1_75 
REMARK       I    between atoms: C6_35  and  O6_59 
REMARK       I    between atoms: S1_36  and  N_37 
REMARK       I    between atoms: S1_36  and  O1S_89 
REMARK       I    between atoms: S1_36  and  O3S_97 
REMARK       I    between atoms: N_37  and  C2_78 
REMARK       I    between atoms: C3_38  and  O3_81 
REMARK       I    between atoms: O4_39  and  C1_85 
REMARK       I    between atoms: O4_39  and  C4_69 
REMARK       I    between atoms: O3_40  and  C3_47 
REMARK       I    between atoms: O4_41  and  C1_76 
REMARK       I    between atoms: O4_41  and  C4_43 
REMARK       I    between atoms: S2_44  and  O6_80 
REMARK       I    between atoms: S_46  and  O2_57 
REMARK       I    between atoms: O3S_49  and  S1_75 
REMARK       I    between atoms: C1_54  and  O4_96 
REMARK       I    between atoms: O2_57  and  C2_66 
REMARK       I    between atoms: O6_58  and  C6_64 
REMARK       I    between atoms: O6_58  and  S2_101 
REMARK       I    between atoms: O6_59  and  S2_73 
REMARK       I    between atoms: O3_61  and  C3_77 
REMARK       I    between atoms: O2_63  and  S_104 
REMARK       I    between atoms: S1_75  and  O1S_92 
REMARK       I    between atoms: O6_80  and  C6_88 
REMARK       I    between atoms: C5_83  and  C6_88 
REMARK       I    between atoms: O3S_84  and  S1_100 
REMARK       I    between atoms: C5_87  and  C6_103 
REMARK       I    between atoms: O1S_91  and  S1_100 
REMARK       I    between atoms: O4_96  and  C4_99 
ROOT
ATOM      1  N   SGN d 304      25.029   7.755   5.901  0.00  0.00    -0.210 NA
ATOM      2  O2S SGN d 304      23.514   7.160   4.017  0.00  0.00    -0.296 OA
ATOM      3  C5  SGN d 304      22.010   9.816   7.928  0.00  0.00     0.091 C 
ATOM      4  O5S SGN d 304      18.861  12.363   8.450  0.00  0.00    -0.572 OA
ATOM      5  O3  SGN d 304      25.537  10.484   6.830  0.00  0.00    -0.391 OA
ATOM      6  C3  SGN d 304      24.448   9.719   7.311  0.00  0.00     0.083 C 
ATOM      7  O4  SGN d 304      23.517  11.727   8.344  0.00  0.00    -0.348 OA
ATOM      8  O5  SGN d 304      21.738   8.746   7.043  0.00  0.00    -0.349 OA
ATOM      9  C4  SGN d 304      23.221  10.635   7.425  0.00  0.00     0.095 C 
ATOM     10  O4S SGN d 304      17.281  10.482   8.978  0.00  0.00    -0.572 OA
ATOM     11  O6S SGN d 304      17.856  11.063   6.730  0.00  0.00    -0.572 OA
ATOM     12  O6  SGN d 304      19.545  10.055   8.334  0.00  0.00    -0.254 OA
ATOM     13  C6  SGN d 304      20.731  10.717   7.918  0.00  0.00     0.067 C 
ATOM     14  C2  SGN d 304      24.003   8.674   6.249  0.00  0.00     0.081 C 
ATOM     15  O3S SGN d 304      25.240   8.811   3.590  0.00  0.00    -0.296 OA
ATOM     16  C1  SGN d 304      22.865   7.828   6.821  0.00  0.00     0.150 C 
ATOM     17  O1S SGN d 304      25.996   6.555   3.967  0.00  0.00    -0.296 OA
ATOM     18  S1  SGN d 304      24.938   7.471   4.280  0.00  0.00     0.156 S 
ATOM     19  S2  SGN d 304      18.338  11.045   8.184  0.00  0.00     0.251 S 
ATOM     20  H   SGN d 304      24.899   6.882   6.412  0.00  0.00     0.140 HD
ATOM     21  H   SGN d 304      22.963   7.905   4.300  0.00  0.00     0.231 HD
ATOM     22  H   SGN d 304      22.242   9.457   8.909  0.00  0.00     0.090 H 
ATOM     23  H   SGN d 304      26.321   9.919   6.752  0.00  0.00     0.210 HD
ATOM     24  H   SGN d 304      24.755   9.267   8.231  0.00  0.00     0.089 H 
ATOM     25  H   SGN d 304      22.983  11.045   6.466  0.00  0.00     0.091 H 
ATOM     26  H   SGN d 304      20.582  11.077   6.921  0.00  0.00     0.080 H 
ATOM     27  H   SGN d 304      20.906  11.502   8.623  0.00  0.00     0.080 H 
ATOM     28  H   SGN d 304      23.721   9.236   5.384  0.00  0.00     0.076 H 
ATOM     29  H   SGN d 304      24.534   9.445   3.790  0.00  0.00     0.231 HD
ATOM     30  H   SGN d 304      22.489   7.044   6.197  0.00  0.00     0.131 H 
ATOM     31  H   SGN d 304      25.822   5.702   4.395  0.00  0.00     0.231 HD
ATOM     32  O6S SGN d 306      26.029   6.149  14.668  0.00  0.00    -0.572 OA
ATOM     33  O5S SGN d 306      27.664   4.360  14.548  0.00  0.00    -0.572 OA
ATOM     34  O2S SGN d 306      18.858   2.734  12.827  0.00  0.00    -0.296 OA
ATOM     35  C1  SGN d 306      22.072   2.049  13.480  0.00  0.00     0.038 C 
ATOM     36  N   SGN d 306      20.496   1.174  11.911  0.00  0.00    -0.212 NA
ATOM     37  O3  SGN d 306      21.867   2.134   9.762  0.00  0.00    -0.391 OA
ATOM     38  S2  SGN d 306      26.368   4.716  15.128  0.00  0.00     0.251 S 
ATOM     39  C3  SGN d 306      22.511   2.041  11.039  0.00  0.00     0.081 C 
ATOM     40  O3S SGN d 306      19.070   2.691  10.398  0.00  0.00    -0.296 OA
ATOM     41  O4S SGN d 306      26.104   4.626  16.543  0.00  0.00    -0.572 OA
ATOM     42  O5  SGN d 306      23.058   3.068  13.698  0.00  0.00    -0.379 OA
ATOM     43  S1  SGN d 306      19.005   1.801  11.680  0.00  0.00     0.156 S 
ATOM     44  O6  SGN d 306      25.401   3.720  14.487  0.00  0.00    -0.254 OA
ATOM     45  C2  SGN d 306      21.472   2.177  12.099  0.00  0.00     0.054 C 
ATOM     46  C5  SGN d 306      24.101   2.998  12.701  0.00  0.00     0.087 C 
ATOM     47  C6  SGN d 306      25.086   4.087  13.110  0.00  0.00     0.067 C 
ATOM     48  O1S SGN d 306      18.120   0.644  11.478  0.00  0.00    -0.296 OA
ATOM     49  O4  SGN d 306      24.564   3.099  10.180  0.00  0.00    -0.348 OA
ATOM     50  C4  SGN d 306      23.524   3.173  11.256  0.00  0.00     0.095 C 
ATOM     51  H   SGN d 306      19.538   3.423  12.772  0.00  0.00     0.231 HD
ATOM     52  H   SGN d 306      22.533   1.088  13.576  0.00  0.00     0.077 H 
ATOM     53  H   SGN d 306      21.295   2.161  14.207  0.00  0.00     0.077 H 
ATOM     54  H   SGN d 306      20.477   0.576  12.737  0.00  0.00     0.140 HD
ATOM     55  H   SGN d 306      21.238   1.402   9.664  0.00  0.00     0.210 HD
ATOM     56  H   SGN d 306      23.022   1.101  11.080  0.00  0.00     0.089 H 
ATOM     57  H   SGN d 306      19.659   3.446  10.558  0.00  0.00     0.231 HD
ATOM     58  H   SGN d 306      21.031   3.148  12.021  0.00  0.00     0.072 H 
ATOM     59  H   SGN d 306      24.586   2.044  12.662  0.00  0.00     0.090 H 
ATOM     60  H   SGN d 306      25.960   4.070  12.494  0.00  0.00     0.080 H 
ATOM     61  H   SGN d 306      24.695   5.078  13.009  0.00  0.00     0.080 H 
ATOM     62  H   SGN d 306      18.097   0.109  12.288  0.00  0.00     0.231 HD
ATOM     63  H   SGN d 306      23.087   4.148  11.187  0.00  0.00     0.091 H 
ATOM     64  O6S SGN d 302      29.558  19.602   4.507  0.00  0.00    -0.572 OA
ATOM     65  O2S SGN d 302      24.413  17.297  10.621  0.00  0.00    -0.296 OA
ATOM     66  O5S SGN d 302      28.343  19.083   2.471  0.00  0.00    -0.572 OA
ATOM     67  C5  SGN d 302      25.592  18.431   5.516  0.00  0.00     0.091 C 
ATOM     68  O4  SGN d 302      24.396  20.248   4.435  0.00  0.00    -0.348 OA
ATOM     69  O3  SGN d 302      22.532  20.247   6.766  0.00  0.00    -0.391 OA
ATOM     70  C6  SGN d 302      26.838  18.867   4.722  0.00  0.00     0.067 C 
ATOM     71  S1  SGN d 302      23.188  18.036  10.462  0.00  0.00     0.156 S 
ATOM     72  N   SGN d 302      22.879  18.184   8.801  0.00  0.00    -0.210 NA
ATOM     73  O4S SGN d 302      29.943  17.447   3.600  0.00  0.00    -0.572 OA
ATOM     74  O6  SGN d 302      27.735  17.823   4.445  0.00  0.00    -0.254 OA
ATOM     75  O5  SGN d 302      26.006  17.838   6.810  0.00  0.00    -0.349 OA
ATOM     76  C4  SGN d 302      24.696  19.651   5.743  0.00  0.00     0.095 C 
ATOM     77  S2  SGN d 302      28.938  18.470   3.671  0.00  0.00     0.251 S 
ATOM     78  C1  SGN d 302      24.899  17.470   7.735  0.00  0.00     0.150 C 
ATOM     79  C2  SGN d 302      23.930  18.647   7.898  0.00  0.00     0.081 C 
ATOM     80  O1S SGN d 302      21.942  17.557  10.998  0.00  0.00    -0.296 OA
ATOM     81  C3  SGN d 302      23.424  19.164   6.531  0.00  0.00     0.083 C 
ATOM     82  O3S SGN d 302      23.520  19.382  11.086  0.00  0.00    -0.296 OA
ATOM     83  H   SGN d 302      24.305  16.408  10.248  0.00  0.00     0.231 HD
ATOM     84  H   SGN d 302      25.047  17.692   4.967  0.00  0.00     0.090 H 
ATOM     85  H   SGN d 302      22.203  20.585   5.918  0.00  0.00     0.210 HD
ATOM     86  H   SGN d 302      27.355  19.612   5.290  0.00  0.00     0.080 H 
ATOM     87  H   SGN d 302      26.490  19.234   3.779  0.00  0.00     0.080 H 
ATOM     88  H   SGN d 302      22.100  18.835   8.704  0.00  0.00     0.140 HD
ATOM     89  H   SGN d 302      25.162  20.416   6.330  0.00  0.00     0.091 H 
ATOM     90  H   SGN d 302      25.396  17.240   8.654  0.00  0.00     0.131 H 
ATOM     91  H   SGN d 302      24.404  19.506   8.325  0.00  0.00     0.076 H 
ATOM     92  H   SGN d 302      21.729  16.698  10.601  0.00  0.00     0.231 HD
ATOM     93  H   SGN d 302      22.907  18.412   5.972  0.00  0.00     0.089 H 
ATOM     94  H   SGN d 302      24.361  19.707  10.727  0.00  0.00     0.231 HD
ATOM     95  O5  IDS d 303      23.138  13.607   6.815  0.00  0.00    -0.340 OA
ATOM     96  O2S IDS d 303      20.653  13.027  10.396  0.00  0.00    -0.572 OA
ATOM     97  O4  IDS d 303      24.163  16.280   7.410  0.00  0.00    -0.348 OA
ATOM     98  O1S IDS d 303      19.677  15.331  10.177  0.00  0.00    -0.572 OA
ATOM     99  C4  IDS d 303      24.876  15.089   7.752  0.00  0.00     0.103 C 
ATOM    100  S   IDS d 303      20.786  14.470  10.393  0.00  0.00     0.252 S 
ATOM    101  O2  IDS d 303      21.878  14.826   9.240  0.00  0.00    -0.244 OA
ATOM    102  O3  IDS d 303      25.464  13.405   9.337  0.00  0.00    -0.390 OA
ATOM    103  O61 IDS d 303      23.940  14.830   4.434  0.00  0.00    -0.646 OA
ATOM    104  C2  IDS d 303      23.055  13.902   9.314  0.00  0.00     0.134 C 
ATOM    105  C1  IDS d 303      22.827  12.959   8.122  0.00  0.00     0.161 C 
ATOM    106  O3S IDS d 303      21.335  14.844  11.776  0.00  0.00    -0.572 OA
ATOM    107  C3  IDS d 303      24.559  14.512   9.180  0.00  0.00     0.094 C 
ATOM    108  C5  IDS d 303      24.546  14.044   6.677  0.00  0.00     0.152 C 
ATOM    109  O62 IDS d 303      26.047  15.173   5.015  0.00  0.00    -0.646 OA
ATOM    110  C6  IDS d 303      24.825  14.704   5.283  0.00  0.00     0.206 C 
ATOM    111  H   IDS d 303      25.917  15.334   7.788  0.00  0.00     0.092 H 
ATOM    112  H   IDS d 303      26.378  13.723   9.264  0.00  0.00     0.210 HD
ATOM    113  H   IDS d 303      23.067  13.489  10.302  0.00  0.00     0.097 H 
ATOM    114  H   IDS d 303      21.785  12.729   8.054  0.00  0.00     0.133 H 
ATOM    115  H   IDS d 303      24.652  15.296   9.902  0.00  0.00     0.091 H 
ATOM    116  H   IDS d 303      25.153  13.169   6.781  0.00  0.00     0.104 H 
ATOM    117  C1  UAP d 301      23.592  19.681   3.418  0.00  0.00     0.167 C 
ATOM    118  C5  UAP d 301      21.491  20.054   2.365  0.00  0.00     0.147 C 
ATOM    119  O61 UAP d 301      19.180  20.187   1.697  0.00  0.00    -0.642 OA
ATOM    120  C2  UAP d 301      24.300  20.022   2.029  0.00  0.00     0.135 C 
ATOM    121  O62 UAP d 301      19.606  20.777   3.829  0.00  0.00    -0.642 OA
ATOM    122  O3  UAP d 301      23.680  17.911   0.875  0.00  0.00    -0.389 OA
ATOM    123  O5  UAP d 301      22.272  20.278   3.460  0.00  0.00    -0.311 OA
ATOM    124  C6  UAP d 301      20.019  20.336   2.595  0.00  0.00     0.233 C 
ATOM    125  O2  UAP d 301      24.372  21.514   1.774  0.00  0.00    -0.244 OA
ATOM    126  C3  UAP d 301      23.434  19.343   0.887  0.00  0.00     0.086 C 
ATOM    127  O2S UAP d 301      26.315  21.628   3.278  0.00  0.00    -0.572 OA
ATOM    128  C4  UAP d 301      21.927  19.620   1.149  0.00  0.00    -0.034 C 
ATOM    129  O3S UAP d 301      26.818  21.427   0.888  0.00  0.00    -0.572 OA
ATOM    130  O1S UAP d 301      25.856  23.526   1.643  0.00  0.00    -0.572 OA
ATOM    131  S   UAP d 301      25.883  22.096   1.943  0.00  0.00     0.252 S 
ATOM    132  H   UAP d 301      23.487  18.624   3.545  0.00  0.00     0.134 H 
ATOM    133  H   UAP d 301      25.305  19.657   2.049  0.00  0.00     0.097 H 
ATOM    134  H   UAP d 301      24.623  17.746   0.712  0.00  0.00     0.210 HD
ATOM    135  H   UAP d 301      23.708  19.752  -0.063  0.00  0.00     0.093 H 
ATOM    136  H   UAP d 301      21.245  19.474   0.388  0.00  0.00     0.085 H 
ATOM    137  C5  IDS d 305      23.203   5.731   9.997  0.00  0.00     0.152 C 
ATOM    138  O2  IDS d 305      25.833   5.390   7.492  0.00  0.00    -0.244 OA
ATOM    139  C6  IDS d 305      22.733   6.940  10.777  0.00  0.00     0.206 C 
ATOM    140  O61 IDS d 305      23.529   7.619  11.436  0.00  0.00    -0.646 OA
ATOM    141  O2S IDS d 305      27.724   3.865   7.880  0.00  0.00    -0.572 OA
ATOM    142  O62 IDS d 305      21.427   7.248  10.754  0.00  0.00    -0.646 OA
ATOM    143  O5  IDS d 305      24.655   5.560  10.188  0.00  0.00    -0.340 OA
ATOM    144  C3  IDS d 305      23.423   4.642   7.664  0.00  0.00     0.094 C 
ATOM    145  O4  IDS d 305      23.436   7.184   8.048  0.00  0.00    -0.348 OA
ATOM    146  O1S IDS d 305      27.949   5.809   6.341  0.00  0.00    -0.572 OA
ATOM    147  C2  IDS d 305      24.946   4.349   7.999  0.00  0.00     0.134 C 
ATOM    148  C1  IDS d 305      25.143   4.317   9.555  0.00  0.00     0.161 C 
ATOM    149  C4  IDS d 305      22.868   5.914   8.473  0.00  0.00     0.103 C 
ATOM    150  O3  IDS d 305      22.704   3.514   8.123  0.00  0.00    -0.390 OA
ATOM    151  S   IDS d 305      27.149   4.727   6.856  0.00  0.00     0.252 S 
ATOM    152  O3S IDS d 305      26.701   3.834   5.678  0.00  0.00    -0.572 OA
ATOM    153  H   IDS d 305      22.700   4.856  10.353  0.00  0.00     0.104 H 
ATOM    154  H   IDS d 305      23.315   4.835   6.616  0.00  0.00     0.091 H 
ATOM    155  H   IDS d 305      25.187   3.413   7.539  0.00  0.00     0.097 H 
ATOM    156  H   IDS d 305      26.197   4.266   9.734  0.00  0.00     0.133 H 
ATOM    157  H   IDS d 305      21.817   5.953   8.280  0.00  0.00     0.092 H 
ATOM    158  H   IDS d 305      22.850   3.405   9.076  0.00  0.00     0.210 HD
ENDROOT
TORSDOF 49
ENDMDL
MODEL 29
REMARK VINA RESULT:      -6.9      4.258      8.206
REMARK  0 active torsions:
REMARK  status: ('A' for Active; 'I' for Inactive)
REMARK       I    between atoms: N_1  and  C2_65 
REMARK       I    between atoms: N_1  and  S1_100 
REMARK       I    between atoms: O2S_4  and  S1_36 
REMARK       I    between atoms: O2S_5  and  S1_100 
REMARK       I    between atoms: C5_7  and  C6_64 
REMARK       I    between atoms: O3_11  and  C3_17 
REMARK       I    between atoms: C1_12  and  O4_28 
REMARK       I    between atoms: C5_13  and  C6_35 
REMARK       I    between atoms: C5_14  and  C6_52 
REMARK       I    between atoms: O2S_16  and  S1_75 
REMARK       I    between atoms: C2_18  and  O2_63 
REMARK       I    between atoms: C5_19  and  C6_22 
REMARK       I    between atoms: O2_20  and  C2_53 
REMARK       I    between atoms: O2_20  and  S_86 
REMARK       I    between atoms: O4_21  and  C1_67 
REMARK       I    between atoms: O4_21  and  C4_48 
REMARK       I    between atoms: O3_26  and  C3_72 
REMARK       I    between atoms: O4_28  and  C4_71 
REMARK       I    between atoms: O3_30  and  C3_94 
REMARK       I    between atoms: N_33  and  C2_82 
REMARK       I    between atoms: N_33  and  S1_75 
REMARK       I    between atoms: C6_35  and  O6_59 
REMARK       I    between atoms: S1_36  and  N_37 
REMARK       I    between atoms: S1_36  and  O1S_89 
REMARK       I    between atoms: S1_36  and  O3S_97 
REMARK       I    between atoms: N_37  and  C2_78 
REMARK       I    between atoms: C3_38  and  O3_81 
REMARK       I    between atoms: O4_39  and  C1_85 
REMARK       I    between atoms: O4_39  and  C4_69 
REMARK       I    between atoms: O3_40  and  C3_47 
REMARK       I    between atoms: O4_41  and  C1_76 
REMARK       I    between atoms: O4_41  and  C4_43 
REMARK       I    between atoms: S2_44  and  O6_80 
REMARK       I    between atoms: S_46  and  O2_57 
REMARK       I    between atoms: O3S_49  and  S1_75 
REMARK       I    between atoms: C1_54  and  O4_96 
REMARK       I    between atoms: O2_57  and  C2_66 
REMARK       I    between atoms: O6_58  and  C6_64 
REMARK       I    between atoms: O6_58  and  S2_101 
REMARK       I    between atoms: O6_59  and  S2_73 
REMARK       I    between atoms: O3_61  and  C3_77 
REMARK       I    between atoms: O2_63  and  S_104 
REMARK       I    between atoms: S1_75  and  O1S_92 
REMARK       I    between atoms: O6_80  and  C6_88 
REMARK       I    between atoms: C5_83  and  C6_88 
REMARK       I    between atoms: O3S_84  and  S1_100 
REMARK       I    between atoms: C5_87  and  C6_103 
REMARK       I    between atoms: O1S_91  and  S1_100 
REMARK       I    between atoms: O4_96  and  C4_99 
ROOT
ATOM      1  N   SGN d 304      26.513  13.018   5.918  0.00  0.00    -0.210 NA
ATOM      2  O2S SGN d 304      28.729  12.732   7.018  0.00  0.00    -0.296 OA
ATOM      3  C5  SGN d 304      24.835  14.762   9.326  0.00  0.00     0.091 C 
ATOM      4  O5S SGN d 304      23.959  15.253  13.284  0.00  0.00    -0.572 OA
ATOM      5  O3  SGN d 304      23.989  11.969   6.964  0.00  0.00    -0.391 OA
ATOM      6  C3  SGN d 304      24.498  13.230   7.358  0.00  0.00     0.083 C 
ATOM      7  O4  SGN d 304      22.839  13.319   9.149  0.00  0.00    -0.348 OA
ATOM      8  O5  SGN d 304      26.217  14.843   9.033  0.00  0.00    -0.349 OA
ATOM      9  C4  SGN d 304      24.267  13.399   8.866  0.00  0.00     0.095 C 
ATOM     10  O4S SGN d 304      25.296  17.376  13.433  0.00  0.00    -0.572 OA
ATOM     11  O6S SGN d 304      26.322  15.219  13.548  0.00  0.00    -0.572 OA
ATOM     12  O6  SGN d 304      25.242  16.083  11.421  0.00  0.00    -0.254 OA
ATOM     13  C6  SGN d 304      24.719  14.878  10.881  0.00  0.00     0.067 C 
ATOM     14  C2  SGN d 304      26.047  13.255   7.240  0.00  0.00     0.081 C 
ATOM     15  O3S SGN d 304      27.415  10.734   6.608  0.00  0.00    -0.296 OA
ATOM     16  C1  SGN d 304      26.559  14.646   7.617  0.00  0.00     0.150 C 
ATOM     17  O1S SGN d 304      28.293  11.848   4.661  0.00  0.00    -0.296 OA
ATOM     18  S1  SGN d 304      27.863  12.077   6.010  0.00  0.00     0.156 S 
ATOM     19  S2  SGN d 304      25.144  16.019  12.984  0.00  0.00     0.251 S 
ATOM     20  H   SGN d 304      26.741  13.905   5.468  0.00  0.00     0.140 HD
ATOM     21  H   SGN d 304      28.254  12.792   7.861  0.00  0.00     0.231 HD
ATOM     22  H   SGN d 304      24.288  15.532   8.823  0.00  0.00     0.090 H 
ATOM     23  H   SGN d 304      24.127  11.846   6.013  0.00  0.00     0.210 HD
ATOM     24  H   SGN d 304      24.025  13.971   6.748  0.00  0.00     0.089 H 
ATOM     25  H   SGN d 304      24.769  12.621   9.401  0.00  0.00     0.091 H 
ATOM     26  H   SGN d 304      25.249  14.057  11.319  0.00  0.00     0.080 H 
ATOM     27  H   SGN d 304      23.674  14.869  11.111  0.00  0.00     0.080 H 
ATOM     28  H   SGN d 304      26.404  12.481   7.886  0.00  0.00     0.076 H 
ATOM     29  H   SGN d 304      27.120  10.869   7.522  0.00  0.00     0.231 HD
ATOM     30  H   SGN d 304      27.614  14.806   7.542  0.00  0.00     0.131 H 
ATOM     31  H   SGN d 304      28.581  12.686   4.266  0.00  0.00     0.231 HD
ATOM     32  O6S SGN d 306      20.990  19.546   3.213  0.00  0.00    -0.572 OA
ATOM     33  O5S SGN d 306      21.629  19.646   0.875  0.00  0.00    -0.572 OA
ATOM     34  O2S SGN d 306      26.861  23.471   7.290  0.00  0.00    -0.296 OA
ATOM     35  C1  SGN d 306      25.728  22.776   4.214  0.00  0.00     0.038 C 
ATOM     36  N   SGN d 306      27.916  22.890   5.167  0.00  0.00    -0.212 NA
ATOM     37  O3  SGN d 306      28.366  20.223   4.842  0.00  0.00    -0.391 OA
ATOM     38  S2  SGN d 306      21.442  20.474   2.066  0.00  0.00     0.251 S 
ATOM     39  C3  SGN d 306      27.304  20.863   4.123  0.00  0.00     0.081 C 
ATOM     40  O3S SGN d 306      28.526  21.692   7.363  0.00  0.00    -0.296 OA
ATOM     41  O4S SGN d 306      20.590  21.638   2.073  0.00  0.00    -0.572 OA
ATOM     42  O5  SGN d 306      24.605  21.918   3.971  0.00  0.00    -0.379 OA
ATOM     43  S1  SGN d 306      28.199  23.097   6.764  0.00  0.00     0.156 S 
ATOM     44  O6  SGN d 306      22.842  21.015   2.354  0.00  0.00    -0.254 OA
ATOM     45  C2  SGN d 306      26.827  22.023   4.928  0.00  0.00     0.054 C 
ATOM     46  C5  SGN d 306      24.995  20.764   3.195  0.00  0.00     0.087 C 
ATOM     47  C6  SGN d 306      23.693  20.003   2.973  0.00  0.00     0.067 C 
ATOM     48  O1S SGN d 306      29.363  23.993   6.843  0.00  0.00    -0.296 OA
ATOM     49  O4  SGN d 306      26.551  18.726   3.156  0.00  0.00    -0.348 OA
ATOM     50  C4  SGN d 306      26.101  19.931   3.925  0.00  0.00     0.095 C 
ATOM     51  H   SGN d 306      26.239  22.742   7.138  0.00  0.00     0.231 HD
ATOM     52  H   SGN d 306      26.101  23.140   3.279  0.00  0.00     0.077 H 
ATOM     53  H   SGN d 306      25.412  23.593   4.829  0.00  0.00     0.077 H 
ATOM     54  H   SGN d 306      27.712  23.797   4.749  0.00  0.00     0.140 HD
ATOM     55  H   SGN d 306      29.105  20.843   4.945  0.00  0.00     0.210 HD
ATOM     56  H   SGN d 306      27.685  21.153   3.166  0.00  0.00     0.089 H 
ATOM     57  H   SGN d 306      27.744  21.122   7.298  0.00  0.00     0.231 HD
ATOM     58  H   SGN d 306      26.429  21.658   5.851  0.00  0.00     0.072 H 
ATOM     59  H   SGN d 306      25.450  21.018   2.259  0.00  0.00     0.090 H 
ATOM     60  H   SGN d 306      23.839  19.168   2.320  0.00  0.00     0.080 H 
ATOM     61  H   SGN d 306      23.282  19.588   3.869  0.00  0.00     0.080 H 
ATOM     62  H   SGN d 306      29.133  24.856   6.466  0.00  0.00     0.231 HD
ATOM     63  H   SGN d 306      25.693  19.568   4.845  0.00  0.00     0.091 H 
ATOM     64  O6S SGN d 302      18.585   3.566   9.174  0.00  0.00    -0.572 OA
ATOM     65  O2S SGN d 302      17.465  11.512  11.356  0.00  0.00    -0.296 OA
ATOM     66  O5S SGN d 302      20.758   2.991  10.090  0.00  0.00    -0.572 OA
ATOM     67  C5  SGN d 302      19.956   6.773  11.614  0.00  0.00     0.091 C 
ATOM     68  O4  SGN d 302      19.997   5.608  13.746  0.00  0.00    -0.348 OA
ATOM     69  O3  SGN d 302      18.992   8.123  15.001  0.00  0.00    -0.391 OA
ATOM     70  C6  SGN d 302      19.819   5.395  10.939  0.00  0.00     0.067 C 
ATOM     71  S1  SGN d 302      17.536  11.585  12.792  0.00  0.00     0.156 S 
ATOM     72  N   SGN d 302      18.721  10.488  13.312  0.00  0.00    -0.210 NA
ATOM     73  O4S SGN d 302      20.432   3.901   7.728  0.00  0.00    -0.572 OA
ATOM     74  O6  SGN d 302      20.357   5.336   9.644  0.00  0.00    -0.254 OA
ATOM     75  O5  SGN d 302      19.271   7.801  10.794  0.00  0.00    -0.349 OA
ATOM     76  C4  SGN d 302      19.343   6.702  13.015  0.00  0.00     0.095 C 
ATOM     77  S2  SGN d 302      20.090   3.879   9.123  0.00  0.00     0.251 S 
ATOM     78  C1  SGN d 302      19.226   9.168  11.381  0.00  0.00     0.150 C 
ATOM     79  C2  SGN d 302      18.711   9.111  12.823  0.00  0.00     0.081 C 
ATOM     80  O1S SGN d 302      17.881  12.805  13.471  0.00  0.00    -0.296 OA
ATOM     81  C3  SGN d 302      19.525   8.116  13.682  0.00  0.00     0.083 C 
ATOM     82  O3S SGN d 302      16.146  11.145  13.223  0.00  0.00    -0.296 OA
ATOM     83  H   SGN d 302      18.317  11.778  10.977  0.00  0.00     0.231 HD
ATOM     84  H   SGN d 302      20.988   7.041  11.695  0.00  0.00     0.090 H 
ATOM     85  H   SGN d 302      19.491   7.503  15.555  0.00  0.00     0.210 HD
ATOM     86  H   SGN d 302      18.779   5.150  10.883  0.00  0.00     0.080 H 
ATOM     87  H   SGN d 302      20.374   4.702  11.537  0.00  0.00     0.080 H 
ATOM     88  H   SGN d 302      18.650  10.440  14.329  0.00  0.00     0.140 HD
ATOM     89  H   SGN d 302      18.295   6.484  13.009  0.00  0.00     0.091 H 
ATOM     90  H   SGN d 302      18.551   9.701  10.744  0.00  0.00     0.131 H 
ATOM     91  H   SGN d 302      17.714   8.727  12.882  0.00  0.00     0.076 H 
ATOM     92  H   SGN d 302      18.768  13.087  13.196  0.00  0.00     0.231 HD
ATOM     93  H   SGN d 302      20.563   8.371  13.735  0.00  0.00     0.089 H 
ATOM     94  H   SGN d 302      15.910  10.322  12.766  0.00  0.00     0.231 HD
ATOM     95  O5  IDS d 303      22.877  11.422  10.703  0.00  0.00    -0.340 OA
ATOM     96  O2S IDS d 303      21.563  15.415  11.992  0.00  0.00    -0.572 OA
ATOM     97  O4  IDS d 303      20.447   9.925  11.333  0.00  0.00    -0.348 OA
ATOM     98  O1S IDS d 303      20.618  14.490  14.128  0.00  0.00    -0.572 OA
ATOM     99  C4  IDS d 303      20.702  10.464  10.035  0.00  0.00     0.103 C 
ATOM    100  S   IDS d 303      20.622  14.579  12.710  0.00  0.00     0.252 S 
ATOM    101  O2  IDS d 303      20.840  13.064  12.155  0.00  0.00    -0.244 OA
ATOM    102  O3  IDS d 303      20.430  12.198   8.417  0.00  0.00    -0.390 OA
ATOM    103  O61 IDS d 303      23.521   8.721  11.016  0.00  0.00    -0.646 OA
ATOM    104  C2  IDS d 303      20.961  13.054  10.661  0.00  0.00     0.134 C 
ATOM    105  C1  IDS d 303      22.465  12.831  10.439  0.00  0.00     0.161 C 
ATOM    106  O3S IDS d 303      19.227  15.088  12.324  0.00  0.00    -0.572 OA
ATOM    107  C3  IDS d 303      20.162  11.923   9.804  0.00  0.00     0.094 C 
ATOM    108  C5  IDS d 303      22.222  10.426   9.824  0.00  0.00     0.152 C 
ATOM    109  O62 IDS d 303      22.179   7.949   9.435  0.00  0.00    -0.646 OA
ATOM    110  C6  IDS d 303      22.699   8.965  10.130  0.00  0.00     0.206 C 
ATOM    111  H   IDS d 303      20.169   9.868   9.325  0.00  0.00     0.092 H 
ATOM    112  H   IDS d 303      19.972  11.545   7.864  0.00  0.00     0.210 HD
ATOM    113  H   IDS d 303      20.517  13.961  10.306  0.00  0.00     0.097 H 
ATOM    114  H   IDS d 303      23.012  13.399  11.162  0.00  0.00     0.133 H 
ATOM    115  H   IDS d 303      19.134  11.965  10.096  0.00  0.00     0.091 H 
ATOM    116  H   IDS d 303      22.485  10.680   8.819  0.00  0.00     0.104 H 
ATOM    117  C1  UAP d 301      21.341   5.579  14.187  0.00  0.00     0.167 C 
ATOM    118  C5  UAP d 301      22.569   5.635  16.225  0.00  0.00     0.147 C 
ATOM    119  O61 UAP d 301      23.746   6.187  18.252  0.00  0.00    -0.642 OA
ATOM    120  C2  UAP d 301      21.866   4.089  13.962  0.00  0.00     0.135 C 
ATOM    121  O62 UAP d 301      21.731   7.165  18.007  0.00  0.00    -0.642 OA
ATOM    122  O3  UAP d 301      24.203   4.703  13.385  0.00  0.00    -0.389 OA
ATOM    123  O5  UAP d 301      21.391   5.913  15.597  0.00  0.00    -0.311 OA
ATOM    124  C6  UAP d 301      22.734   6.340  17.556  0.00  0.00     0.233 C 
ATOM    125  O2  UAP d 301      21.094   3.079  14.785  0.00  0.00    -0.244 OA
ATOM    126  C3  UAP d 301      23.389   4.062  14.403  0.00  0.00     0.086 C 
ATOM    127  O2S UAP d 301      19.299   3.153  13.105  0.00  0.00    -0.572 OA
ATOM    128  C4  UAP d 301      23.547   4.809  15.757  0.00  0.00    -0.034 C 
ATOM    129  O3S UAP d 301      20.937   1.349  12.846  0.00  0.00    -0.572 OA
ATOM    130  O1S UAP d 301      19.428   1.209  14.745  0.00  0.00    -0.572 OA
ATOM    131  S   UAP d 301      20.097   2.172  13.872  0.00  0.00     0.252 S 
ATOM    132  H   UAP d 301      21.945   6.283  13.653  0.00  0.00     0.134 H 
ATOM    133  H   UAP d 301      21.736   3.824  12.933  0.00  0.00     0.097 H 
ATOM    134  H   UAP d 301      24.099   4.232  12.543  0.00  0.00     0.210 HD
ATOM    135  H   UAP d 301      23.711   3.048  14.520  0.00  0.00     0.093 H 
ATOM    136  H   UAP d 301      24.407   4.677  16.312  0.00  0.00     0.085 H 
ATOM    137  C5  IDS d 305      25.508  17.833   5.788  0.00  0.00     0.152 C 
ATOM    138  O2  IDS d 305      26.588  15.018   3.735  0.00  0.00    -0.244 OA
ATOM    139  C6  IDS d 305      24.367  17.955   6.777  0.00  0.00     0.206 C 
ATOM    140  O61 IDS d 305      23.209  17.677   6.444  0.00  0.00    -0.646 OA
ATOM    141  O2S IDS d 305      26.616  15.211   1.284  0.00  0.00    -0.572 OA
ATOM    142  O62 IDS d 305      24.638  18.391   8.016  0.00  0.00    -0.646 OA
ATOM    143  O5  IDS d 305      24.984  17.372   4.490  0.00  0.00    -0.340 OA
ATOM    144  C3  IDS d 305      27.755  16.676   5.247  0.00  0.00     0.094 C 
ATOM    145  O4  IDS d 305      25.899  15.580   6.648  0.00  0.00    -0.348 OA
ATOM    146  O1S IDS d 305      26.416  12.988   2.384  0.00  0.00    -0.572 OA
ATOM    147  C2  IDS d 305      27.180  16.349   3.803  0.00  0.00     0.134 C 
ATOM    148  C1  IDS d 305      26.036  17.362   3.453  0.00  0.00     0.161 C 
ATOM    149  C4  IDS d 305      26.583  16.825   6.335  0.00  0.00     0.103 C 
ATOM    150  O3  IDS d 305      28.377  17.941   5.134  0.00  0.00    -0.390 OA
ATOM    151  S   IDS d 305      26.999  14.305   2.357  0.00  0.00     0.252 S 
ATOM    152  O3S IDS d 305      28.537  14.169   2.341  0.00  0.00    -0.572 OA
ATOM    153  H   IDS d 305      25.973  18.787   5.658  0.00  0.00     0.104 H 
ATOM    154  H   IDS d 305      28.410  15.890   5.560  0.00  0.00     0.091 H 
ATOM    155  H   IDS d 305      28.004  16.413   3.123  0.00  0.00     0.097 H 
ATOM    156  H   IDS d 305      25.582  17.017   2.547  0.00  0.00     0.133 H 
ATOM    157  H   IDS d 305      27.054  17.166   7.233  0.00  0.00     0.092 H 
ATOM    158  H   IDS d 305      27.724  18.598   4.848  0.00  0.00     0.210 HD
ENDROOT
TORSDOF 49
ENDMDL
MODEL 30
REMARK VINA RESULT:      -6.5      5.813     16.077
REMARK  0 active torsions:
REMARK  status: ('A' for Active; 'I' for Inactive)
REMARK       I    between atoms: N_1  and  C2_65 
REMARK       I    between atoms: N_1  and  S1_100 
REMARK       I    between atoms: O2S_4  and  S1_36 
REMARK       I    between atoms: O2S_5  and  S1_100 
REMARK       I    between atoms: C5_7  and  C6_64 
REMARK       I    between atoms: O3_11  and  C3_17 
REMARK       I    between atoms: C1_12  and  O4_28 
REMARK       I    between atoms: C5_13  and  C6_35 
REMARK       I    between atoms: C5_14  and  C6_52 
REMARK       I    between atoms: O2S_16  and  S1_75 
REMARK       I    between atoms: C2_18  and  O2_63 
REMARK       I    between atoms: C5_19  and  C6_22 
REMARK       I    between atoms: O2_20  and  C2_53 
REMARK       I    between atoms: O2_20  and  S_86 
REMARK       I    between atoms: O4_21  and  C1_67 
REMARK       I    between atoms: O4_21  and  C4_48 
REMARK       I    between atoms: O3_26  and  C3_72 
REMARK       I    between atoms: O4_28  and  C4_71 
REMARK       I    between atoms: O3_30  and  C3_94 
REMARK       I    between atoms: N_33  and  C2_82 
REMARK       I    between atoms: N_33  and  S1_75 
REMARK       I    between atoms: C6_35  and  O6_59 
REMARK       I    between atoms: S1_36  and  N_37 
REMARK       I    between atoms: S1_36  and  O1S_89 
REMARK       I    between atoms: S1_36  and  O3S_97 
REMARK       I    between atoms: N_37  and  C2_78 
REMARK       I    between atoms: C3_38  and  O3_81 
REMARK       I    between atoms: O4_39  and  C1_85 
REMARK       I    between atoms: O4_39  and  C4_69 
REMARK       I    between atoms: O3_40  and  C3_47 
REMARK       I    between atoms: O4_41  and  C1_76 
REMARK       I    between atoms: O4_41  and  C4_43 
REMARK       I    between atoms: S2_44  and  O6_80 
REMARK       I    between atoms: S_46  and  O2_57 
REMARK       I    between atoms: O3S_49  and  S1_75 
REMARK       I    between atoms: C1_54  and  O4_96 
REMARK       I    between atoms: O2_57  and  C2_66 
REMARK       I    between atoms: O6_58  and  C6_64 
REMARK       I    between atoms: O6_58  and  S2_101 
REMARK       I    between atoms: O6_59  and  S2_73 
REMARK       I    between atoms: O3_61  and  C3_77 
REMARK       I    between atoms: O2_63  and  S_104 
REMARK       I    between atoms: S1_75  and  O1S_92 
REMARK       I    between atoms: O6_80  and  C6_88 
REMARK       I    between atoms: C5_83  and  C6_88 
REMARK       I    between atoms: O3S_84  and  S1_100 
REMARK       I    between atoms: C5_87  and  C6_103 
REMARK       I    between atoms: O1S_91  and  S1_100 
REMARK       I    between atoms: O4_96  and  C4_99 
ROOT
ATOM      1  N   SGN d 304      22.097   5.955   8.044  0.00  0.00    -0.210 NA
ATOM      2  O2S SGN d 304      19.659   6.459   8.011  0.00  0.00    -0.296 OA
ATOM      3  C5  SGN d 304      22.795   8.613  11.193  0.00  0.00     0.091 C 
ATOM      4  O5S SGN d 304      22.549  12.071  13.351  0.00  0.00    -0.572 OA
ATOM      5  O3  SGN d 304      24.214   7.960   7.779  0.00  0.00    -0.391 OA
ATOM      6  C3  SGN d 304      23.638   7.637   9.031  0.00  0.00     0.083 C 
ATOM      7  O4  SGN d 304      24.737   9.585  10.016  0.00  0.00    -0.348 OA
ATOM      8  O5  SGN d 304      21.551   7.967  11.006  0.00  0.00    -0.349 OA
ATOM      9  C4  SGN d 304      23.445   8.936   9.828  0.00  0.00     0.095 C 
ATOM     10  O4S SGN d 304      21.261  10.959  15.200  0.00  0.00    -0.572 OA
ATOM     11  O6S SGN d 304      20.205  11.704  13.188  0.00  0.00    -0.572 OA
ATOM     12  O6  SGN d 304      21.848   9.770  13.209  0.00  0.00    -0.254 OA
ATOM     13  C6  SGN d 304      22.479   9.946  11.948  0.00  0.00     0.067 C 
ATOM     14  C2  SGN d 304      22.182   7.124   8.848  0.00  0.00     0.081 C 
ATOM     15  O3S SGN d 304      20.999   7.286   6.166  0.00  0.00    -0.296 OA
ATOM     16  C1  SGN d 304      21.612   6.732  10.212  0.00  0.00     0.150 C 
ATOM     17  O1S SGN d 304      20.715   4.897   6.287  0.00  0.00    -0.296 OA
ATOM     18  S1  SGN d 304      20.758   6.083   7.092  0.00  0.00     0.156 S 
ATOM     19  S2  SGN d 304      21.507  11.181  13.802  0.00  0.00     0.251 S 
ATOM     20  H   SGN d 304      22.019   5.131   8.640  0.00  0.00     0.140 HD
ATOM     21  H   SGN d 304      19.882   7.289   8.460  0.00  0.00     0.231 HD
ATOM     22  H   SGN d 304      23.475   7.993  11.740  0.00  0.00     0.090 H 
ATOM     23  H   SGN d 304      24.342   7.149   7.263  0.00  0.00     0.210 HD
ATOM     24  H   SGN d 304      24.275   6.917   9.501  0.00  0.00     0.089 H 
ATOM     25  H   SGN d 304      22.801   9.600   9.290  0.00  0.00     0.091 H 
ATOM     26  H   SGN d 304      21.834  10.536  11.330  0.00  0.00     0.080 H 
ATOM     27  H   SGN d 304      23.419  10.419  12.140  0.00  0.00     0.080 H 
ATOM     28  H   SGN d 304      21.647   7.920   8.376  0.00  0.00     0.076 H 
ATOM     29  H   SGN d 304      21.031   8.099   6.693  0.00  0.00     0.231 HD
ATOM     30  H   SGN d 304      20.621   6.327  10.219  0.00  0.00     0.131 H 
ATOM     31  H   SGN d 304      20.562   4.126   6.856  0.00  0.00     0.231 HD
ATOM     32  O6S SGN d 306      28.268   2.276  13.412  0.00  0.00    -0.572 OA
ATOM     33  O5S SGN d 306      28.304   0.037  12.479  0.00  0.00    -0.572 OA
ATOM     34  O2S SGN d 306      21.568   2.643  18.045  0.00  0.00    -0.296 OA
ATOM     35  C1  SGN d 306      23.497   0.557  16.268  0.00  0.00     0.038 C 
ATOM     36  N   SGN d 306      21.132   0.772  16.541  0.00  0.00    -0.212 NA
ATOM     37  O3  SGN d 306      20.743   1.499  13.944  0.00  0.00    -0.391 OA
ATOM     38  S2  SGN d 306      28.169   0.771  13.737  0.00  0.00     0.251 S 
ATOM     39  C3  SGN d 306      21.974   0.879  14.338  0.00  0.00     0.081 C 
ATOM     40  O3S SGN d 306      19.917   3.027  16.293  0.00  0.00    -0.296 OA
ATOM     41  O4S SGN d 306      29.006   0.505  14.881  0.00  0.00    -0.572 OA
ATOM     42  O5  SGN d 306      24.628   0.999  15.505  0.00  0.00    -0.379 OA
ATOM     43  S1  SGN d 306      20.422   1.999  17.355  0.00  0.00     0.156 S 
ATOM     44  O6  SGN d 306      26.753   0.430  14.203  0.00  0.00    -0.254 OA
ATOM     45  C2  SGN d 306      22.230   1.211  15.768  0.00  0.00     0.054 C 
ATOM     46  C5  SGN d 306      24.448   0.710  14.102  0.00  0.00     0.087 C 
ATOM     47  C6  SGN d 306      25.747   1.175  13.453  0.00  0.00     0.067 C 
ATOM     48  O1S SGN d 306      19.298   1.388  18.081  0.00  0.00    -0.296 OA
ATOM     49  O4  SGN d 306      22.928   1.136  12.081  0.00  0.00    -0.348 OA
ATOM     50  C4  SGN d 306      23.168   1.411  13.534  0.00  0.00     0.095 C 
ATOM     51  H   SGN d 306      22.195   2.979  17.386  0.00  0.00     0.231 HD
ATOM     52  H   SGN d 306      23.404  -0.505  16.177  0.00  0.00     0.077 H 
ATOM     53  H   SGN d 306      23.644   0.828  17.293  0.00  0.00     0.077 H 
ATOM     54  H   SGN d 306      21.460   0.078  17.212  0.00  0.00     0.140 HD
ATOM     55  H   SGN d 306      20.015   1.136  14.473  0.00  0.00     0.210 HD
ATOM     56  H   SGN d 306      21.879  -0.174  14.169  0.00  0.00     0.089 H 
ATOM     57  H   SGN d 306      20.676   3.414  15.830  0.00  0.00     0.231 HD
ATOM     58  H   SGN d 306      22.350   2.270  15.856  0.00  0.00     0.072 H 
ATOM     59  H   SGN d 306      24.274  -0.327  13.902  0.00  0.00     0.090 H 
ATOM     60  H   SGN d 306      25.772   0.924  12.414  0.00  0.00     0.080 H 
ATOM     61  H   SGN d 306      25.886   2.236  13.486  0.00  0.00     0.080 H 
ATOM     62  H   SGN d 306      19.639   0.755  18.732  0.00  0.00     0.231 HD
ATOM     63  H   SGN d 306      23.298   2.469  13.624  0.00  0.00     0.091 H 
ATOM     64  O6S SGN d 302      28.643  14.824   1.618  0.00  0.00    -0.572 OA
ATOM     65  O2S SGN d 302      29.255  13.654   9.830  0.00  0.00    -0.296 OA
ATOM     66  O5S SGN d 302      26.292  15.301   1.252  0.00  0.00    -0.572 OA
ATOM     67  C5  SGN d 302      26.707  15.235   5.387  0.00  0.00     0.091 C 
ATOM     68  O4  SGN d 302      26.056  17.569   5.202  0.00  0.00    -0.348 OA
ATOM     69  O3  SGN d 302      26.719  17.857   8.098  0.00  0.00    -0.391 OA
ATOM     70  C6  SGN d 302      27.001  15.267   3.875  0.00  0.00     0.067 C 
ATOM     71  S1  SGN d 302      28.791  14.852  10.477  0.00  0.00     0.156 S 
ATOM     72  N   SGN d 302      27.489  15.462   9.576  0.00  0.00    -0.210 NA
ATOM     73  O4S SGN d 302      27.275  12.949   1.142  0.00  0.00    -0.572 OA
ATOM     74  O6  SGN d 302      26.842  14.027   3.235  0.00  0.00    -0.254 OA
ATOM     75  O5  SGN d 302      27.610  14.266   6.052  0.00  0.00    -0.349 OA
ATOM     76  C4  SGN d 302      26.906  16.641   5.960  0.00  0.00     0.095 C 
ATOM     77  S2  SGN d 302      27.218  14.258   1.729  0.00  0.00     0.251 S 
ATOM     78  C1  SGN d 302      27.515  14.210   7.537  0.00  0.00     0.150 C 
ATOM     79  C2  SGN d 302      27.610  15.621   8.129  0.00  0.00     0.081 C 
ATOM     80  O1S SGN d 302      28.293  14.838  11.826  0.00  0.00    -0.296 OA
ATOM     81  C3  SGN d 302      26.572  16.576   7.496  0.00  0.00     0.083 C 
ATOM     82  O3S SGN d 302      29.999  15.772  10.397  0.00  0.00    -0.296 OA
ATOM     83  H   SGN d 302      28.547  12.992   9.828  0.00  0.00     0.231 HD
ATOM     84  H   SGN d 302      25.697  14.926   5.558  0.00  0.00     0.090 H 
ATOM     85  H   SGN d 302      26.074  18.472   7.713  0.00  0.00     0.210 HD
ATOM     86  H   SGN d 302      28.012  15.590   3.736  0.00  0.00     0.080 H 
ATOM     87  H   SGN d 302      26.290  15.935   3.436  0.00  0.00     0.080 H 
ATOM     88  H   SGN d 302      27.274  16.383   9.957  0.00  0.00     0.140 HD
ATOM     89  H   SGN d 302      27.911  16.999   5.866  0.00  0.00     0.091 H 
ATOM     90  H   SGN d 302      28.350  13.606   7.826  0.00  0.00     0.131 H 
ATOM     91  H   SGN d 302      28.545  16.092   7.906  0.00  0.00     0.076 H 
ATOM     92  H   SGN d 302      27.522  14.251  11.879  0.00  0.00     0.231 HD
ATOM     93  H   SGN d 302      25.564  16.246   7.643  0.00  0.00     0.089 H 
ATOM     94  H   SGN d 302      30.337  15.783   9.487  0.00  0.00     0.231 HD
ATOM     95  O5  IDS d 303      24.235  11.726   8.930  0.00  0.00    -0.340 OA
ATOM     96  O2S IDS d 303      25.212  11.500  13.212  0.00  0.00    -0.572 OA
ATOM     97  O4  IDS d 303      26.369  13.534   8.079  0.00  0.00    -0.348 OA
ATOM     98  O1S IDS d 303      25.511  13.990  13.345  0.00  0.00    -0.572 OA
ATOM     99  C4  IDS d 303      26.493  12.112   8.009  0.00  0.00     0.103 C 
ATOM    100  S   IDS d 303      25.902  12.720  12.843  0.00  0.00     0.252 S 
ATOM    101  O2  IDS d 303      25.819  12.821  11.221  0.00  0.00    -0.244 OA
ATOM    102  O3  IDS d 303      27.234  10.045   8.944  0.00  0.00    -0.390 OA
ATOM    103  O61 IDS d 303      23.482  12.971   6.545  0.00  0.00    -0.646 OA
ATOM    104  C2  IDS d 303      26.117  11.495  10.587  0.00  0.00     0.134 C 
ATOM    105  C1  IDS d 303      24.730  11.008  10.141  0.00  0.00     0.161 C 
ATOM    106  O3S IDS d 303      27.358  12.530  13.288  0.00  0.00    -0.572 OA
ATOM    107  C3  IDS d 303      27.102  11.435   9.291  0.00  0.00     0.094 C 
ATOM    108  C5  IDS d 303      25.091  11.552   7.733  0.00  0.00     0.152 C 
ATOM    109  O62 IDS d 303      25.196  12.271   5.334  0.00  0.00    -0.646 OA
ATOM    110  C6  IDS d 303      24.522  12.311   6.486  0.00  0.00     0.206 C 
ATOM    111  H   IDS d 303      27.192  11.885   7.231  0.00  0.00     0.092 H 
ATOM    112  H   IDS d 303      27.815   9.958   8.172  0.00  0.00     0.210 HD
ATOM    113  H   IDS d 303      26.658  10.919  11.308  0.00  0.00     0.097 H 
ATOM    114  H   IDS d 303      24.014  11.255  10.897  0.00  0.00     0.133 H 
ATOM    115  H   IDS d 303      28.009  11.937   9.554  0.00  0.00     0.091 H 
ATOM    116  H   IDS d 303      25.121  10.503   7.525  0.00  0.00     0.104 H 
ATOM    117  C1  UAP d 301      24.642  17.617   5.220  0.00  0.00     0.167 C 
ATOM    118  C5  UAP d 301      22.899  19.047   5.982  0.00  0.00     0.147 C 
ATOM    119  O61 UAP d 301      21.216  20.271   7.195  0.00  0.00    -0.642 OA
ATOM    120  C2  UAP d 301      24.174  17.915   3.724  0.00  0.00     0.135 C 
ATOM    121  O62 UAP d 301      23.237  20.166   8.184  0.00  0.00    -0.642 OA
ATOM    122  O3  UAP d 301      22.099  16.551   3.806  0.00  0.00    -0.389 OA
ATOM    123  O5  UAP d 301      24.209  18.688   6.096  0.00  0.00    -0.311 OA
ATOM    124  C6  UAP d 301      22.384  19.863   7.151  0.00  0.00     0.233 C 
ATOM    125  O2  UAP d 301      24.670  19.257   3.224  0.00  0.00    -0.244 OA
ATOM    126  C3  UAP d 301      22.588  17.916   3.725  0.00  0.00     0.086 C 
ATOM    127  O2S UAP d 301      26.860  18.229   2.785  0.00  0.00    -0.572 OA
ATOM    128  C4  UAP d 301      22.074  18.737   4.942  0.00  0.00    -0.034 C 
ATOM    129  O3S UAP d 301      25.327  18.343   0.877  0.00  0.00    -0.572 OA
ATOM    130  O1S UAP d 301      26.247  20.442   1.683  0.00  0.00    -0.572 OA
ATOM    131  S   UAP d 301      25.864  19.103   2.129  0.00  0.00     0.252 S 
ATOM    132  H   UAP d 301      24.223  16.700   5.577  0.00  0.00     0.134 H 
ATOM    133  H   UAP d 301      24.579  17.167   3.074  0.00  0.00     0.097 H 
ATOM    134  H   UAP d 301      22.424  16.045   3.044  0.00  0.00     0.210 HD
ATOM    135  H   UAP d 301      22.228  18.362   2.822  0.00  0.00     0.093 H 
ATOM    136  H   UAP d 301      21.092  19.052   4.963  0.00  0.00     0.085 H 
ATOM    137  C5  IDS d 305      23.184   4.069  12.457  0.00  0.00     0.152 C 
ATOM    138  O2  IDS d 305      22.665   3.195   8.954  0.00  0.00    -0.244 OA
ATOM    139  C6  IDS d 305      24.008   5.171  13.089  0.00  0.00     0.206 C 
ATOM    140  O61 IDS d 305      25.208   5.299  12.819  0.00  0.00    -0.646 OA
ATOM    141  O2S IDS d 305      23.321   0.975   8.120  0.00  0.00    -0.572 OA
ATOM    142  O62 IDS d 305      23.413   5.994  13.965  0.00  0.00    -0.646 OA
ATOM    143  O5  IDS d 305      24.039   3.271  11.560  0.00  0.00    -0.340 OA
ATOM    144  C3  IDS d 305      21.155   3.506  10.958  0.00  0.00     0.094 C 
ATOM    145  O4  IDS d 305      22.530   5.666  10.728  0.00  0.00    -0.348 OA
ATOM    146  O1S IDS d 305      23.169   2.922   6.577  0.00  0.00    -0.572 OA
ATOM    147  C2  IDS d 305      22.101   2.539  10.128  0.00  0.00     0.134 C 
ATOM    148  C1  IDS d 305      23.316   2.102  11.019  0.00  0.00     0.161 C 
ATOM    149  C4  IDS d 305      21.982   4.692  11.659  0.00  0.00     0.103 C 
ATOM    150  O3  IDS d 305      20.611   2.713  11.995  0.00  0.00    -0.390 OA
ATOM    151  S   IDS d 305      22.640   2.192   7.701  0.00  0.00     0.252 S 
ATOM    152  O3S IDS d 305      21.165   1.838   7.415  0.00  0.00    -0.572 OA
ATOM    153  H   IDS d 305      22.790   3.432  13.221  0.00  0.00     0.104 H 
ATOM    154  H   IDS d 305      20.425   3.941  10.308  0.00  0.00     0.091 H 
ATOM    155  H   IDS d 305      21.499   1.708   9.823  0.00  0.00     0.097 H 
ATOM    156  H   IDS d 305      23.997   1.578  10.381  0.00  0.00     0.133 H 
ATOM    157  H   IDS d 305      21.287   5.207  12.288  0.00  0.00     0.092 H 
ATOM    158  H   IDS d 305      21.329   2.356  12.539  0.00  0.00     0.210 HD
ENDROOT
TORSDOF 49
ENDMDL
MODEL 31
REMARK VINA RESULT:      -6.5      6.146     15.168
REMARK  0 active torsions:
REMARK  status: ('A' for Active; 'I' for Inactive)
REMARK       I    between atoms: N_1  and  C2_65 
REMARK       I    between atoms: N_1  and  S1_100 
REMARK       I    between atoms: O2S_4  and  S1_36 
REMARK       I    between atoms: O2S_5  and  S1_100 
REMARK       I    between atoms: C5_7  and  C6_64 
REMARK       I    between atoms: O3_11  and  C3_17 
REMARK       I    between atoms: C1_12  and  O4_28 
REMARK       I    between atoms: C5_13  and  C6_35 
REMARK       I    between atoms: C5_14  and  C6_52 
REMARK       I    between atoms: O2S_16  and  S1_75 
REMARK       I    between atoms: C2_18  and  O2_63 
REMARK       I    between atoms: C5_19  and  C6_22 
REMARK       I    between atoms: O2_20  and  C2_53 
REMARK       I    between atoms: O2_20  and  S_86 
REMARK       I    between atoms: O4_21  and  C1_67 
REMARK       I    between atoms: O4_21  and  C4_48 
REMARK       I    between atoms: O3_26  and  C3_72 
REMARK       I    between atoms: O4_28  and  C4_71 
REMARK       I    between atoms: O3_30  and  C3_94 
REMARK       I    between atoms: N_33  and  C2_82 
REMARK       I    between atoms: N_33  and  S1_75 
REMARK       I    between atoms: C6_35  and  O6_59 
REMARK       I    between atoms: S1_36  and  N_37 
REMARK       I    between atoms: S1_36  and  O1S_89 
REMARK       I    between atoms: S1_36  and  O3S_97 
REMARK       I    between atoms: N_37  and  C2_78 
REMARK       I    between atoms: C3_38  and  O3_81 
REMARK       I    between atoms: O4_39  and  C1_85 
REMARK       I    between atoms: O4_39  and  C4_69 
REMARK       I    between atoms: O3_40  and  C3_47 
REMARK       I    between atoms: O4_41  and  C1_76 
REMARK       I    between atoms: O4_41  and  C4_43 
REMARK       I    between atoms: S2_44  and  O6_80 
REMARK       I    between atoms: S_46  and  O2_57 
REMARK       I    between atoms: O3S_49  and  S1_75 
REMARK       I    between atoms: C1_54  and  O4_96 
REMARK       I    between atoms: O2_57  and  C2_66 
REMARK       I    between atoms: O6_58  and  C6_64 
REMARK       I    between atoms: O6_58  and  S2_101 
REMARK       I    between atoms: O6_59  and  S2_73 
REMARK       I    between atoms: O3_61  and  C3_77 
REMARK       I    between atoms: O2_63  and  S_104 
REMARK       I    between atoms: S1_75  and  O1S_92 
REMARK       I    between atoms: O6_80  and  C6_88 
REMARK       I    between atoms: C5_83  and  C6_88 
REMARK       I    between atoms: O3S_84  and  S1_100 
REMARK       I    between atoms: C5_87  and  C6_103 
REMARK       I    between atoms: O1S_91  and  S1_100 
REMARK       I    between atoms: O4_96  and  C4_99 
ROOT
ATOM      1  N   SGN d 304      16.683   2.334  14.657  0.00  0.00    -0.210 NA
ATOM      2  O2S SGN d 304      15.494   0.639  13.273  0.00  0.00    -0.296 OA
ATOM      3  C5  SGN d 304      16.225   5.303  11.751  0.00  0.00     0.091 C 
ATOM      4  O5S SGN d 304      16.233   6.993   8.034  0.00  0.00    -0.572 OA
ATOM      5  O3  SGN d 304      19.030   3.849  13.780  0.00  0.00    -0.391 OA
ATOM      6  C3  SGN d 304      17.710   4.286  13.510  0.00  0.00     0.083 C 
ATOM      7  O4  SGN d 304      18.600   5.951  11.958  0.00  0.00    -0.348 OA
ATOM      8  O5  SGN d 304      15.317   4.227  11.887  0.00  0.00    -0.349 OA
ATOM      9  C4  SGN d 304      17.663   4.839  12.079  0.00  0.00     0.095 C 
ATOM     10  O4S SGN d 304      13.735   7.264   8.027  0.00  0.00    -0.572 OA
ATOM     11  O6S SGN d 304      14.787   5.185   7.490  0.00  0.00    -0.572 OA
ATOM     12  O6  SGN d 304      14.858   6.163   9.830  0.00  0.00    -0.254 OA
ATOM     13  C6  SGN d 304      16.148   5.744  10.252  0.00  0.00     0.067 C 
ATOM     14  C2  SGN d 304      16.736   3.077  13.447  0.00  0.00     0.081 C 
ATOM     15  O3S SGN d 304      17.890   0.379  13.551  0.00  0.00    -0.296 OA
ATOM     16  C1  SGN d 304      15.314   3.588  13.211  0.00  0.00     0.150 C 
ATOM     17  O1S SGN d 304      16.547   0.019  15.517  0.00  0.00    -0.296 OA
ATOM     18  S1  SGN d 304      16.582   0.734  14.274  0.00  0.00     0.156 S 
ATOM     19  S2  SGN d 304      14.910   6.481   8.295  0.00  0.00     0.251 S 
ATOM     20  H   SGN d 304      15.864   2.612  15.198  0.00  0.00     0.140 HD
ATOM     21  H   SGN d 304      15.709   1.196  12.509  0.00  0.00     0.231 HD
ATOM     22  H   SGN d 304      15.979   6.103  12.419  0.00  0.00     0.090 H 
ATOM     23  H   SGN d 304      19.076   3.496  14.682  0.00  0.00     0.210 HD
ATOM     24  H   SGN d 304      17.445   4.991  14.270  0.00  0.00     0.089 H 
ATOM     25  H   SGN d 304      17.943   4.075  11.384  0.00  0.00     0.091 H 
ATOM     26  H   SGN d 304      16.447   4.915   9.644  0.00  0.00     0.080 H 
ATOM     27  H   SGN d 304      16.793   6.591  10.150  0.00  0.00     0.080 H 
ATOM     28  H   SGN d 304      17.097   2.449  12.660  0.00  0.00     0.076 H 
ATOM     29  H   SGN d 304      17.933   0.854  12.706  0.00  0.00     0.231 HD
ATOM     30  H   SGN d 304      14.538   2.851  13.181  0.00  0.00     0.131 H 
ATOM     31  H   SGN d 304      15.726   0.231  15.989  0.00  0.00     0.231 HD
ATOM     32  O6S SGN d 306      15.082  10.078  18.888  0.00  0.00    -0.572 OA
ATOM     33  O5S SGN d 306      14.697   9.222  21.125  0.00  0.00    -0.572 OA
ATOM     34  O2S SGN d 306       8.216   8.625  14.738  0.00  0.00    -0.296 OA
ATOM     35  C1  SGN d 306       9.578   8.531  17.798  0.00  0.00     0.038 C 
ATOM     36  N   SGN d 306       8.099   7.072  16.617  0.00  0.00    -0.212 NA
ATOM     37  O3  SGN d 306       9.925   5.053  16.509  0.00  0.00    -0.391 OA
ATOM     38  S2  SGN d 306      14.118  10.082  20.093  0.00  0.00     0.251 S 
ATOM     39  C3  SGN d 306      10.107   6.136  17.431  0.00  0.00     0.081 C 
ATOM     40  O3S SGN d 306       8.578   6.270  14.219  0.00  0.00    -0.296 OA
ATOM     41  O4S SGN d 306      13.732  11.447  20.351  0.00  0.00    -0.572 OA
ATOM     42  O5  SGN d 306      10.956   8.841  18.048  0.00  0.00    -0.379 OA
ATOM     43  S1  SGN d 306       7.701   7.266  15.044  0.00  0.00     0.156 S 
ATOM     44  O6  SGN d 306      12.816   9.373  19.720  0.00  0.00    -0.254 OA
ATOM     45  C2  SGN d 306       9.462   7.351  16.860  0.00  0.00     0.054 C 
ATOM     46  C5  SGN d 306      11.649   7.701  18.603  0.00  0.00     0.087 C 
ATOM     47  C6  SGN d 306      13.060   8.213  18.869  0.00  0.00     0.067 C 
ATOM     48  O1S SGN d 306       6.275   6.917  14.954  0.00  0.00    -0.296 OA
ATOM     49  O4  SGN d 306      12.286   5.256  18.170  0.00  0.00    -0.348 OA
ATOM     50  C4  SGN d 306      11.590   6.471  17.637  0.00  0.00     0.095 C 
ATOM     51  H   SGN d 306       9.178   8.640  14.859  0.00  0.00     0.231 HD
ATOM     52  H   SGN d 306       9.098   8.293  18.724  0.00  0.00     0.077 H 
ATOM     53  H   SGN d 306       9.110   9.380  17.346  0.00  0.00     0.077 H 
ATOM     54  H   SGN d 306       7.529   7.703  17.180  0.00  0.00     0.140 HD
ATOM     55  H   SGN d 306       8.977   4.873  16.407  0.00  0.00     0.210 HD
ATOM     56  H   SGN d 306       9.680   5.842  18.368  0.00  0.00     0.089 H 
ATOM     57  H   SGN d 306       9.512   6.522  14.294  0.00  0.00     0.231 HD
ATOM     58  H   SGN d 306       9.960   7.606  15.949  0.00  0.00     0.072 H 
ATOM     59  H   SGN d 306      11.204   7.333  19.505  0.00  0.00     0.090 H 
ATOM     60  H   SGN d 306      13.650   7.477  19.375  0.00  0.00     0.080 H 
ATOM     61  H   SGN d 306      13.607   8.442  17.978  0.00  0.00     0.080 H 
ATOM     62  H   SGN d 306       5.754   7.549  15.474  0.00  0.00     0.231 HD
ATOM     63  H   SGN d 306      12.092   6.734  16.730  0.00  0.00     0.091 H 
ATOM     64  O6S SGN d 302      28.883   3.366  11.066  0.00  0.00    -0.572 OA
ATOM     65  O2S SGN d 302      23.260   9.428  10.171  0.00  0.00    -0.296 OA
ATOM     66  O5S SGN d 302      27.955   1.497   9.827  0.00  0.00    -0.572 OA
ATOM     67  C5  SGN d 302      25.427   4.678   8.957  0.00  0.00     0.091 C 
ATOM     68  O4  SGN d 302      26.234   4.327   6.692  0.00  0.00    -0.348 OA
ATOM     69  O3  SGN d 302      24.837   6.852   5.931  0.00  0.00    -0.391 OA
ATOM     70  C6  SGN d 302      26.618   3.831   9.442  0.00  0.00     0.067 C 
ATOM     71  S1  SGN d 302      23.105   9.676   8.762  0.00  0.00     0.156 S 
ATOM     72  N   SGN d 302      23.213   8.187   7.956  0.00  0.00    -0.210 NA
ATOM     73  O4S SGN d 302      27.531   1.875  12.315  0.00  0.00    -0.572 OA
ATOM     74  O6  SGN d 302      26.380   3.144  10.643  0.00  0.00    -0.254 OA
ATOM     75  O5  SGN d 302      25.075   5.683   9.988  0.00  0.00    -0.349 OA
ATOM     76  C4  SGN d 302      25.808   5.363   7.642  0.00  0.00     0.095 C 
ATOM     77  S2  SGN d 302      27.708   2.378  10.982  0.00  0.00     0.251 S 
ATOM     78  C1  SGN d 302      24.008   6.650   9.609  0.00  0.00     0.150 C 
ATOM     79  C2  SGN d 302      24.317   7.275   8.244  0.00  0.00     0.081 C 
ATOM     80  O1S SGN d 302      21.909  10.266   8.226  0.00  0.00    -0.296 OA
ATOM     81  C3  SGN d 302      24.561   6.196   7.164  0.00  0.00     0.083 C 
ATOM     82  O3S SGN d 302      24.295  10.567   8.441  0.00  0.00    -0.296 OA
ATOM     83  H   SGN d 302      22.539   8.859  10.481  0.00  0.00     0.231 HD
ATOM     84  H   SGN d 302      24.574   4.053   8.792  0.00  0.00     0.090 H 
ATOM     85  H   SGN d 302      24.993   6.190   5.240  0.00  0.00     0.210 HD
ATOM     86  H   SGN d 302      27.456   4.480   9.586  0.00  0.00     0.080 H 
ATOM     87  H   SGN d 302      26.795   3.089   8.692  0.00  0.00     0.080 H 
ATOM     88  H   SGN d 302      23.256   8.395   6.959  0.00  0.00     0.140 HD
ATOM     89  H   SGN d 302      26.629   6.044   7.741  0.00  0.00     0.091 H 
ATOM     90  H   SGN d 302      24.032   7.380  10.390  0.00  0.00     0.131 H 
ATOM     91  H   SGN d 302      25.234   7.827   8.250  0.00  0.00     0.076 H 
ATOM     92  H   SGN d 302      21.149   9.699   8.430  0.00  0.00     0.231 HD
ATOM     93  H   SGN d 302      23.717   5.553   7.025  0.00  0.00     0.089 H 
ATOM     94  H   SGN d 302      25.103  10.170   8.803  0.00  0.00     0.231 HD
ATOM     95  O5  IDS d 303      20.005   5.054  10.160  0.00  0.00    -0.340 OA
ATOM     96  O2S IDS d 303      17.638   8.719   9.610  0.00  0.00    -0.572 OA
ATOM     97  O4  IDS d 303      22.661   6.150   9.617  0.00  0.00    -0.348 OA
ATOM     98  O1S IDS d 303      18.868   9.278   7.493  0.00  0.00    -0.572 OA
ATOM     99  C4  IDS d 303      22.128   6.045  10.939  0.00  0.00     0.103 C 
ATOM    100  S   IDS d 303      18.850   9.073   8.898  0.00  0.00     0.252 S 
ATOM    101  O2  IDS d 303      19.923   7.889   9.205  0.00  0.00    -0.244 OA
ATOM    102  O3  IDS d 303      20.998   7.011  12.806  0.00  0.00    -0.390 OA
ATOM    103  O61 IDS d 303      21.714   2.979   9.396  0.00  0.00    -0.646 OA
ATOM    104  C2  IDS d 303      19.913   7.520  10.658  0.00  0.00     0.134 C 
ATOM    105  C1  IDS d 303      19.165   6.178  10.666  0.00  0.00     0.161 C 
ATOM    106  O3S IDS d 303      19.328  10.394   9.514  0.00  0.00    -0.572 OA
ATOM    107  C3  IDS d 303      21.327   7.303  11.436  0.00  0.00     0.094 C 
ATOM    108  C5  IDS d 303      21.226   4.803  10.961  0.00  0.00     0.152 C 
ATOM    109  O62 IDS d 303      23.210   3.271  11.000  0.00  0.00    -0.646 OA
ATOM    110  C6  IDS d 303      22.064   3.605  10.399  0.00  0.00     0.206 C 
ATOM    111  H   IDS d 303      22.953   5.970  11.616  0.00  0.00     0.092 H 
ATOM    112  H   IDS d 303      21.814   6.873  13.312  0.00  0.00     0.210 HD
ATOM    113  H   IDS d 303      19.490   8.349  11.187  0.00  0.00     0.097 H 
ATOM    114  H   IDS d 303      18.354   6.227   9.971  0.00  0.00     0.133 H 
ATOM    115  H   IDS d 303      21.919   8.179  11.276  0.00  0.00     0.091 H 
ATOM    116  H   IDS d 303      20.901   4.571  11.954  0.00  0.00     0.104 H 
ATOM    117  C1  UAP d 301      25.408   3.345   6.095  0.00  0.00     0.167 C 
ATOM    118  C5  UAP d 301      24.528   2.792   3.955  0.00  0.00     0.147 C 
ATOM    119  O61 UAP d 301      23.290   2.577   1.900  0.00  0.00    -0.642 OA
ATOM    120  C2  UAP d 301      26.261   1.997   6.045  0.00  0.00     0.135 C 
ATOM    121  O62 UAP d 301      23.779   4.687   2.517  0.00  0.00    -0.642 OA
ATOM    122  O3  UAP d 301      24.355   0.449   6.421  0.00  0.00    -0.389 OA
ATOM    123  O5  UAP d 301      25.063   3.761   4.751  0.00  0.00    -0.311 OA
ATOM    124  C6  UAP d 301      23.822   3.329   2.725  0.00  0.00     0.233 C 
ATOM    125  O2  UAP d 301      27.501   2.134   5.185  0.00  0.00    -0.244 OA
ATOM    126  C3  UAP d 301      25.323   0.877   5.427  0.00  0.00     0.086 C 
ATOM    127  O2S UAP d 301      28.616   3.270   7.059  0.00  0.00    -0.572 OA
ATOM    128  C4  UAP d 301      24.588   1.449   4.182  0.00  0.00    -0.034 C 
ATOM    129  O3S UAP d 301      29.028   0.862   6.866  0.00  0.00    -0.572 OA
ATOM    130  O1S UAP d 301      29.999   2.291   5.158  0.00  0.00    -0.572 OA
ATOM    131  S   UAP d 301      28.863   2.196   6.073  0.00  0.00     0.252 S 
ATOM    132  H   UAP d 301      24.503   3.205   6.648  0.00  0.00     0.134 H 
ATOM    133  H   UAP d 301      26.588   1.752   7.034  0.00  0.00     0.097 H 
ATOM    134  H   UAP d 301      24.820   0.094   7.195  0.00  0.00     0.210 HD
ATOM    135  H   UAP d 301      25.914   0.036   5.132  0.00  0.00     0.093 H 
ATOM    136  H   UAP d 301      24.138   0.802   3.516  0.00  0.00     0.085 H 
ATOM    137  C5  IDS d 305      13.533   5.999  15.581  0.00  0.00     0.152 C 
ATOM    138  O2  IDS d 305      15.150   3.091  17.075  0.00  0.00    -0.244 OA
ATOM    139  C6  IDS d 305      14.106   7.136  14.762  0.00  0.00     0.206 C 
ATOM    140  O61 IDS d 305      15.053   7.809  15.186  0.00  0.00    -0.646 OA
ATOM    141  O2S IDS d 305      15.073   2.744  19.509  0.00  0.00    -0.572 OA
ATOM    142  O62 IDS d 305      13.550   7.413  13.573  0.00  0.00    -0.646 OA
ATOM    143  O5  IDS d 305      14.268   5.894  16.854  0.00  0.00    -0.340 OA
ATOM    144  C3  IDS d 305      13.070   3.459  15.685  0.00  0.00     0.094 C 
ATOM    145  O4  IDS d 305      15.025   4.490  14.373  0.00  0.00    -0.348 OA
ATOM    146  O1S IDS d 305      16.900   1.755  18.138  0.00  0.00    -0.572 OA
ATOM    147  C2  IDS d 305      13.737   3.447  17.125  0.00  0.00     0.134 C 
ATOM    148  C1  IDS d 305      13.663   4.885  17.748  0.00  0.00     0.161 C 
ATOM    149  C4  IDS d 305      13.637   4.655  14.774  0.00  0.00     0.103 C 
ATOM    150  O3  IDS d 305      11.697   3.719  15.900  0.00  0.00    -0.390 OA
ATOM    151  S   IDS d 305      15.507   2.094  18.281  0.00  0.00     0.252 S 
ATOM    152  O3S IDS d 305      14.662   0.814  18.095  0.00  0.00    -0.572 OA
ATOM    153  H   IDS d 305      12.501   6.191  15.788  0.00  0.00     0.104 H 
ATOM    154  H   IDS d 305      13.269   2.532  15.188  0.00  0.00     0.091 H 
ATOM    155  H   IDS d 305      13.202   2.724  17.705  0.00  0.00     0.097 H 
ATOM    156  H   IDS d 305      14.249   4.866  18.643  0.00  0.00     0.133 H 
ATOM    157  H   IDS d 305      13.045   4.657  13.884  0.00  0.00     0.092 H 
ATOM    158  H   IDS d 305      11.597   4.572  16.351  0.00  0.00     0.210 HD
ENDROOT
TORSDOF 49
ENDMDL
MODEL 32
REMARK VINA RESULT:      -6.3      4.979      6.869
REMARK  0 active torsions:
REMARK  status: ('A' for Active; 'I' for Inactive)
REMARK       I    between atoms: N_1  and  C2_65 
REMARK       I    between atoms: N_1  and  S1_100 
REMARK       I    between atoms: O2S_4  and  S1_36 
REMARK       I    between atoms: O2S_5  and  S1_100 
REMARK       I    between atoms: C5_7  and  C6_64 
REMARK       I    between atoms: O3_11  and  C3_17 
REMARK       I    between atoms: C1_12  and  O4_28 
REMARK       I    between atoms: C5_13  and  C6_35 
REMARK       I    between atoms: C5_14  and  C6_52 
REMARK       I    between atoms: O2S_16  and  S1_75 
REMARK       I    between atoms: C2_18  and  O2_63 
REMARK       I    between atoms: C5_19  and  C6_22 
REMARK       I    between atoms: O2_20  and  C2_53 
REMARK       I    between atoms: O2_20  and  S_86 
REMARK       I    between atoms: O4_21  and  C1_67 
REMARK       I    between atoms: O4_21  and  C4_48 
REMARK       I    between atoms: O3_26  and  C3_72 
REMARK       I    between atoms: O4_28  and  C4_71 
REMARK       I    between atoms: O3_30  and  C3_94 
REMARK       I    between atoms: N_33  and  C2_82 
REMARK       I    between atoms: N_33  and  S1_75 
REMARK       I    between atoms: C6_35  and  O6_59 
REMARK       I    between atoms: S1_36  and  N_37 
REMARK       I    between atoms: S1_36  and  O1S_89 
REMARK       I    between atoms: S1_36  and  O3S_97 
REMARK       I    between atoms: N_37  and  C2_78 
REMARK       I    between atoms: C3_38  and  O3_81 
REMARK       I    between atoms: O4_39  and  C1_85 
REMARK       I    between atoms: O4_39  and  C4_69 
REMARK       I    between atoms: O3_40  and  C3_47 
REMARK       I    between atoms: O4_41  and  C1_76 
REMARK       I    between atoms: O4_41  and  C4_43 
REMARK       I    between atoms: S2_44  and  O6_80 
REMARK       I    between atoms: S_46  and  O2_57 
REMARK       I    between atoms: O3S_49  and  S1_75 
REMARK       I    between atoms: C1_54  and  O4_96 
REMARK       I    between atoms: O2_57  and  C2_66 
REMARK       I    between atoms: O6_58  and  C6_64 
REMARK       I    between atoms: O6_58  and  S2_101 
REMARK       I    between atoms: O6_59  and  S2_73 
REMARK       I    between atoms: O3_61  and  C3_77 
REMARK       I    between atoms: O2_63  and  S_104 
REMARK       I    between atoms: S1_75  and  O1S_92 
REMARK       I    between atoms: O6_80  and  C6_88 
REMARK       I    between atoms: C5_83  and  C6_88 
REMARK       I    between atoms: O3S_84  and  S1_100 
REMARK       I    between atoms: C5_87  and  C6_103 
REMARK       I    between atoms: O1S_91  and  S1_100 
REMARK       I    between atoms: O4_96  and  C4_99 
ROOT
ATOM      1  N   SGN d 304      23.988  11.804  12.091  0.00  0.00    -0.210 NA
ATOM      2  O2S SGN d 304      23.573  14.064  11.131  0.00  0.00    -0.296 OA
ATOM      3  C5  SGN d 304      21.080  10.033   9.668  0.00  0.00     0.091 C 
ATOM      4  O5S SGN d 304      17.481   9.580   7.791  0.00  0.00    -0.572 OA
ATOM      5  O3  SGN d 304      21.936  10.118  13.322  0.00  0.00    -0.391 OA
ATOM      6  C3  SGN d 304      22.184  10.102  11.929  0.00  0.00     0.083 C 
ATOM      7  O4  SGN d 304      20.131   8.818  11.597  0.00  0.00    -0.348 OA
ATOM      8  O5  SGN d 304      21.781  11.200   9.284  0.00  0.00    -0.349 OA
ATOM      9  C4  SGN d 304      20.837  10.029  11.195  0.00  0.00     0.095 C 
ATOM     10  O4S SGN d 304      18.497   9.914   5.517  0.00  0.00    -0.572 OA
ATOM     11  O6S SGN d 304      17.941  11.753   6.942  0.00  0.00    -0.572 OA
ATOM     12  O6  SGN d 304      19.809  10.132   7.506  0.00  0.00    -0.254 OA
ATOM     13  C6  SGN d 304      19.706  10.092   8.922  0.00  0.00     0.067 C 
ATOM     14  C2  SGN d 304      22.760  11.467  11.460  0.00  0.00     0.081 C 
ATOM     15  O3S SGN d 304      22.840  13.662  13.408  0.00  0.00    -0.296 OA
ATOM     16  C1  SGN d 304      23.069  11.396   9.964  0.00  0.00     0.150 C 
ATOM     17  O1S SGN d 304      25.221  13.721  13.052  0.00  0.00    -0.296 OA
ATOM     18  S1  SGN d 304      23.978  13.423  12.403  0.00  0.00     0.156 S 
ATOM     19  S2  SGN d 304      18.371  10.284   6.900  0.00  0.00     0.251 S 
ATOM     20  H   SGN d 304      24.768  11.577  11.475  0.00  0.00     0.140 HD
ATOM     21  H   SGN d 304      22.705  13.728  10.861  0.00  0.00     0.231 HD
ATOM     22  H   SGN d 304      21.634   9.151   9.422  0.00  0.00     0.090 H 
ATOM     23  H   SGN d 304      22.778  10.164  13.800  0.00  0.00     0.210 HD
ATOM     24  H   SGN d 304      22.845   9.284  11.730  0.00  0.00     0.089 H 
ATOM     25  H   SGN d 304      20.238  10.878  11.449  0.00  0.00     0.091 H 
ATOM     26  H   SGN d 304      19.187  10.970   9.245  0.00  0.00     0.080 H 
ATOM     27  H   SGN d 304      19.188   9.188   9.165  0.00  0.00     0.080 H 
ATOM     28  H   SGN d 304      22.021  12.199  11.707  0.00  0.00     0.076 H 
ATOM     29  H   SGN d 304      21.989  13.466  12.986  0.00  0.00     0.231 HD
ATOM     30  H   SGN d 304      23.506  12.268   9.522  0.00  0.00     0.131 H 
ATOM     31  H   SGN d 304      25.953  13.575  12.432  0.00  0.00     0.231 HD
ATOM     32  O6S SGN d 306      27.040   3.747   9.600  0.00  0.00    -0.572 OA
ATOM     33  O5S SGN d 306      29.340   3.961  10.344  0.00  0.00    -0.572 OA
ATOM     34  O2S SGN d 306      26.562   7.936   2.622  0.00  0.00    -0.296 OA
ATOM     35  C1  SGN d 306      28.706   6.790   4.927  0.00  0.00     0.038 C 
ATOM     36  N   SGN d 306      28.554   8.838   3.705  0.00  0.00    -0.212 NA
ATOM     37  O3  SGN d 306      28.037  10.312   5.937  0.00  0.00    -0.391 OA
ATOM     38  S2  SGN d 306      28.519   3.609   9.184  0.00  0.00     0.251 S 
ATOM     39  C3  SGN d 306      28.582   8.992   6.060  0.00  0.00     0.081 C 
ATOM     40  O3S SGN d 306      26.367  10.185   3.542  0.00  0.00    -0.296 OA
ATOM     41  O4S SGN d 306      28.670   2.358   8.482  0.00  0.00    -0.572 OA
ATOM     42  O5  SGN d 306      28.283   6.106   6.115  0.00  0.00    -0.379 OA
ATOM     43  S1  SGN d 306      27.295   9.222   2.735  0.00  0.00     0.156 S 
ATOM     44  O6  SGN d 306      28.873   4.680   8.153  0.00  0.00    -0.254 OA
ATOM     45  C2  SGN d 306      28.136   8.189   4.887  0.00  0.00     0.054 C 
ATOM     46  C5  SGN d 306      28.682   6.833   7.298  0.00  0.00     0.087 C 
ATOM     47  C6  SGN d 306      28.221   5.951   8.453  0.00  0.00     0.067 C 
ATOM     48  O1S SGN d 306      27.889   9.905   1.575  0.00  0.00    -0.296 OA
ATOM     49  O4  SGN d 306      28.461   9.077   8.519  0.00  0.00    -0.348 OA
ATOM     50  C4  SGN d 306      28.070   8.274   7.316  0.00  0.00     0.095 C 
ATOM     51  H   SGN d 306      26.254   7.661   3.499  0.00  0.00     0.231 HD
ATOM     52  H   SGN d 306      29.775   6.845   4.915  0.00  0.00     0.077 H 
ATOM     53  H   SGN d 306      28.355   6.249   4.073  0.00  0.00     0.077 H 
ATOM     54  H   SGN d 306      29.184   8.219   3.196  0.00  0.00     0.140 HD
ATOM     55  H   SGN d 306      28.384  10.731   5.133  0.00  0.00     0.210 HD
ATOM     56  H   SGN d 306      29.647   9.083   6.118  0.00  0.00     0.089 H 
ATOM     57  H   SGN d 306      25.989   9.712   4.300  0.00  0.00     0.231 HD
ATOM     58  H   SGN d 306      27.070   8.109   4.914  0.00  0.00     0.072 H 
ATOM     59  H   SGN d 306      29.736   7.008   7.352  0.00  0.00     0.090 H 
ATOM     60  H   SGN d 306      28.549   6.342   9.393  0.00  0.00     0.080 H 
ATOM     61  H   SGN d 306      27.158   5.877   8.538  0.00  0.00     0.080 H 
ATOM     62  H   SGN d 306      28.459   9.286   1.093  0.00  0.00     0.231 HD
ATOM     63  H   SGN d 306      27.005   8.185   7.345  0.00  0.00     0.091 H 
ATOM     64  O6S SGN d 302      15.400   9.076  21.125  0.00  0.00    -0.572 OA
ATOM     65  O2S SGN d 302      15.933   5.047  13.869  0.00  0.00    -0.296 OA
ATOM     66  O5S SGN d 302      15.033  11.392  20.501  0.00  0.00    -0.572 OA
ATOM     67  C5  SGN d 302      14.777   9.299  16.920  0.00  0.00     0.091 C 
ATOM     68  O4  SGN d 302      12.487  10.113  16.941  0.00  0.00    -0.348 OA
ATOM     69  O3  SGN d 302      11.961   8.330  14.605  0.00  0.00    -0.391 OA
ATOM     70  C6  SGN d 302      14.848   9.660  18.416  0.00  0.00     0.067 C 
ATOM     71  S1  SGN d 302      14.707   5.276  13.151  0.00  0.00     0.156 S 
ATOM     72  N   SGN d 302      14.212   6.869  13.458  0.00  0.00    -0.210 NA
ATOM     73  O4S SGN d 302      17.352  10.398  20.886  0.00  0.00    -0.572 OA
ATOM     74  O6  SGN d 302      16.136   9.992  18.864  0.00  0.00    -0.254 OA
ATOM     75  O5  SGN d 302      15.661   8.144  16.642  0.00  0.00    -0.349 OA
ATOM     76  C4  SGN d 302      13.326   8.969  16.558  0.00  0.00     0.095 C 
ATOM     77  S2  SGN d 302      16.005  10.289  20.400  0.00  0.00     0.251 S 
ATOM     78  C1  SGN d 302      15.610   7.611  15.253  0.00  0.00     0.150 C 
ATOM     79  C2  SGN d 302      14.157   7.369  14.830  0.00  0.00     0.081 C 
ATOM     80  O1S SGN d 302      14.638   5.169  11.719  0.00  0.00    -0.296 OA
ATOM     81  C3  SGN d 302      13.288   8.633  15.021  0.00  0.00     0.083 C 
ATOM     82  O3S SGN d 302      13.754   4.270  13.778  0.00  0.00    -0.296 OA
ATOM     83  H   SGN d 302      16.618   5.650  13.539  0.00  0.00     0.231 HD
ATOM     84  H   SGN d 302      15.107  10.126  16.327  0.00  0.00     0.090 H 
ATOM     85  H   SGN d 302      11.400   9.114  14.718  0.00  0.00     0.210 HD
ATOM     86  H   SGN d 302      14.501   8.821  18.981  0.00  0.00     0.080 H 
ATOM     87  H   SGN d 302      14.240  10.530  18.553  0.00  0.00     0.080 H 
ATOM     88  H   SGN d 302      13.272   6.964  13.072  0.00  0.00     0.140 HD
ATOM     89  H   SGN d 302      12.942   8.118  17.082  0.00  0.00     0.091 H 
ATOM     90  H   SGN d 302      16.161   6.696  15.306  0.00  0.00     0.131 H 
ATOM     91  H   SGN d 302      13.671   6.642  15.447  0.00  0.00     0.076 H 
ATOM     92  H   SGN d 302      15.245   5.810  11.318  0.00  0.00     0.231 HD
ATOM     93  H   SGN d 302      13.641   9.466  14.450  0.00  0.00     0.089 H 
ATOM     94  H   SGN d 302      13.799   4.339  14.744  0.00  0.00     0.231 HD
ATOM     95  O5  IDS d 303      18.096   9.857  12.488  0.00  0.00    -0.340 OA
ATOM     96  O2S IDS d 303      17.969   7.183   8.999  0.00  0.00    -0.572 OA
ATOM     97  O4  IDS d 303      16.283   8.385  14.246  0.00  0.00    -0.348 OA
ATOM     98  O1S IDS d 303      15.466   7.012   9.135  0.00  0.00    -0.572 OA
ATOM     99  C4  IDS d 303      17.701   8.212  14.286  0.00  0.00     0.103 C 
ATOM    100  S   IDS d 303      16.756   6.786   9.686  0.00  0.00     0.252 S 
ATOM    101  O2  IDS d 303      16.779   7.539  11.128  0.00  0.00    -0.244 OA
ATOM    102  O3  IDS d 303      19.666   7.023  13.637  0.00  0.00    -0.390 OA
ATOM    103  O61 IDS d 303      17.059  11.606  14.403  0.00  0.00    -0.646 OA
ATOM    104  C2  IDS d 303      18.137   7.448  11.757  0.00  0.00     0.134 C 
ATOM    105  C1  IDS d 303      18.704   8.862  11.557  0.00  0.00     0.161 C 
ATOM    106  O3S IDS d 303      16.862   5.267   9.880  0.00  0.00    -0.572 OA
ATOM    107  C3  IDS d 303      18.260   7.087  13.341  0.00  0.00     0.094 C 
ATOM    108  C5  IDS d 303      18.329   9.565  13.921  0.00  0.00     0.152 C 
ATOM    109  O62 IDS d 303      17.787  10.508  16.180  0.00  0.00    -0.646 OA
ATOM    110  C6  IDS d 303      17.685  10.645  14.855  0.00  0.00     0.206 C 
ATOM    111  H   IDS d 303      17.961   7.886  15.271  0.00  0.00     0.092 H 
ATOM    112  H   IDS d 303      19.790   6.809  14.575  0.00  0.00     0.210 HD
ATOM    113  H   IDS d 303      18.639   6.622  11.298  0.00  0.00     0.097 H 
ATOM    114  H   IDS d 303      18.427   9.214  10.586  0.00  0.00     0.133 H 
ATOM    115  H   IDS d 303      17.708   6.185  13.508  0.00  0.00     0.091 H 
ATOM    116  H   IDS d 303      19.389   9.558  14.067  0.00  0.00     0.104 H 
ATOM    117  C1  UAP d 301      12.487  11.393  16.336  0.00  0.00     0.167 C 
ATOM    118  C5  UAP d 301      11.066  12.750  14.994  0.00  0.00     0.147 C 
ATOM    119  O61 UAP d 301       9.814  13.853  13.257  0.00  0.00    -0.642 OA
ATOM    120  C2  UAP d 301      12.318  12.456  17.514  0.00  0.00     0.135 C 
ATOM    121  O62 UAP d 301       9.775  11.602  13.197  0.00  0.00    -0.642 OA
ATOM    122  O3  UAP d 301      13.744  14.221  16.502  0.00  0.00    -0.389 OA
ATOM    123  O5  UAP d 301      11.370  11.491  15.419  0.00  0.00    -0.311 OA
ATOM    124  C6  UAP d 301      10.183  12.785  13.762  0.00  0.00     0.233 C 
ATOM    125  O2  UAP d 301      11.001  12.297  18.246  0.00  0.00    -0.244 OA
ATOM    126  C3  UAP d 301      12.372  13.896  16.851  0.00  0.00     0.086 C 
ATOM    127  O2S UAP d 301      11.982  10.425  19.504  0.00  0.00    -0.572 OA
ATOM    128  C4  UAP d 301      11.481  13.911  15.577  0.00  0.00    -0.034 C 
ATOM    129  O3S UAP d 301      12.064  12.615  20.601  0.00  0.00    -0.572 OA
ATOM    130  O1S UAP d 301       9.880  11.577  20.366  0.00  0.00    -0.572 OA
ATOM    131  S   UAP d 301      11.194  11.656  19.730  0.00  0.00     0.252 S 
ATOM    132  H   UAP d 301      13.389  11.568  15.789  0.00  0.00     0.134 H 
ATOM    133  H   UAP d 301      13.098  12.311  18.233  0.00  0.00     0.097 H 
ATOM    134  H   UAP d 301      14.293  14.209  17.301  0.00  0.00     0.210 HD
ATOM    135  H   UAP d 301      12.007  14.624  17.545  0.00  0.00     0.093 H 
ATOM    136  H   UAP d 301      11.200  14.814  15.165  0.00  0.00     0.085 H 
ATOM    137  C5  IDS d 305      25.501   8.873   8.441  0.00  0.00     0.152 C 
ATOM    138  O2  IDS d 305      26.651  10.739  11.357  0.00  0.00    -0.244 OA
ATOM    139  C6  IDS d 305      24.327   7.931   8.271  0.00  0.00     0.206 C 
ATOM    140  O61 IDS d 305      24.178   6.961   9.023  0.00  0.00    -0.646 OA
ATOM    141  O2S IDS d 305      28.902  10.349  12.268  0.00  0.00    -0.572 OA
ATOM    142  O62 IDS d 305      23.462   8.161   7.271  0.00  0.00    -0.646 OA
ATOM    143  O5  IDS d 305      26.333   8.417   9.569  0.00  0.00    -0.340 OA
ATOM    144  C3  IDS d 305      26.244  11.300   8.924  0.00  0.00     0.094 C 
ATOM    145  O4  IDS d 305      24.061  10.282   9.822  0.00  0.00    -0.348 OA
ATOM    146  O1S IDS d 305      27.083  11.248  13.709  0.00  0.00    -0.572 OA
ATOM    147  C2  IDS d 305      27.237  10.724  10.021  0.00  0.00     0.134 C 
ATOM    148  C1  IDS d 305      27.564   9.224   9.696  0.00  0.00     0.161 C 
ATOM    149  C4  IDS d 305      24.982  10.333   8.697  0.00  0.00     0.103 C 
ATOM    150  O3  IDS d 305      26.976  11.315   7.714  0.00  0.00    -0.390 OA
ATOM    151  S   IDS d 305      27.745  11.217  12.429  0.00  0.00     0.252 S 
ATOM    152  O3S IDS d 305      28.170  12.654  12.054  0.00  0.00    -0.572 OA
ATOM    153  H   IDS d 305      26.092   8.873   7.550  0.00  0.00     0.104 H 
ATOM    154  H   IDS d 305      25.885  12.259   9.233  0.00  0.00     0.091 H 
ATOM    155  H   IDS d 305      28.109  11.345  10.002  0.00  0.00     0.097 H 
ATOM    156  H   IDS d 305      28.110   8.838  10.531  0.00  0.00     0.133 H 
ATOM    157  H   IDS d 305      24.446  10.736   7.863  0.00  0.00     0.092 H 
ATOM    158  H   IDS d 305      27.267  10.415   7.502  0.00  0.00     0.210 HD
ENDROOT
TORSDOF 49
ENDMDL
MODEL 33
REMARK VINA RESULT:      -6.1      5.046     15.847
REMARK  0 active torsions:
REMARK  status: ('A' for Active; 'I' for Inactive)
REMARK       I    between atoms: N_1  and  C2_65 
REMARK       I    between atoms: N_1  and  S1_100 
REMARK       I    between atoms: O2S_4  and  S1_36 
REMARK       I    between atoms: O2S_5  and  S1_100 
REMARK       I    between atoms: C5_7  and  C6_64 
REMARK       I    between atoms: O3_11  and  C3_17 
REMARK       I    between atoms: C1_12  and  O4_28 
REMARK       I    between atoms: C5_13  and  C6_35 
REMARK       I    between atoms: C5_14  and  C6_52 
REMARK       I    between atoms: O2S_16  and  S1_75 
REMARK       I    between atoms: C2_18  and  O2_63 
REMARK       I    between atoms: C5_19  and  C6_22 
REMARK       I    between atoms: O2_20  and  C2_53 
REMARK       I    between atoms: O2_20  and  S_86 
REMARK       I    between atoms: O4_21  and  C1_67 
REMARK       I    between atoms: O4_21  and  C4_48 
REMARK       I    between atoms: O3_26  and  C3_72 
REMARK       I    between atoms: O4_28  and  C4_71 
REMARK       I    between atoms: O3_30  and  C3_94 
REMARK       I    between atoms: N_33  and  C2_82 
REMARK       I    between atoms: N_33  and  S1_75 
REMARK       I    between atoms: C6_35  and  O6_59 
REMARK       I    between atoms: S1_36  and  N_37 
REMARK       I    between atoms: S1_36  and  O1S_89 
REMARK       I    between atoms: S1_36  and  O3S_97 
REMARK       I    between atoms: N_37  and  C2_78 
REMARK       I    between atoms: C3_38  and  O3_81 
REMARK       I    between atoms: O4_39  and  C1_85 
REMARK       I    between atoms: O4_39  and  C4_69 
REMARK       I    between atoms: O3_40  and  C3_47 
REMARK       I    between atoms: O4_41  and  C1_76 
REMARK       I    between atoms: O4_41  and  C4_43 
REMARK       I    between atoms: S2_44  and  O6_80 
REMARK       I    between atoms: S_46  and  O2_57 
REMARK       I    between atoms: O3S_49  and  S1_75 
REMARK       I    between atoms: C1_54  and  O4_96 
REMARK       I    between atoms: O2_57  and  C2_66 
REMARK       I    between atoms: O6_58  and  C6_64 
REMARK       I    between atoms: O6_58  and  S2_101 
REMARK       I    between atoms: O6_59  and  S2_73 
REMARK       I    between atoms: O3_61  and  C3_77 
REMARK       I    between atoms: O2_63  and  S_104 
REMARK       I    between atoms: S1_75  and  O1S_92 
REMARK       I    between atoms: O6_80  and  C6_88 
REMARK       I    between atoms: C5_83  and  C6_88 
REMARK       I    between atoms: O3S_84  and  S1_100 
REMARK       I    between atoms: C5_87  and  C6_103 
REMARK       I    between atoms: O1S_91  and  S1_100 
REMARK       I    between atoms: O4_96  and  C4_99 
ROOT
ATOM      1  N   SGN d 304      21.889   6.359   8.204  0.00  0.00    -0.210 NA
ATOM      2  O2S SGN d 304      19.477   6.756   7.732  0.00  0.00    -0.296 OA
ATOM      3  C5  SGN d 304      21.960   9.228  11.243  0.00  0.00     0.091 C 
ATOM      4  O5S SGN d 304      21.242  12.794  13.097  0.00  0.00    -0.572 OA
ATOM      5  O3  SGN d 304      23.956   8.432   8.164  0.00  0.00    -0.391 OA
ATOM      6  C3  SGN d 304      23.187   8.161   9.321  0.00  0.00     0.083 C 
ATOM      7  O4  SGN d 304      24.041  10.209  10.345  0.00  0.00    -0.348 OA
ATOM      8  O5  SGN d 304      20.787   8.519  10.894  0.00  0.00    -0.349 OA
ATOM      9  C4  SGN d 304      22.821   9.496   9.987  0.00  0.00     0.095 C 
ATOM     10  O4S SGN d 304      19.697  11.741  14.775  0.00  0.00    -0.572 OA
ATOM     11  O6S SGN d 304      18.973  12.319  12.570  0.00  0.00    -0.572 OA
ATOM     12  O6  SGN d 304      20.649  10.462  12.992  0.00  0.00    -0.254 OA
ATOM     13  C6  SGN d 304      21.478  10.588  11.845  0.00  0.00     0.067 C 
ATOM     14  C2  SGN d 304      21.800   7.576   8.932  0.00  0.00     0.081 C 
ATOM     15  O3S SGN d 304      21.083   7.528   6.086  0.00  0.00    -0.296 OA
ATOM     16  C1  SGN d 304      21.020   7.242  10.205  0.00  0.00     0.150 C 
ATOM     17  O1S SGN d 304      20.859   5.140   6.315  0.00  0.00    -0.296 OA
ATOM     18  S1  SGN d 304      20.727   6.373   7.035  0.00  0.00     0.156 S 
ATOM     19  S2  SGN d 304      20.168  11.890  13.426  0.00  0.00     0.251 S 
ATOM     20  H   SGN d 304      21.738   5.569   8.831  0.00  0.00     0.140 HD
ATOM     21  H   SGN d 304      19.594   7.620   8.156  0.00  0.00     0.231 HD
ATOM     22  H   SGN d 304      22.557   8.670  11.935  0.00  0.00     0.090 H 
ATOM     23  H   SGN d 304      24.195   7.598   7.732  0.00  0.00     0.210 HD
ATOM     24  H   SGN d 304      23.757   7.497   9.937  0.00  0.00     0.089 H 
ATOM     25  H   SGN d 304      22.256  10.098   9.307  0.00  0.00     0.091 H 
ATOM     26  H   SGN d 304      20.929  11.112  11.091  0.00  0.00     0.080 H 
ATOM     27  H   SGN d 304      22.357  11.111  12.160  0.00  0.00     0.080 H 
ATOM     28  H   SGN d 304      21.327   8.319   8.326  0.00  0.00     0.076 H 
ATOM     29  H   SGN d 304      21.000   8.372   6.556  0.00  0.00     0.231 HD
ATOM     30  H   SGN d 304      20.056   6.797  10.073  0.00  0.00     0.131 H 
ATOM     31  H   SGN d 304      20.637   4.399   6.899  0.00  0.00     0.231 HD
ATOM     32  O6S SGN d 306      27.177   3.272  14.757  0.00  0.00    -0.572 OA
ATOM     33  O5S SGN d 306      27.443   0.985  13.992  0.00  0.00    -0.572 OA
ATOM     34  O2S SGN d 306      19.783   3.630  18.173  0.00  0.00    -0.296 OA
ATOM     35  C1  SGN d 306      22.049   1.525  16.884  0.00  0.00     0.038 C 
ATOM     36  N   SGN d 306      19.667   1.656  16.744  0.00  0.00    -0.212 NA
ATOM     37  O3  SGN d 306      19.699   2.209  14.076  0.00  0.00    -0.391 OA
ATOM     38  S2  SGN d 306      27.073   1.786  15.159  0.00  0.00     0.251 S 
ATOM     39  C3  SGN d 306      20.865   1.666  14.710  0.00  0.00     0.081 C 
ATOM     40  O3S SGN d 306      18.440   3.839  16.149  0.00  0.00    -0.296 OA
ATOM     41  O4S SGN d 306      27.712   1.624  16.441  0.00  0.00    -0.572 OA
ATOM     42  O5  SGN d 306      23.278   1.969  16.293  0.00  0.00    -0.379 OA
ATOM     43  S1  SGN d 306      18.791   2.897  17.345  0.00  0.00     0.156 S 
ATOM     44  O6  SGN d 306      25.610   1.414  15.403  0.00  0.00    -0.254 OA
ATOM     45  C2  SGN d 306      20.865   2.094  16.137  0.00  0.00     0.054 C 
ATOM     46  C5  SGN d 306      23.347   1.589  14.901  0.00  0.00     0.087 C 
ATOM     47  C6  SGN d 306      24.722   2.070  14.449  0.00  0.00     0.067 C 
ATOM     48  O1S SGN d 306      17.580   2.284  17.912  0.00  0.00    -0.296 OA
ATOM     49  O4  SGN d 306      22.178   1.829  12.631  0.00  0.00    -0.348 OA
ATOM     50  C4  SGN d 306      22.160   2.200  14.083  0.00  0.00     0.095 C 
ATOM     51  H   SGN d 306      20.501   3.953  17.607  0.00  0.00     0.231 HD
ATOM     52  H   SGN d 306      22.007   0.456  16.848  0.00  0.00     0.077 H 
ATOM     53  H   SGN d 306      22.013   1.863  17.899  0.00  0.00     0.077 H 
ATOM     54  H   SGN d 306      19.899   1.017  17.504  0.00  0.00     0.140 HD
ATOM     55  H   SGN d 306      18.905   1.848  14.499  0.00  0.00     0.210 HD
ATOM     56  H   SGN d 306      20.833   0.602  14.597  0.00  0.00     0.089 H 
ATOM     57  H   SGN d 306      19.254   4.229  15.794  0.00  0.00     0.231 HD
ATOM     58  H   SGN d 306      20.935   3.160  16.174  0.00  0.00     0.072 H 
ATOM     59  H   SGN d 306      23.244   0.536  14.744  0.00  0.00     0.090 H 
ATOM     60  H   SGN d 306      24.931   1.758  13.447  0.00  0.00     0.080 H 
ATOM     61  H   SGN d 306      24.820   3.135  14.435  0.00  0.00     0.080 H 
ATOM     62  H   SGN d 306      17.826   1.706  18.651  0.00  0.00     0.231 HD
ATOM     63  H   SGN d 306      22.240   3.266  14.123  0.00  0.00     0.091 H 
ATOM     64  O6S SGN d 302      29.142  15.099   2.390  0.00  0.00    -0.572 OA
ATOM     65  O2S SGN d 302      28.394  14.448  10.647  0.00  0.00    -0.296 OA
ATOM     66  O5S SGN d 302      26.873  15.453   1.606  0.00  0.00    -0.572 OA
ATOM     67  C5  SGN d 302      26.585  15.652   5.747  0.00  0.00     0.091 C 
ATOM     68  O4  SGN d 302      25.901  17.940   5.303  0.00  0.00    -0.348 OA
ATOM     69  O3  SGN d 302      26.055  18.429   8.243  0.00  0.00    -0.391 OA
ATOM     70  C6  SGN d 302      27.129  15.605   4.307  0.00  0.00     0.067 C 
ATOM     71  S1  SGN d 302      27.789  15.662  11.127  0.00  0.00     0.156 S 
ATOM     72  N   SGN d 302      26.639  16.160   9.984  0.00  0.00    -0.210 NA
ATOM     73  O4S SGN d 302      27.935  13.143   1.816  0.00  0.00    -0.572 OA
ATOM     74  O6  SGN d 302      27.120  14.324   3.732  0.00  0.00    -0.254 OA
ATOM     75  O5  SGN d 302      27.393  14.763   6.615  0.00  0.00    -0.349 OA
ATOM     76  C4  SGN d 302      26.639  17.096   6.251  0.00  0.00     0.095 C 
ATOM     77  S2  SGN d 302      27.737  14.481   2.298  0.00  0.00     0.251 S 
ATOM     78  C1  SGN d 302      27.050  14.792   8.064  0.00  0.00     0.150 C 
ATOM     79  C2  SGN d 302      26.998  16.238   8.570  0.00  0.00     0.081 C 
ATOM     80  O1S SGN d 302      27.071  15.707  12.372  0.00  0.00    -0.296 OA
ATOM     81  C3  SGN d 302      26.052  17.109   7.711  0.00  0.00     0.083 C 
ATOM     82  O3S SGN d 302      28.963  16.625  11.189  0.00  0.00    -0.296 OA
ATOM     83  H   SGN d 302      27.717  13.757  10.571  0.00  0.00     0.231 HD
ATOM     84  H   SGN d 302      25.571  15.311   5.768  0.00  0.00     0.090 H 
ATOM     85  H   SGN d 302      25.465  18.991   7.717  0.00  0.00     0.210 HD
ATOM     86  H   SGN d 302      28.138  15.962   4.317  0.00  0.00     0.080 H 
ATOM     87  H   SGN d 302      26.481  16.215   3.712  0.00  0.00     0.080 H 
ATOM     88  H   SGN d 302      26.334  17.093  10.262  0.00  0.00     0.140 HD
ATOM     89  H   SGN d 302      27.633  17.490   6.303  0.00  0.00     0.091 H 
ATOM     90  H   SGN d 302      27.842  14.242   8.528  0.00  0.00     0.131 H 
ATOM     91  H   SGN d 302      27.942  16.734   8.475  0.00  0.00     0.076 H 
ATOM     92  H   SGN d 302      26.321  15.092  12.335  0.00  0.00     0.231 HD
ATOM     93  H   SGN d 302      25.045  16.746   7.710  0.00  0.00     0.089 H 
ATOM     94  H   SGN d 302      29.450  16.596  10.350  0.00  0.00     0.231 HD
ATOM     95  O5  IDS d 303      23.663  12.258   9.052  0.00  0.00    -0.340 OA
ATOM     96  O2S IDS d 303      23.908  12.329  13.442  0.00  0.00    -0.572 OA
ATOM     97  O4  IDS d 303      25.851  14.101   8.451  0.00  0.00    -0.348 OA
ATOM     98  O1S IDS d 303      24.101  14.834  13.459  0.00  0.00    -0.572 OA
ATOM     99  C4  IDS d 303      26.030  12.684   8.497  0.00  0.00     0.103 C 
ATOM    100  S   IDS d 303      24.611  13.553  13.114  0.00  0.00     0.252 S 
ATOM    101  O2  IDS d 303      24.800  13.554  11.498  0.00  0.00    -0.244 OA
ATOM    102  O3  IDS d 303      26.667  10.709   9.676  0.00  0.00    -0.390 OA
ATOM    103  O61 IDS d 303      23.284  13.326   6.498  0.00  0.00    -0.646 OA
ATOM    104  C2  IDS d 303      25.243  12.207  11.011  0.00  0.00     0.134 C 
ATOM    105  C1  IDS d 303      23.968  11.636  10.373  0.00  0.00     0.161 C 
ATOM    106  O3S IDS d 303      25.976  13.452  13.807  0.00  0.00    -0.572 OA
ATOM    107  C3  IDS d 303      26.434  12.111   9.904  0.00  0.00     0.094 C 
ATOM    108  C5  IDS d 303      24.713  12.050   8.029  0.00  0.00     0.152 C 
ATOM    109  O62 IDS d 303      25.200  12.628   5.638  0.00  0.00    -0.646 OA
ATOM    110  C6  IDS d 303      24.339  12.708   6.657  0.00  0.00     0.206 C 
ATOM    111  H   IDS d 303      26.857  12.441   7.863  0.00  0.00     0.092 H 
ATOM    112  H   IDS d 303      27.373  10.602   9.020  0.00  0.00     0.210 HD
ATOM    113  H   IDS d 303      25.673  11.698  11.849  0.00  0.00     0.097 H 
ATOM    114  H   IDS d 303      23.127  11.896  10.981  0.00  0.00     0.133 H 
ATOM    115  H   IDS d 303      27.268  12.666  10.281  0.00  0.00     0.091 H 
ATOM    116  H   IDS d 303      24.811  10.992   7.897  0.00  0.00     0.104 H 
ATOM    117  C1  UAP d 301      24.503  17.930   5.082  0.00  0.00     0.167 C 
ATOM    118  C5  UAP d 301      22.612  19.327   5.446  0.00  0.00     0.147 C 
ATOM    119  O61 UAP d 301      20.710  20.549   6.278  0.00  0.00    -0.642 OA
ATOM    120  C2  UAP d 301      24.285  18.117   3.512  0.00  0.00     0.135 C 
ATOM    121  O62 UAP d 301      22.536  20.589   7.595  0.00  0.00    -0.642 OA
ATOM    122  O3  UAP d 301      22.271  16.674   3.336  0.00  0.00    -0.389 OA
ATOM    123  O5  UAP d 301      23.894  19.032   5.800  0.00  0.00    -0.311 OA
ATOM    124  C6  UAP d 301      21.880  20.189   6.456  0.00  0.00     0.233 C 
ATOM    125  O2  UAP d 301      24.815  19.447   3.014  0.00  0.00    -0.244 OA
ATOM    126  C3  UAP d 301      22.723  18.052   3.249  0.00  0.00     0.086 C 
ATOM    127  O2S UAP d 301      27.081  18.489   3.015  0.00  0.00    -0.572 OA
ATOM    128  C4  UAP d 301      21.985  18.921   4.306  0.00  0.00    -0.034 C 
ATOM    129  O3S UAP d 301      25.889  18.423   0.875  0.00  0.00    -0.572 OA
ATOM    130  O1S UAP d 301      26.593  20.604   1.683  0.00  0.00    -0.572 OA
ATOM    131  S   UAP d 301      26.182  19.279   2.147  0.00  0.00     0.252 S 
ATOM    132  H   UAP d 301      24.059  17.019   5.424  0.00  0.00     0.134 H 
ATOM    133  H   UAP d 301      24.818  17.350   2.990  0.00  0.00     0.097 H 
ATOM    134  H   UAP d 301      22.736  16.138   2.675  0.00  0.00     0.210 HD
ATOM    135  H   UAP d 301      22.507  18.427   2.271  0.00  0.00     0.093 H 
ATOM    136  H   UAP d 301      21.003  19.195   4.142  0.00  0.00     0.085 H 
ATOM    137  C5  IDS d 305      22.273   4.787  12.850  0.00  0.00     0.152 C 
ATOM    138  O2  IDS d 305      22.383   3.685   9.375  0.00  0.00    -0.244 OA
ATOM    139  C6  IDS d 305      22.944   5.959  13.537  0.00  0.00     0.206 C 
ATOM    140  O61 IDS d 305      24.168   6.121  13.463  0.00  0.00    -0.646 OA
ATOM    141  O2S IDS d 305      23.241   1.449   8.811  0.00  0.00    -0.572 OA
ATOM    142  O62 IDS d 305      22.183   6.806  14.246  0.00  0.00    -0.646 OA
ATOM    143  O5  IDS d 305      23.293   3.974  12.163  0.00  0.00    -0.340 OA
ATOM    144  C3  IDS d 305      20.547   4.050  11.075  0.00  0.00     0.094 C 
ATOM    145  O4  IDS d 305      21.871   6.249  10.936  0.00  0.00    -0.348 OA
ATOM    146  O1S IDS d 305      23.290   3.292   7.139  0.00  0.00    -0.572 OA
ATOM    147  C2  IDS d 305      21.650   3.077  10.479  0.00  0.00     0.134 C 
ATOM    148  C1  IDS d 305      22.710   2.745  11.588  0.00  0.00     0.161 C 
ATOM    149  C4  IDS d 305      21.205   5.310  11.824  0.00  0.00     0.103 C 
ATOM    150  O3  IDS d 305      19.860   3.298  12.057  0.00  0.00    -0.390 OA
ATOM    151  S   IDS d 305      22.602   2.609   8.205  0.00  0.00     0.252 S 
ATOM    152  O3S IDS d 305      21.208   2.176   7.700  0.00  0.00    -0.572 OA
ATOM    153  H   IDS d 305      21.777   4.181  13.579  0.00  0.00     0.104 H 
ATOM    154  H   IDS d 305      19.923   4.414  10.285  0.00  0.00     0.091 H 
ATOM    155  H   IDS d 305      21.135   2.204  10.134  0.00  0.00     0.097 H 
ATOM    156  H   IDS d 305      23.505   2.214  11.108  0.00  0.00     0.133 H 
ATOM    157  H   IDS d 305      20.397   5.831  12.294  0.00  0.00     0.092 H 
ATOM    158  H   IDS d 305      20.488   3.005  12.735  0.00  0.00     0.210 HD
ENDROOT
TORSDOF 49
ENDMDL
MODEL 34
REMARK VINA RESULT:      -6.1      2.890      3.819
REMARK  0 active torsions:
REMARK  status: ('A' for Active; 'I' for Inactive)
REMARK       I    between atoms: N_1  and  C2_65 
REMARK       I    between atoms: N_1  and  S1_100 
REMARK       I    between atoms: O2S_4  and  S1_36 
REMARK       I    between atoms: O2S_5  and  S1_100 
REMARK       I    between atoms: C5_7  and  C6_64 
REMARK       I    between atoms: O3_11  and  C3_17 
REMARK       I    between atoms: C1_12  and  O4_28 
REMARK       I    between atoms: C5_13  and  C6_35 
REMARK       I    between atoms: C5_14  and  C6_52 
REMARK       I    between atoms: O2S_16  and  S1_75 
REMARK       I    between atoms: C2_18  and  O2_63 
REMARK       I    between atoms: C5_19  and  C6_22 
REMARK       I    between atoms: O2_20  and  C2_53 
REMARK       I    between atoms: O2_20  and  S_86 
REMARK       I    between atoms: O4_21  and  C1_67 
REMARK       I    between atoms: O4_21  and  C4_48 
REMARK       I    between atoms: O3_26  and  C3_72 
REMARK       I    between atoms: O4_28  and  C4_71 
REMARK       I    between atoms: O3_30  and  C3_94 
REMARK       I    between atoms: N_33  and  C2_82 
REMARK       I    between atoms: N_33  and  S1_75 
REMARK       I    between atoms: C6_35  and  O6_59 
REMARK       I    between atoms: S1_36  and  N_37 
REMARK       I    between atoms: S1_36  and  O1S_89 
REMARK       I    between atoms: S1_36  and  O3S_97 
REMARK       I    between atoms: N_37  and  C2_78 
REMARK       I    between atoms: C3_38  and  O3_81 
REMARK       I    between atoms: O4_39  and  C1_85 
REMARK       I    between atoms: O4_39  and  C4_69 
REMARK       I    between atoms: O3_40  and  C3_47 
REMARK       I    between atoms: O4_41  and  C1_76 
REMARK       I    between atoms: O4_41  and  C4_43 
REMARK       I    between atoms: S2_44  and  O6_80 
REMARK       I    between atoms: S_46  and  O2_57 
REMARK       I    between atoms: O3S_49  and  S1_75 
REMARK       I    between atoms: C1_54  and  O4_96 
REMARK       I    between atoms: O2_57  and  C2_66 
REMARK       I    between atoms: O6_58  and  C6_64 
REMARK       I    between atoms: O6_58  and  S2_101 
REMARK       I    between atoms: O6_59  and  S2_73 
REMARK       I    between atoms: O3_61  and  C3_77 
REMARK       I    between atoms: O2_63  and  S_104 
REMARK       I    between atoms: S1_75  and  O1S_92 
REMARK       I    between atoms: O6_80  and  C6_88 
REMARK       I    between atoms: C5_83  and  C6_88 
REMARK       I    between atoms: O3S_84  and  S1_100 
REMARK       I    between atoms: C5_87  and  C6_103 
REMARK       I    between atoms: O1S_91  and  S1_100 
REMARK       I    between atoms: O4_96  and  C4_99 
ROOT
ATOM      1  N   SGN d 304      24.659  11.401  11.830  0.00  0.00    -0.210 NA
ATOM      2  O2S SGN d 304      24.457  13.558  13.058  0.00  0.00    -0.296 OA
ATOM      3  C5  SGN d 304      21.124  12.065   9.701  0.00  0.00     0.091 C 
ATOM      4  O5S SGN d 304      17.229  13.114   9.067  0.00  0.00    -0.572 OA
ATOM      5  O3  SGN d 304      22.606   9.315  11.783  0.00  0.00    -0.391 OA
ATOM      6  C3  SGN d 304      22.602  10.393  10.866  0.00  0.00     0.083 C 
ATOM      7  O4  SGN d 304      20.342   9.772  10.176  0.00  0.00    -0.348 OA
ATOM      8  O5  SGN d 304      21.929  13.123  10.187  0.00  0.00    -0.349 OA
ATOM      9  C4  SGN d 304      21.154  10.871  10.683  0.00  0.00     0.095 C 
ATOM     10  O4S SGN d 304      17.874  15.121   7.699  0.00  0.00    -0.572 OA
ATOM     11  O6S SGN d 304      17.881  15.160  10.090  0.00  0.00    -0.572 OA
ATOM     12  O6  SGN d 304      19.530  13.761   8.762  0.00  0.00    -0.254 OA
ATOM     13  C6  SGN d 304      19.670  12.635   9.616  0.00  0.00     0.067 C 
ATOM     14  C2  SGN d 304      23.302  11.637  11.480  0.00  0.00     0.081 C 
ATOM     15  O3S SGN d 304      24.076  11.515  14.310  0.00  0.00    -0.296 OA
ATOM     16  C1  SGN d 304      23.330  12.762  10.445  0.00  0.00     0.150 C 
ATOM     17  O1S SGN d 304      26.337  11.907  13.576  0.00  0.00    -0.296 OA
ATOM     18  S1  SGN d 304      24.967  12.181  13.249  0.00  0.00     0.156 S 
ATOM     19  S2  SGN d 304      18.053  14.279   8.849  0.00  0.00     0.251 S 
ATOM     20  H   SGN d 304      25.272  11.761  11.099  0.00  0.00     0.140 HD
ATOM     21  H   SGN d 304      23.512  13.526  12.844  0.00  0.00     0.231 HD
ATOM     22  H   SGN d 304      21.476  11.717   8.752  0.00  0.00     0.090 H 
ATOM     23  H   SGN d 304      23.515   9.001  11.910  0.00  0.00     0.210 HD
ATOM     24  H   SGN d 304      23.076  10.053   9.969  0.00  0.00     0.089 H 
ATOM     25  H   SGN d 304      20.755  11.190  11.623  0.00  0.00     0.091 H 
ATOM     26  H   SGN d 304      19.365  12.922  10.602  0.00  0.00     0.080 H 
ATOM     27  H   SGN d 304      19.062  11.859   9.201  0.00  0.00     0.080 H 
ATOM     28  H   SGN d 304      22.746  11.883  12.360  0.00  0.00     0.076 H 
ATOM     29  H   SGN d 304      23.144  11.690  14.106  0.00  0.00     0.231 HD
ATOM     30  H   SGN d 304      23.820  13.669  10.734  0.00  0.00     0.131 H 
ATOM     31  H   SGN d 304      26.915  12.320  12.916  0.00  0.00     0.231 HD
ATOM     32  O6S SGN d 306      25.877   8.347   3.486  0.00  0.00    -0.572 OA
ATOM     33  O5S SGN d 306      28.274   7.982   3.556  0.00  0.00    -0.572 OA
ATOM     34  O2S SGN d 306      24.880  16.383   2.535  0.00  0.00    -0.296 OA
ATOM     35  C1  SGN d 306      27.177  13.944   2.560  0.00  0.00     0.038 C 
ATOM     36  N   SGN d 306      27.150  16.179   3.407  0.00  0.00    -0.212 NA
ATOM     37  O3  SGN d 306      27.277  15.363   6.003  0.00  0.00    -0.391 OA
ATOM     38  S2  SGN d 306      27.218   8.631   2.779  0.00  0.00     0.251 S 
ATOM     39  C3  SGN d 306      27.613  14.452   4.948  0.00  0.00     0.081 C 
ATOM     40  O3S SGN d 306      25.217  17.083   4.846  0.00  0.00    -0.296 OA
ATOM     41  O4S SGN d 306      27.039   8.391   1.368  0.00  0.00    -0.572 OA
ATOM     42  O5  SGN d 306      26.862  12.578   2.863  0.00  0.00    -0.379 OA
ATOM     43  S1  SGN d 306      25.822  17.131   3.406  0.00  0.00     0.156 S 
ATOM     44  O6  SGN d 306      27.557  10.118   2.881  0.00  0.00    -0.254 OA
ATOM     45  C2  SGN d 306      26.844  14.839   3.732  0.00  0.00     0.054 C 
ATOM     46  C5  SGN d 306      27.573  12.133   4.039  0.00  0.00     0.087 C 
ATOM     47  C6  SGN d 306      27.183  10.666   4.181  0.00  0.00     0.067 C 
ATOM     48  O1S SGN d 306      26.307  18.481   3.079  0.00  0.00    -0.296 OA
ATOM     49  O4  SGN d 306      27.937  12.596   6.535  0.00  0.00    -0.348 OA
ATOM     50  C4  SGN d 306      27.217  13.008   5.288  0.00  0.00     0.095 C 
ATOM     51  H   SGN d 306      24.689  15.519   2.932  0.00  0.00     0.231 HD
ATOM     52  H   SGN d 306      28.222  14.024   2.343  0.00  0.00     0.077 H 
ATOM     53  H   SGN d 306      26.599  14.252   1.714  0.00  0.00     0.077 H 
ATOM     54  H   SGN d 306      27.573  16.203   2.479  0.00  0.00     0.140 HD
ATOM     55  H   SGN d 306      27.542  16.261   5.751  0.00  0.00     0.210 HD
ATOM     56  H   SGN d 306      28.672  14.500   4.800  0.00  0.00     0.089 H 
ATOM     57  H   SGN d 306      24.905  16.185   5.036  0.00  0.00     0.231 HD
ATOM     58  H   SGN d 306      25.800  14.733   3.939  0.00  0.00     0.072 H 
ATOM     59  H   SGN d 306      28.635  12.237   3.956  0.00  0.00     0.090 H 
ATOM     60  H   SGN d 306      27.729  10.195   4.972  0.00  0.00     0.080 H 
ATOM     61  H   SGN d 306      26.153  10.519   4.428  0.00  0.00     0.080 H 
ATOM     62  H   SGN d 306      26.676  18.482   2.181  0.00  0.00     0.231 HD
ATOM     63  H   SGN d 306      26.173  12.894   5.489  0.00  0.00     0.091 H 
ATOM     64  O6S SGN d 302      17.447   2.395  17.278  0.00  0.00    -0.572 OA
ATOM     65  O2S SGN d 302      16.045   5.492   9.688  0.00  0.00    -0.296 OA
ATOM     66  O5S SGN d 302      17.360   4.328  18.742  0.00  0.00    -0.572 OA
ATOM     67  C5  SGN d 302      16.146   5.774  15.040  0.00  0.00     0.091 C 
ATOM     68  O4  SGN d 302      14.059   6.196  16.210  0.00  0.00    -0.348 OA
ATOM     69  O3  SGN d 302      12.851   6.863  13.563  0.00  0.00    -0.391 OA
ATOM     70  C6  SGN d 302      16.535   4.845  16.205  0.00  0.00     0.067 C 
ATOM     71  S1  SGN d 302      14.767   6.152   9.715  0.00  0.00     0.156 S 
ATOM     72  N   SGN d 302      14.599   6.904  11.226  0.00  0.00    -0.210 NA
ATOM     73  O4S SGN d 302      19.517   3.478  17.674  0.00  0.00    -0.572 OA
ATOM     74  O6  SGN d 302      17.918   4.749  16.425  0.00  0.00    -0.254 OA
ATOM     75  O5  SGN d 302      16.769   5.289  13.785  0.00  0.00    -0.349 OA
ATOM     76  C4  SGN d 302      14.621   5.798  14.912  0.00  0.00     0.095 C 
ATOM     77  S2  SGN d 302      18.107   3.742  17.614  0.00  0.00     0.251 S 
ATOM     78  C1  SGN d 302      16.390   6.028  12.550  0.00  0.00     0.150 C 
ATOM     79  C2  SGN d 302      14.866   6.155  12.452  0.00  0.00     0.081 C 
ATOM     80  O1S SGN d 302      14.433   7.192   8.780  0.00  0.00    -0.296 OA
ATOM     81  C3  SGN d 302      14.261   6.775  13.732  0.00  0.00     0.083 C 
ATOM     82  O3S SGN d 302      13.787   5.000   9.557  0.00  0.00    -0.296 OA
ATOM     83  H   SGN d 302      16.751   6.151   9.783  0.00  0.00     0.231 HD
ATOM     84  H   SGN d 302      16.498   6.766  15.228  0.00  0.00     0.090 H 
ATOM     85  H   SGN d 302      12.453   7.251  14.358  0.00  0.00     0.210 HD
ATOM     86  H   SGN d 302      16.159   3.865  15.994  0.00  0.00     0.080 H 
ATOM     87  H   SGN d 302      16.110   5.267  17.092  0.00  0.00     0.080 H 
ATOM     88  H   SGN d 302      13.635   7.232  11.286  0.00  0.00     0.140 HD
ATOM     89  H   SGN d 302      14.200   4.843  14.675  0.00  0.00     0.091 H 
ATOM     90  H   SGN d 302      16.786   5.427  11.758  0.00  0.00     0.131 H 
ATOM     91  H   SGN d 302      14.384   5.201  12.390  0.00  0.00     0.076 H 
ATOM     92  H   SGN d 302      15.057   7.928   8.879  0.00  0.00     0.231 HD
ATOM     93  H   SGN d 302      14.640   7.756  13.934  0.00  0.00     0.089 H 
ATOM     94  H   SGN d 302      14.010   4.297  10.187  0.00  0.00     0.231 HD
ATOM     95  O5  IDS d 303      18.689   9.670  11.986  0.00  0.00    -0.340 OA
ATOM     96  O2S IDS d 303      17.522  10.682   7.868  0.00  0.00    -0.572 OA
ATOM     97  O4  IDS d 303      16.995   7.318  12.366  0.00  0.00    -0.348 OA
ATOM     98  O1S IDS d 303      15.088  10.386   8.412  0.00  0.00    -0.572 OA
ATOM     99  C4  IDS d 303      18.350   7.226  11.924  0.00  0.00     0.103 C 
ATOM    100  S   IDS d 303      16.400   9.859   8.271  0.00  0.00     0.252 S 
ATOM    101  O2  IDS d 303      16.796   9.217   9.713  0.00  0.00    -0.244 OA
ATOM    102  O3  IDS d 303      19.952   7.043  10.164  0.00  0.00    -0.390 OA
ATOM    103  O61 IDS d 303      18.300   9.256  14.721  0.00  0.00    -0.646 OA
ATOM    104  C2  IDS d 303      18.209   8.717   9.705  0.00  0.00     0.134 C 
ATOM    105  C1  IDS d 303      18.955   9.783  10.522  0.00  0.00     0.161 C 
ATOM    106  O3S IDS d 303      16.288   8.754   7.212  0.00  0.00    -0.572 OA
ATOM    107  C3  IDS d 303      18.545   7.266  10.364  0.00  0.00     0.094 C 
ATOM    108  C5  IDS d 303      19.117   8.383  12.580  0.00  0.00     0.152 C 
ATOM    109  O62 IDS d 303      19.138   7.209  14.796  0.00  0.00    -0.646 OA
ATOM    110  C6  IDS d 303      18.831   8.320  14.119  0.00  0.00     0.206 C 
ATOM    111  H   IDS d 303      18.721   6.265  12.214  0.00  0.00     0.092 H 
ATOM    112  H   IDS d 303      20.201   6.185  10.542  0.00  0.00     0.210 HD
ATOM    113  H   IDS d 303      18.482   8.568   8.681  0.00  0.00     0.097 H 
ATOM    114  H   IDS d 303      18.574  10.749  10.264  0.00  0.00     0.133 H 
ATOM    115  H   IDS d 303      17.892   6.549   9.912  0.00  0.00     0.091 H 
ATOM    116  H   IDS d 303      20.171   8.300  12.413  0.00  0.00     0.104 H 
ATOM    117  C1  UAP d 301      14.162   7.472  16.813  0.00  0.00     0.167 C 
ATOM    118  C5  UAP d 301      12.770   9.321  17.363  0.00  0.00     0.147 C 
ATOM    119  O61 UAP d 301      11.431  11.323  17.439  0.00  0.00    -0.642 OA
ATOM    120  C2  UAP d 301      14.377   7.225  18.375  0.00  0.00     0.135 C 
ATOM    121  O62 UAP d 301      11.016   9.947  15.704  0.00  0.00    -0.642 OA
ATOM    122  O3  UAP d 301      15.872   9.170  18.761  0.00  0.00    -0.389 OA
ATOM    123  O5  UAP d 301      12.933   8.208  16.594  0.00  0.00    -0.311 OA
ATOM    124  C6  UAP d 301      11.704  10.269  16.849  0.00  0.00     0.233 C 
ATOM    125  O2  UAP d 301      13.199   6.513  19.010  0.00  0.00    -0.244 OA
ATOM    126  C3  UAP d 301      14.548   8.649  19.051  0.00  0.00     0.086 C 
ATOM    127  O2S UAP d 301      14.065   4.389  18.123  0.00  0.00    -0.572 OA
ATOM    128  C4  UAP d 301      13.464   9.616  18.499  0.00  0.00    -0.034 C 
ATOM    129  O3S UAP d 301      14.693   4.924  20.431  0.00  0.00    -0.572 OA
ATOM    130  O1S UAP d 301      12.362   4.379  20.016  0.00  0.00    -0.572 OA
ATOM    131  S   UAP d 301      13.540   4.966  19.380  0.00  0.00     0.252 S 
ATOM    132  H   UAP d 301      14.971   8.037  16.400  0.00  0.00     0.134 H 
ATOM    133  H   UAP d 301      15.235   6.601  18.517  0.00  0.00     0.097 H 
ATOM    134  H   UAP d 301      16.543   8.561  19.109  0.00  0.00     0.210 HD
ATOM    135  H   UAP d 301      14.433   8.559  20.111  0.00  0.00     0.093 H 
ATOM    136  H   UAP d 301      13.265  10.496  19.000  0.00  0.00     0.085 H 
ATOM    137  C5  IDS d 305      25.015  12.429   7.032  0.00  0.00     0.152 C 
ATOM    138  O2  IDS d 305      26.944  11.386   9.947  0.00  0.00    -0.244 OA
ATOM    139  C6  IDS d 305      23.692  11.928   6.492  0.00  0.00     0.206 C 
ATOM    140  O61 IDS d 305      23.520  10.728   6.248  0.00  0.00    -0.646 OA
ATOM    141  O2S IDS d 305      29.226  10.508   9.673  0.00  0.00    -0.572 OA
ATOM    142  O62 IDS d 305      22.716  12.819   6.262  0.00  0.00    -0.646 OA
ATOM    143  O5  IDS d 305      25.946  11.295   7.175  0.00  0.00    -0.340 OA
ATOM    144  C3  IDS d 305      26.217  13.612   8.990  0.00  0.00     0.094 C 
ATOM    145  O4  IDS d 305      24.087  12.201   9.279  0.00  0.00    -0.348 OA
ATOM    146  O1S IDS d 305      27.856   9.899  11.660  0.00  0.00    -0.572 OA
ATOM    147  C2  IDS d 305      27.278  12.431   8.986  0.00  0.00     0.134 C 
ATOM    148  C1  IDS d 305      27.295  11.747   7.574  0.00  0.00     0.161 C 
ATOM    149  C4  IDS d 305      24.794  13.136   8.417  0.00  0.00     0.103 C 
ATOM    150  O3  IDS d 305      26.720  14.583   8.094  0.00  0.00    -0.390 OA
ATOM    151  S   IDS d 305      28.271  10.893  10.703  0.00  0.00     0.252 S 
ATOM    152  O3S IDS d 305      28.853  12.104  11.464  0.00  0.00    -0.572 OA
ATOM    153  H   IDS d 305      25.435  13.140   6.351  0.00  0.00     0.104 H 
ATOM    154  H   IDS d 305      26.078  13.966   9.990  0.00  0.00     0.091 H 
ATOM    155  H   IDS d 305      28.223  12.866   9.239  0.00  0.00     0.097 H 
ATOM    156  H   IDS d 305      27.908  10.874   7.659  0.00  0.00     0.133 H 
ATOM    157  H   IDS d 305      24.194  14.018   8.343  0.00  0.00     0.092 H 
ATOM    158  H   IDS d 305      26.818  14.189   7.213  0.00  0.00     0.210 HD
ENDROOT
TORSDOF 49
ENDMDL
MODEL 35
REMARK VINA RESULT:      -6.1      4.589     15.710
REMARK  0 active torsions:
REMARK  status: ('A' for Active; 'I' for Inactive)
REMARK       I    between atoms: N_1  and  C2_65 
REMARK       I    between atoms: N_1  and  S1_100 
REMARK       I    between atoms: O2S_4  and  S1_36 
REMARK       I    between atoms: O2S_5  and  S1_100 
REMARK       I    between atoms: C5_7  and  C6_64 
REMARK       I    between atoms: O3_11  and  C3_17 
REMARK       I    between atoms: C1_12  and  O4_28 
REMARK       I    between atoms: C5_13  and  C6_35 
REMARK       I    between atoms: C5_14  and  C6_52 
REMARK       I    between atoms: O2S_16  and  S1_75 
REMARK       I    between atoms: C2_18  and  O2_63 
REMARK       I    between atoms: C5_19  and  C6_22 
REMARK       I    between atoms: O2_20  and  C2_53 
REMARK       I    between atoms: O2_20  and  S_86 
REMARK       I    between atoms: O4_21  and  C1_67 
REMARK       I    between atoms: O4_21  and  C4_48 
REMARK       I    between atoms: O3_26  and  C3_72 
REMARK       I    between atoms: O4_28  and  C4_71 
REMARK       I    between atoms: O3_30  and  C3_94 
REMARK       I    between atoms: N_33  and  C2_82 
REMARK       I    between atoms: N_33  and  S1_75 
REMARK       I    between atoms: C6_35  and  O6_59 
REMARK       I    between atoms: S1_36  and  N_37 
REMARK       I    between atoms: S1_36  and  O1S_89 
REMARK       I    between atoms: S1_36  and  O3S_97 
REMARK       I    between atoms: N_37  and  C2_78 
REMARK       I    between atoms: C3_38  and  O3_81 
REMARK       I    between atoms: O4_39  and  C1_85 
REMARK       I    between atoms: O4_39  and  C4_69 
REMARK       I    between atoms: O3_40  and  C3_47 
REMARK       I    between atoms: O4_41  and  C1_76 
REMARK       I    between atoms: O4_41  and  C4_43 
REMARK       I    between atoms: S2_44  and  O6_80 
REMARK       I    between atoms: S_46  and  O2_57 
REMARK       I    between atoms: O3S_49  and  S1_75 
REMARK       I    between atoms: C1_54  and  O4_96 
REMARK       I    between atoms: O2_57  and  C2_66 
REMARK       I    between atoms: O6_58  and  C6_64 
REMARK       I    between atoms: O6_58  and  S2_101 
REMARK       I    between atoms: O6_59  and  S2_73 
REMARK       I    between atoms: O3_61  and  C3_77 
REMARK       I    between atoms: O2_63  and  S_104 
REMARK       I    between atoms: S1_75  and  O1S_92 
REMARK       I    between atoms: O6_80  and  C6_88 
REMARK       I    between atoms: C5_83  and  C6_88 
REMARK       I    between atoms: O3S_84  and  S1_100 
REMARK       I    between atoms: C5_87  and  C6_103 
REMARK       I    between atoms: O1S_91  and  S1_100 
REMARK       I    between atoms: O4_96  and  C4_99 
ROOT
ATOM      1  N   SGN d 304      17.368   5.979  10.927  0.00  0.00    -0.210 NA
ATOM      2  O2S SGN d 304      15.927   7.839  10.114  0.00  0.00    -0.296 OA
ATOM      3  C5  SGN d 304      19.821   8.575  13.097  0.00  0.00     0.091 C 
ATOM      4  O5S SGN d 304      22.086  11.886  13.863  0.00  0.00    -0.572 OA
ATOM      5  O3  SGN d 304      20.269   5.841  10.563  0.00  0.00    -0.391 OA
ATOM      6  C3  SGN d 304      19.682   6.511  11.663  0.00  0.00     0.083 C 
ATOM      7  O4  SGN d 304      21.853   7.496  12.198  0.00  0.00    -0.348 OA
ATOM      8  O5  SGN d 304      18.463   8.863  12.823  0.00  0.00    -0.349 OA
ATOM      9  C4  SGN d 304      20.458   7.812  11.912  0.00  0.00     0.095 C 
ATOM     10  O4S SGN d 304      20.465  12.736  15.584  0.00  0.00    -0.572 OA
ATOM     11  O6S SGN d 304      20.115  13.063  13.241  0.00  0.00    -0.572 OA
ATOM     12  O6  SGN d 304      20.000  10.764  14.311  0.00  0.00    -0.254 OA
ATOM     13  C6  SGN d 304      20.528   9.960  13.266  0.00  0.00     0.067 C 
ATOM     14  C2  SGN d 304      18.260   7.021  11.296  0.00  0.00     0.081 C 
ATOM     15  O3S SGN d 304      17.392   6.770   8.503  0.00  0.00    -0.296 OA
ATOM     16  C1  SGN d 304      17.633   7.688  12.521  0.00  0.00     0.150 C 
ATOM     17  O1S SGN d 304      15.563   5.436   9.325  0.00  0.00    -0.296 OA
ATOM     18  S1  SGN d 304      16.436   6.518   9.679  0.00  0.00     0.156 S 
ATOM     19  S2  SGN d 304      20.737  12.149  14.301  0.00  0.00     0.251 S 
ATOM     20  H   SGN d 304      16.775   5.733  11.719  0.00  0.00     0.140 HD
ATOM     21  H   SGN d 304      16.674   8.426  10.306  0.00  0.00     0.231 HD
ATOM     22  H   SGN d 304      19.918   7.964  13.970  0.00  0.00     0.090 H 
ATOM     23  H   SGN d 304      19.789   5.016  10.393  0.00  0.00     0.210 HD
ATOM     24  H   SGN d 304      19.676   5.830  12.488  0.00  0.00     0.089 H 
ATOM     25  H   SGN d 304      20.416   8.433  11.042  0.00  0.00     0.091 H 
ATOM     26  H   SGN d 304      20.432  10.500  12.346  0.00  0.00     0.080 H 
ATOM     27  H   SGN d 304      21.546   9.753  13.524  0.00  0.00     0.080 H 
ATOM     28  H   SGN d 304      18.390   7.687  10.470  0.00  0.00     0.076 H 
ATOM     29  H   SGN d 304      17.992   7.500   8.723  0.00  0.00     0.231 HD
ATOM     30  H   SGN d 304      16.633   8.054  12.410  0.00  0.00     0.131 H 
ATOM     31  H   SGN d 304      14.951   5.262  10.057  0.00  0.00     0.231 HD
ATOM     32  O6S SGN d 306      19.601   1.875  18.582  0.00  0.00    -0.572 OA
ATOM     33  O5S SGN d 306      18.064   0.000  18.476  0.00  0.00    -0.572 OA
ATOM     34  O2S SGN d 306      15.147   8.269  20.980  0.00  0.00    -0.296 OA
ATOM     35  C1  SGN d 306      15.062   4.949  20.537  0.00  0.00     0.038 C 
ATOM     36  N   SGN d 306      13.491   6.700  20.115  0.00  0.00    -0.212 NA
ATOM     37  O3  SGN d 306      13.592   6.351  17.415  0.00  0.00    -0.391 OA
ATOM     38  S2  SGN d 306      18.517   1.086  19.346  0.00  0.00     0.251 S 
ATOM     39  C3  SGN d 306      14.086   5.328  18.289  0.00  0.00     0.081 C 
ATOM     40  O3S SGN d 306      14.127   8.845  18.842  0.00  0.00    -0.296 OA
ATOM     41  O4S SGN d 306      18.996   0.853  20.687  0.00  0.00    -0.572 OA
ATOM     42  O5  SGN d 306      16.158   4.207  19.984  0.00  0.00    -0.379 OA
ATOM     43  S1  SGN d 306      13.841   8.288  20.274  0.00  0.00     0.156 S 
ATOM     44  O6  SGN d 306      17.270   1.952  19.523  0.00  0.00    -0.254 OA
ATOM     45  C2  SGN d 306      14.560   5.973  19.545  0.00  0.00     0.054 C 
ATOM     46  C5  SGN d 306      15.771   3.554  18.755  0.00  0.00     0.087 C 
ATOM     47  C6  SGN d 306      17.010   2.768  18.342  0.00  0.00     0.067 C 
ATOM     48  O1S SGN d 306      12.634   8.900  20.850  0.00  0.00    -0.296 OA
ATOM     49  O4  SGN d 306      14.864   3.961  16.392  0.00  0.00    -0.348 OA
ATOM     50  C4  SGN d 306      15.288   4.589  17.685  0.00  0.00     0.095 C 
ATOM     51  H   SGN d 306      15.807   7.820  20.429  0.00  0.00     0.231 HD
ATOM     52  H   SGN d 306      14.267   4.274  20.779  0.00  0.00     0.077 H 
ATOM     53  H   SGN d 306      15.397   5.456  21.418  0.00  0.00     0.077 H 
ATOM     54  H   SGN d 306      13.286   6.314  21.037  0.00  0.00     0.140 HD
ATOM     55  H   SGN d 306      12.835   6.793  17.831  0.00  0.00     0.210 HD
ATOM     56  H   SGN d 306      13.293   4.630  18.456  0.00  0.00     0.089 H 
ATOM     57  H   SGN d 306      14.927   8.426  18.486  0.00  0.00     0.231 HD
ATOM     58  H   SGN d 306      15.372   6.627  19.309  0.00  0.00     0.072 H 
ATOM     59  H   SGN d 306      14.929   2.902  18.870  0.00  0.00     0.090 H 
ATOM     60  H   SGN d 306      16.813   2.158  17.485  0.00  0.00     0.080 H 
ATOM     61  H   SGN d 306      17.835   3.387  18.059  0.00  0.00     0.080 H 
ATOM     62  H   SGN d 306      12.480   8.538  21.737  0.00  0.00     0.231 HD
ATOM     63  H   SGN d 306      16.107   5.236  17.453  0.00  0.00     0.091 H 
ATOM     64  O6S SGN d 302      27.923   4.989   3.826  0.00  0.00    -0.572 OA
ATOM     65  O2S SGN d 302      27.919   7.222  11.837  0.00  0.00    -0.296 OA
ATOM     66  O5S SGN d 302      26.513   6.640   2.741  0.00  0.00    -0.572 OA
ATOM     67  C5  SGN d 302      26.946   8.039   6.630  0.00  0.00     0.091 C 
ATOM     68  O4  SGN d 302      28.051   9.903   5.531  0.00  0.00    -0.348 OA
ATOM     69  O3  SGN d 302      28.854  10.866   8.240  0.00  0.00    -0.391 OA
ATOM     70  C6  SGN d 302      27.118   7.250   5.318  0.00  0.00     0.067 C 
ATOM     71  S1  SGN d 302      28.423   8.567  11.916  0.00  0.00     0.156 S 
ATOM     72  N   SGN d 302      27.848   9.420  10.566  0.00  0.00    -0.210 NA
ATOM     73  O4S SGN d 302      25.626   4.431   3.662  0.00  0.00    -0.572 OA
ATOM     74  O6  SGN d 302      26.131   6.275   5.103  0.00  0.00    -0.254 OA
ATOM     75  O5  SGN d 302      26.974   7.107   7.782  0.00  0.00    -0.349 OA
ATOM     76  C4  SGN d 302      28.072   9.069   6.741  0.00  0.00     0.095 C 
ATOM     77  S2  SGN d 302      26.500   5.567   3.751  0.00  0.00     0.251 S 
ATOM     78  C1  SGN d 302      26.929   7.742   9.127  0.00  0.00     0.150 C 
ATOM     79  C2  SGN d 302      27.983   8.850   9.228  0.00  0.00     0.081 C 
ATOM     80  O1S SGN d 302      28.105   9.430  13.022  0.00  0.00    -0.296 OA
ATOM     81  C3  SGN d 302      27.848   9.873   8.075  0.00  0.00     0.083 C 
ATOM     82  O3S SGN d 302      29.929   8.371  11.847  0.00  0.00    -0.296 OA
ATOM     83  H   SGN d 302      26.950   7.236  11.874  0.00  0.00     0.231 HD
ATOM     84  H   SGN d 302      26.004   8.547   6.632  0.00  0.00     0.090 H 
ATOM     85  H   SGN d 302      28.784  11.518   7.525  0.00  0.00     0.210 HD
ATOM     86  H   SGN d 302      28.072   6.764   5.342  0.00  0.00     0.080 H 
ATOM     87  H   SGN d 302      27.035   7.956   4.520  0.00  0.00     0.080 H 
ATOM     88  H   SGN d 302      28.334  10.316  10.556  0.00  0.00     0.140 HD
ATOM     89  H   SGN d 302      29.047   8.629   6.792  0.00  0.00     0.091 H 
ATOM     90  H   SGN d 302      27.140   6.938   9.800  0.00  0.00     0.131 H 
ATOM     91  H   SGN d 302      28.978   8.475   9.107  0.00  0.00     0.076 H 
ATOM     92  H   SGN d 302      27.145   9.556  13.068  0.00  0.00     0.231 HD
ATOM     93  H   SGN d 302      26.893  10.355   8.062  0.00  0.00     0.089 H 
ATOM     94  H   SGN d 302      30.145   7.789  11.101  0.00  0.00     0.231 HD
ATOM     95  O5  IDS d 303      22.898   8.768  10.380  0.00  0.00    -0.340 OA
ATOM     96  O2S IDS d 303      23.638   9.767  14.598  0.00  0.00    -0.572 OA
ATOM     97  O4  IDS d 303      25.653   8.249   9.553  0.00  0.00    -0.348 OA
ATOM     98  O1S IDS d 303      25.558  11.263  13.978  0.00  0.00    -0.572 OA
ATOM     99  C4  IDS d 303      24.773   7.211   9.987  0.00  0.00     0.103 C 
ATOM    100  S   IDS d 303      24.958   9.977  14.037  0.00  0.00     0.252 S 
ATOM    101  O2  IDS d 303      24.898   9.426  12.507  0.00  0.00    -0.244 OA
ATOM    102  O3  IDS d 303      23.946   5.774  11.704  0.00  0.00    -0.390 OA
ATOM    103  O61 IDS d 303      23.095   9.077   7.610  0.00  0.00    -0.646 OA
ATOM    104  C2  IDS d 303      24.187   8.108  12.440  0.00  0.00     0.134 C 
ATOM    105  C1  IDS d 303      22.822   8.484  11.843  0.00  0.00     0.161 C 
ATOM    106  O3S IDS d 303      25.912   9.114  14.873  0.00  0.00    -0.572 OA
ATOM    107  C3  IDS d 303      24.811   6.910  11.530  0.00  0.00     0.094 C 
ATOM    108  C5  IDS d 303      23.355   7.618   9.565  0.00  0.00     0.152 C 
ATOM    109  O62 IDS d 303      23.821   7.033   7.172  0.00  0.00    -0.646 OA
ATOM    110  C6  IDS d 303      23.403   7.962   8.037  0.00  0.00     0.206 C 
ATOM    111  H   IDS d 303      25.097   6.299   9.531  0.00  0.00     0.092 H 
ATOM    112  H   IDS d 303      24.280   5.030  11.177  0.00  0.00     0.210 HD
ATOM    113  H   IDS d 303      24.220   7.686  13.423  0.00  0.00     0.097 H 
ATOM    114  H   IDS d 303      22.498   9.411  12.268  0.00  0.00     0.133 H 
ATOM    115  H   IDS d 303      25.827   6.773  11.835  0.00  0.00     0.091 H 
ATOM    116  H   IDS d 303      22.654   6.827   9.727  0.00  0.00     0.104 H 
ATOM    117  C1  UAP d 301      27.050  10.838   5.174  0.00  0.00     0.167 C 
ATOM    118  C5  UAP d 301      26.781  13.192   4.956  0.00  0.00     0.147 C 
ATOM    119  O61 UAP d 301      26.435  15.560   5.232  0.00  0.00    -0.642 OA
ATOM    120  C2  UAP d 301      26.848  10.712   3.596  0.00  0.00     0.135 C 
ATOM    121  O62 UAP d 301      27.883  14.619   6.679  0.00  0.00    -0.642 OA
ATOM    122  O3  UAP d 301      24.405  11.167   3.593  0.00  0.00    -0.389 OA
ATOM    123  O5  UAP d 301      27.500  12.174   5.509  0.00  0.00    -0.311 OA
ATOM    124  C6  UAP d 301      27.009  14.535   5.621  0.00  0.00     0.233 C 
ATOM    125  O2  UAP d 301      28.103  11.070   2.826  0.00  0.00    -0.244 OA
ATOM    126  C3  UAP d 301      25.689  11.718   3.195  0.00  0.00     0.086 C 
ATOM    127  O2S UAP d 301      28.987   8.829   3.318  0.00  0.00    -0.572 OA
ATOM    128  C4  UAP d 301      25.923  13.082   3.902  0.00  0.00    -0.034 C 
ATOM    129  O3S UAP d 301      27.862   9.088   1.157  0.00  0.00    -0.572 OA
ATOM    130  O1S UAP d 301      29.999  10.211   1.434  0.00  0.00    -0.572 OA
ATOM    131  S   UAP d 301      28.826   9.762   2.183  0.00  0.00     0.252 S 
ATOM    132  H   UAP d 301      26.135  10.650   5.694  0.00  0.00     0.134 H 
ATOM    133  H   UAP d 301      26.608   9.698   3.353  0.00  0.00     0.097 H 
ATOM    134  H   UAP d 301      24.267  10.316   3.148  0.00  0.00     0.210 HD
ATOM    135  H   UAP d 301      25.692  11.865   2.135  0.00  0.00     0.093 H 
ATOM    136  H   UAP d 301      25.420  13.920   3.569  0.00  0.00     0.085 H 
ATOM    137  C5  IDS d 305      17.064   5.875  15.836  0.00  0.00     0.152 C 
ATOM    138  O2  IDS d 305      15.942   4.186  12.804  0.00  0.00    -0.244 OA
ATOM    139  C6  IDS d 305      18.444   6.335  16.258  0.00  0.00     0.206 C 
ATOM    140  O61 IDS d 305      19.397   5.547  16.275  0.00  0.00    -0.646 OA
ATOM    141  O2S IDS d 305      14.876   1.974  12.940  0.00  0.00    -0.572 OA
ATOM    142  O62 IDS d 305      18.605   7.612  16.635  0.00  0.00    -0.646 OA
ATOM    143  O5  IDS d 305      17.108   4.441  15.499  0.00  0.00    -0.340 OA
ATOM    144  C3  IDS d 305      15.134   6.173  14.143  0.00  0.00     0.094 C 
ATOM    145  O4  IDS d 305      17.600   6.621  13.574  0.00  0.00    -0.348 OA
ATOM    146  O1S IDS d 305      16.025   2.708  10.858  0.00  0.00    -0.572 OA
ATOM    147  C2  IDS d 305      15.133   4.598  13.945  0.00  0.00     0.134 C 
ATOM    148  C1  IDS d 305      15.761   3.910  15.207  0.00  0.00     0.161 C 
ATOM    149  C4  IDS d 305      16.576   6.715  14.601  0.00  0.00     0.103 C 
ATOM    150  O3  IDS d 305      14.240   6.426  15.209  0.00  0.00    -0.390 OA
ATOM    151  S   IDS d 305      15.189   3.029  11.987  0.00  0.00     0.252 S 
ATOM    152  O3S IDS d 305      13.857   3.614  11.468  0.00  0.00    -0.572 OA
ATOM    153  H   IDS d 305      16.375   6.023  16.641  0.00  0.00     0.104 H 
ATOM    154  H   IDS d 305      14.869   6.652  13.224  0.00  0.00     0.091 H 
ATOM    155  H   IDS d 305      14.114   4.309  13.788  0.00  0.00     0.097 H 
ATOM    156  H   IDS d 305      15.875   2.873  14.970  0.00  0.00     0.133 H 
ATOM    157  H   IDS d 305      16.444   7.752  14.829  0.00  0.00     0.092 H 
ATOM    158  H   IDS d 305      14.545   5.962  16.004  0.00  0.00     0.210 HD
ENDROOT
TORSDOF 49
ENDMDL
MODEL 36
REMARK VINA RESULT:      -6.1      3.912      8.161
REMARK  0 active torsions:
REMARK  status: ('A' for Active; 'I' for Inactive)
REMARK       I    between atoms: N_1  and  C2_65 
REMARK       I    between atoms: N_1  and  S1_100 
REMARK       I    between atoms: O2S_4  and  S1_36 
REMARK       I    between atoms: O2S_5  and  S1_100 
REMARK       I    between atoms: C5_7  and  C6_64 
REMARK       I    between atoms: O3_11  and  C3_17 
REMARK       I    between atoms: C1_12  and  O4_28 
REMARK       I    between atoms: C5_13  and  C6_35 
REMARK       I    between atoms: C5_14  and  C6_52 
REMARK       I    between atoms: O2S_16  and  S1_75 
REMARK       I    between atoms: C2_18  and  O2_63 
REMARK       I    between atoms: C5_19  and  C6_22 
REMARK       I    between atoms: O2_20  and  C2_53 
REMARK       I    between atoms: O2_20  and  S_86 
REMARK       I    between atoms: O4_21  and  C1_67 
REMARK       I    between atoms: O4_21  and  C4_48 
REMARK       I    between atoms: O3_26  and  C3_72 
REMARK       I    between atoms: O4_28  and  C4_71 
REMARK       I    between atoms: O3_30  and  C3_94 
REMARK       I    between atoms: N_33  and  C2_82 
REMARK       I    between atoms: N_33  and  S1_75 
REMARK       I    between atoms: C6_35  and  O6_59 
REMARK       I    between atoms: S1_36  and  N_37 
REMARK       I    between atoms: S1_36  and  O1S_89 
REMARK       I    between atoms: S1_36  and  O3S_97 
REMARK       I    between atoms: N_37  and  C2_78 
REMARK       I    between atoms: C3_38  and  O3_81 
REMARK       I    between atoms: O4_39  and  C1_85 
REMARK       I    between atoms: O4_39  and  C4_69 
REMARK       I    between atoms: O3_40  and  C3_47 
REMARK       I    between atoms: O4_41  and  C1_76 
REMARK       I    between atoms: O4_41  and  C4_43 
REMARK       I    between atoms: S2_44  and  O6_80 
REMARK       I    between atoms: S_46  and  O2_57 
REMARK       I    between atoms: O3S_49  and  S1_75 
REMARK       I    between atoms: C1_54  and  O4_96 
REMARK       I    between atoms: O2_57  and  C2_66 
REMARK       I    between atoms: O6_58  and  C6_64 
REMARK       I    between atoms: O6_58  and  S2_101 
REMARK       I    between atoms: O6_59  and  S2_73 
REMARK       I    between atoms: O3_61  and  C3_77 
REMARK       I    between atoms: O2_63  and  S_104 
REMARK       I    between atoms: S1_75  and  O1S_92 
REMARK       I    between atoms: O6_80  and  C6_88 
REMARK       I    between atoms: C5_83  and  C6_88 
REMARK       I    between atoms: O3S_84  and  S1_100 
REMARK       I    between atoms: C5_87  and  C6_103 
REMARK       I    between atoms: O1S_91  and  S1_100 
REMARK       I    between atoms: O4_96  and  C4_99 
ROOT
ATOM      1  N   SGN d 304      18.586  12.727   7.440  0.00  0.00    -0.210 NA
ATOM      2  O2S SGN d 304      18.586  11.222   5.457  0.00  0.00    -0.296 OA
ATOM      3  C5  SGN d 304      22.564  11.832   8.356  0.00  0.00     0.091 C 
ATOM      4  O5S SGN d 304      25.882   9.529   8.959  0.00  0.00    -0.572 OA
ATOM      5  O3  SGN d 304      19.273  11.894  10.161  0.00  0.00    -0.391 OA
ATOM      6  C3  SGN d 304      20.256  12.317   9.235  0.00  0.00     0.083 C 
ATOM      7  O4  SGN d 304      21.998  11.490  10.736  0.00  0.00    -0.348 OA
ATOM      8  O5  SGN d 304      22.054  11.764   7.038  0.00  0.00    -0.349 OA
ATOM      9  C4  SGN d 304      21.482  11.403   9.375  0.00  0.00     0.095 C 
ATOM     10  O4S SGN d 304      27.055  10.494   6.957  0.00  0.00    -0.572 OA
ATOM     11  O6S SGN d 304      25.428   8.752   6.758  0.00  0.00    -0.572 OA
ATOM     12  O6  SGN d 304      24.802  11.100   7.486  0.00  0.00    -0.254 OA
ATOM     13  C6  SGN d 304      23.757  10.821   8.408  0.00  0.00     0.067 C 
ATOM     14  C2  SGN d 304      19.787  12.048   7.778  0.00  0.00     0.081 C 
ATOM     15  O3S SGN d 304      17.309  10.520   7.396  0.00  0.00    -0.296 OA
ATOM     16  C1  SGN d 304      20.846  12.568   6.804  0.00  0.00     0.150 C 
ATOM     17  O1S SGN d 304      16.464  12.435   6.203  0.00  0.00    -0.296 OA
ATOM     18  S1  SGN d 304      17.671  11.721   6.509  0.00  0.00     0.156 S 
ATOM     19  S2  SGN d 304      25.876   9.962   7.583  0.00  0.00     0.251 S 
ATOM     20  H   SGN d 304      18.804  13.577   6.919  0.00  0.00     0.140 HD
ATOM     21  H   SGN d 304      19.338  10.771   5.870  0.00  0.00     0.231 HD
ATOM     22  H   SGN d 304      22.869  12.828   8.602  0.00  0.00     0.090 H 
ATOM     23  H   SGN d 304      18.491  12.462  10.085  0.00  0.00     0.210 HD
ATOM     24  H   SGN d 304      20.448  13.353   9.422  0.00  0.00     0.089 H 
ATOM     25  H   SGN d 304      21.205  10.390   9.174  0.00  0.00     0.091 H 
ATOM     26  H   SGN d 304      23.377   9.843   8.197  0.00  0.00     0.080 H 
ATOM     27  H   SGN d 304      24.184  10.902   9.386  0.00  0.00     0.080 H 
ATOM     28  H   SGN d 304      19.629  10.992   7.710  0.00  0.00     0.076 H 
ATOM     29  H   SGN d 304      18.114  10.024   7.614  0.00  0.00     0.231 HD
ATOM     30  H   SGN d 304      20.626  12.473   5.761  0.00  0.00     0.131 H 
ATOM     31  H   SGN d 304      16.673  13.198   5.642  0.00  0.00     0.231 HD
ATOM     32  O6S SGN d 306      22.492  20.266  10.329  0.00  0.00    -0.572 OA
ATOM     33  O5S SGN d 306      20.760  21.853   9.723  0.00  0.00    -0.572 OA
ATOM     34  O2S SGN d 306      26.428  18.515   3.407  0.00  0.00    -0.296 OA
ATOM     35  C1  SGN d 306      24.112  20.533   4.745  0.00  0.00     0.038 C 
ATOM     36  N   SGN d 306      24.284  19.401   2.648  0.00  0.00    -0.212 NA
ATOM     37  O3  SGN d 306      22.160  17.778   3.173  0.00  0.00    -0.391 OA
ATOM     38  S2  SGN d 306      22.193  21.588   9.592  0.00  0.00     0.251 S 
ATOM     39  C3  SGN d 306      22.362  18.967   3.948  0.00  0.00     0.081 C 
ATOM     40  O3S SGN d 306      24.858  16.898   2.476  0.00  0.00    -0.296 OA
ATOM     41  O4S SGN d 306      23.196  22.550   9.977  0.00  0.00    -0.572 OA
ATOM     42  O5  SGN d 306      23.663  20.413   6.102  0.00  0.00    -0.379 OA
ATOM     43  S1  SGN d 306      25.463  18.327   2.293  0.00  0.00     0.156 S 
ATOM     44  O6  SGN d 306      22.390  21.401   8.087  0.00  0.00    -0.254 OA
ATOM     45  C2  SGN d 306      23.822  19.266   3.975  0.00  0.00     0.054 C 
ATOM     46  C5  SGN d 306      22.249  20.120   6.153  0.00  0.00     0.087 C 
ATOM     47  C6  SGN d 306      21.925  20.091   7.643  0.00  0.00     0.067 C 
ATOM     48  O1S SGN d 306      25.813  18.578   0.886  0.00  0.00    -0.296 OA
ATOM     49  O4  SGN d 306      20.458  18.439   5.419  0.00  0.00    -0.348 OA
ATOM     50  C4  SGN d 306      21.915  18.786   5.405  0.00  0.00     0.095 C 
ATOM     51  H   SGN d 306      25.997  18.295   4.248  0.00  0.00     0.231 HD
ATOM     52  H   SGN d 306      23.605  21.352   4.279  0.00  0.00     0.077 H 
ATOM     53  H   SGN d 306      25.168  20.704   4.746  0.00  0.00     0.077 H 
ATOM     54  H   SGN d 306      24.651  20.345   2.522  0.00  0.00     0.140 HD
ATOM     55  H   SGN d 306      22.454  17.934   2.261  0.00  0.00     0.210 HD
ATOM     56  H   SGN d 306      21.788  19.751   3.500  0.00  0.00     0.089 H 
ATOM     57  H   SGN d 306      24.637  16.758   3.411  0.00  0.00     0.231 HD
ATOM     58  H   SGN d 306      24.326  18.461   4.467  0.00  0.00     0.072 H 
ATOM     59  H   SGN d 306      21.647  20.847   5.648  0.00  0.00     0.090 H 
ATOM     60  H   SGN d 306      20.875  19.976   7.808  0.00  0.00     0.080 H 
ATOM     61  H   SGN d 306      22.381  19.276   8.164  0.00  0.00     0.080 H 
ATOM     62  H   SGN d 306      26.186  19.470   0.801  0.00  0.00     0.231 HD
ATOM     63  H   SGN d 306      22.421  17.986   5.904  0.00  0.00     0.091 H 
ATOM     64  O6S SGN d 302      16.614   6.095  18.161  0.00  0.00    -0.572 OA
ATOM     65  O2S SGN d 302      23.731  10.010  16.376  0.00  0.00    -0.296 OA
ATOM     66  O5S SGN d 302      16.304   4.542  16.322  0.00  0.00    -0.572 OA
ATOM     67  C5  SGN d 302      20.100   6.123  15.719  0.00  0.00     0.091 C 
ATOM     68  O4  SGN d 302      20.800   3.823  16.068  0.00  0.00    -0.348 OA
ATOM     69  O3  SGN d 302      23.615   4.813  16.106  0.00  0.00    -0.391 OA
ATOM     70  C6  SGN d 302      18.745   5.735  16.341  0.00  0.00     0.067 C 
ATOM     71  S1  SGN d 302      24.763   9.013  16.269  0.00  0.00     0.156 S 
ATOM     72  N   SGN d 302      24.086   7.638  15.542  0.00  0.00    -0.210 NA
ATOM     73  O4S SGN d 302      15.348   6.909  16.330  0.00  0.00    -0.572 OA
ATOM     74  O6  SGN d 302      17.661   6.495  15.873  0.00  0.00    -0.254 OA
ATOM     75  O5  SGN d 302      20.392   7.547  16.005  0.00  0.00    -0.349 OA
ATOM     76  C4  SGN d 302      21.190   5.220  16.301  0.00  0.00     0.095 C 
ATOM     77  S2  SGN d 302      16.395   5.978  16.643  0.00  0.00     0.251 S 
ATOM     78  C1  SGN d 302      21.726   8.034  15.557  0.00  0.00     0.150 C 
ATOM     79  C2  SGN d 302      22.828   7.088  16.044  0.00  0.00     0.081 C 
ATOM     80  O1S SGN d 302      25.960   9.244  15.507  0.00  0.00    -0.296 OA
ATOM     81  C3  SGN d 302      22.551   5.625  15.624  0.00  0.00     0.083 C 
ATOM     82  O3S SGN d 302      25.132   8.748  17.720  0.00  0.00    -0.296 OA
ATOM     83  H   SGN d 302      23.421  10.253  15.490  0.00  0.00     0.231 HD
ATOM     84  H   SGN d 302      20.067   5.993  14.657  0.00  0.00     0.090 H 
ATOM     85  H   SGN d 302      23.459   3.890  15.852  0.00  0.00     0.210 HD
ATOM     86  H   SGN d 302      18.813   5.864  17.401  0.00  0.00     0.080 H 
ATOM     87  H   SGN d 302      18.555   4.720  16.060  0.00  0.00     0.080 H 
ATOM     88  H   SGN d 302      24.781   6.895  15.614  0.00  0.00     0.140 HD
ATOM     89  H   SGN d 302      21.313   5.332  17.359  0.00  0.00     0.091 H 
ATOM     90  H   SGN d 302      21.812   9.001  16.007  0.00  0.00     0.131 H 
ATOM     91  H   SGN d 302      22.872   7.032  17.112  0.00  0.00     0.076 H 
ATOM     92  H   SGN d 302      25.726   9.413  14.581  0.00  0.00     0.231 HD
ATOM     93  H   SGN d 302      22.488   5.506  14.562  0.00  0.00     0.089 H 
ATOM     94  H   SGN d 302      24.325   8.593  18.236  0.00  0.00     0.231 HD
ATOM     95  O5  IDS d 303      21.806   9.124  11.353  0.00  0.00    -0.340 OA
ATOM     96  O2S IDS d 303      25.713  11.133  11.158  0.00  0.00    -0.572 OA
ATOM     97  O4  IDS d 303      21.880   8.273  14.149  0.00  0.00    -0.348 OA
ATOM     98  O1S IDS d 303      26.831   9.223  12.344  0.00  0.00    -0.572 OA
ATOM     99  C4  IDS d 303      21.267   9.495  13.733  0.00  0.00     0.103 C 
ATOM    100  S   IDS d 303      25.900  10.296  12.325  0.00  0.00     0.252 S 
ATOM    101  O2  IDS d 303      24.445   9.648  12.662  0.00  0.00    -0.244 OA
ATOM    102  O3  IDS d 303      21.365  11.855  13.393  0.00  0.00    -0.390 OA
ATOM    103  O61 IDS d 303      20.054   6.975  11.701  0.00  0.00    -0.646 OA
ATOM    104  C2  IDS d 303      23.365  10.683  12.569  0.00  0.00     0.134 C 
ATOM    105  C1  IDS d 303      22.670  10.336  11.244  0.00  0.00     0.161 C 
ATOM    106  O3S IDS d 303      26.334  11.240  13.454  0.00  0.00    -0.572 OA
ATOM    107  C3  IDS d 303      22.219  10.746  13.725  0.00  0.00     0.094 C 
ATOM    108  C5  IDS d 303      20.699   9.257  12.327  0.00  0.00     0.152 C 
ATOM    109  O62 IDS d 303      18.786   7.922  13.247  0.00  0.00    -0.646 OA
ATOM    110  C6  IDS d 303      19.813   7.967  12.394  0.00  0.00     0.206 C 
ATOM    111  H   IDS d 303      20.512   9.740  14.451  0.00  0.00     0.092 H 
ATOM    112  H   IDS d 303      20.663  11.933  14.058  0.00  0.00     0.210 HD
ATOM    113  H   IDS d 303      23.838  11.638  12.668  0.00  0.00     0.097 H 
ATOM    114  H   IDS d 303      23.411  10.060  10.523  0.00  0.00     0.133 H 
ATOM    115  H   IDS d 303      22.720  10.811  14.669  0.00  0.00     0.091 H 
ATOM    116  H   IDS d 303      20.098  10.081  12.002  0.00  0.00     0.104 H 
ATOM    117  C1  UAP d 301      20.739   3.166  14.816  0.00  0.00     0.167 C 
ATOM    118  C5  UAP d 301      21.878   1.449  13.626  0.00  0.00     0.147 C 
ATOM    119  O61 UAP d 301      23.355   0.078  12.307  0.00  0.00    -0.642 OA
ATOM    120  C2  UAP d 301      19.450   2.225  14.854  0.00  0.00     0.135 C 
ATOM    121  O62 UAP d 301      24.360   1.376  13.849  0.00  0.00    -0.642 OA
ATOM    122  O3  UAP d 301      18.849   2.481  12.457  0.00  0.00    -0.389 OA
ATOM    123  O5  UAP d 301      21.932   2.363  14.636  0.00  0.00    -0.311 OA
ATOM    124  C6  UAP d 301      23.235   0.918  13.207  0.00  0.00     0.233 C 
ATOM    125  O2  UAP d 301      19.551   1.157  15.925  0.00  0.00    -0.244 OA
ATOM    126  C3  UAP d 301      19.344   1.526  13.434  0.00  0.00     0.086 C 
ATOM    127  O2S UAP d 301      18.896   2.839  17.595  0.00  0.00    -0.572 OA
ATOM    128  C4  UAP d 301      20.746   1.008  13.008  0.00  0.00    -0.034 C 
ATOM    129  O3S UAP d 301      17.085   1.449  16.704  0.00  0.00    -0.572 OA
ATOM    130  O1S UAP d 301      18.710   0.359  18.143  0.00  0.00    -0.572 OA
ATOM    131  S   UAP d 301      18.569   1.456  17.187  0.00  0.00     0.252 S 
ATOM    132  H   UAP d 301      20.678   3.865  14.009  0.00  0.00     0.134 H 
ATOM    133  H   UAP d 301      18.589   2.818  15.081  0.00  0.00     0.097 H 
ATOM    134  H   UAP d 301      17.974   2.800  12.731  0.00  0.00     0.210 HD
ATOM    135  H   UAP d 301      18.665   0.701  13.490  0.00  0.00     0.093 H 
ATOM    136  H   UAP d 301      20.821   0.319  12.244  0.00  0.00     0.085 H 
ATOM    137  C5  IDS d 305      21.970  16.217   6.680  0.00  0.00     0.152 C 
ATOM    138  O2  IDS d 305      18.378  15.584   6.688  0.00  0.00    -0.244 OA
ATOM    139  C6  IDS d 305      23.037  15.862   7.694  0.00  0.00     0.206 C 
ATOM    140  O61 IDS d 305      22.922  16.196   8.879  0.00  0.00    -0.646 OA
ATOM    141  O2S IDS d 305      16.788  17.460   6.620  0.00  0.00    -0.572 OA
ATOM    142  O62 IDS d 305      24.123  15.196   7.273  0.00  0.00    -0.646 OA
ATOM    143  O5  IDS d 305      20.893  16.971   7.348  0.00  0.00    -0.340 OA
ATOM    144  C3  IDS d 305      20.235  15.310   4.993  0.00  0.00     0.094 C 
ATOM    145  O4  IDS d 305      20.964  14.032   7.101  0.00  0.00    -0.348 OA
ATOM    146  O1S IDS d 305      16.124  15.262   7.581  0.00  0.00    -0.572 OA
ATOM    147  C2  IDS d 305      19.159  16.266   5.663  0.00  0.00     0.134 C 
ATOM    148  C1  IDS d 305      19.889  17.456   6.379  0.00  0.00     0.161 C 
ATOM    149  C4  IDS d 305      21.399  14.908   6.025  0.00  0.00     0.103 C 
ATOM    150  O3  IDS d 305      20.838  16.071   3.966  0.00  0.00    -0.390 OA
ATOM    151  S   IDS d 305      16.834  16.005   6.571  0.00  0.00     0.252 S 
ATOM    152  O3S IDS d 305      16.331  15.559   5.180  0.00  0.00    -0.572 OA
ATOM    153  H   IDS d 305      22.394  16.825   5.910  0.00  0.00     0.104 H 
ATOM    154  H   IDS d 305      19.759  14.413   4.655  0.00  0.00     0.091 H 
ATOM    155  H   IDS d 305      18.512  16.598   4.877  0.00  0.00     0.097 H 
ATOM    156  H   IDS d 305      19.144  17.987   6.935  0.00  0.00     0.133 H 
ATOM    157  H   IDS d 305      22.131  14.376   5.455  0.00  0.00     0.092 H 
ATOM    158  H   IDS d 305      21.247  16.863   4.348  0.00  0.00     0.210 HD
ENDROOT
TORSDOF 49
ENDMDL
MODEL 37
REMARK VINA RESULT:      -5.8      4.850     15.071
REMARK  0 active torsions:
REMARK  status: ('A' for Active; 'I' for Inactive)
REMARK       I    between atoms: N_1  and  C2_65 
REMARK       I    between atoms: N_1  and  S1_100 
REMARK       I    between atoms: O2S_4  and  S1_36 
REMARK       I    between atoms: O2S_5  and  S1_100 
REMARK       I    between atoms: C5_7  and  C6_64 
REMARK       I    between atoms: O3_11  and  C3_17 
REMARK       I    between atoms: C1_12  and  O4_28 
REMARK       I    between atoms: C5_13  and  C6_35 
REMARK       I    between atoms: C5_14  and  C6_52 
REMARK       I    between atoms: O2S_16  and  S1_75 
REMARK       I    between atoms: C2_18  and  O2_63 
REMARK       I    between atoms: C5_19  and  C6_22 
REMARK       I    between atoms: O2_20  and  C2_53 
REMARK       I    between atoms: O2_20  and  S_86 
REMARK       I    between atoms: O4_21  and  C1_67 
REMARK       I    between atoms: O4_21  and  C4_48 
REMARK       I    between atoms: O3_26  and  C3_72 
REMARK       I    between atoms: O4_28  and  C4_71 
REMARK       I    between atoms: O3_30  and  C3_94 
REMARK       I    between atoms: N_33  and  C2_82 
REMARK       I    between atoms: N_33  and  S1_75 
REMARK       I    between atoms: C6_35  and  O6_59 
REMARK       I    between atoms: S1_36  and  N_37 
REMARK       I    between atoms: S1_36  and  O1S_89 
REMARK       I    between atoms: S1_36  and  O3S_97 
REMARK       I    between atoms: N_37  and  C2_78 
REMARK       I    between atoms: C3_38  and  O3_81 
REMARK       I    between atoms: O4_39  and  C1_85 
REMARK       I    between atoms: O4_39  and  C4_69 
REMARK       I    between atoms: O3_40  and  C3_47 
REMARK       I    between atoms: O4_41  and  C1_76 
REMARK       I    between atoms: O4_41  and  C4_43 
REMARK       I    between atoms: S2_44  and  O6_80 
REMARK       I    between atoms: S_46  and  O2_57 
REMARK       I    between atoms: O3S_49  and  S1_75 
REMARK       I    between atoms: C1_54  and  O4_96 
REMARK       I    between atoms: O2_57  and  C2_66 
REMARK       I    between atoms: O6_58  and  C6_64 
REMARK       I    between atoms: O6_58  and  S2_101 
REMARK       I    between atoms: O6_59  and  S2_73 
REMARK       I    between atoms: O3_61  and  C3_77 
REMARK       I    between atoms: O2_63  and  S_104 
REMARK       I    between atoms: S1_75  and  O1S_92 
REMARK       I    between atoms: O6_80  and  C6_88 
REMARK       I    between atoms: C5_83  and  C6_88 
REMARK       I    between atoms: O3S_84  and  S1_100 
REMARK       I    between atoms: C5_87  and  C6_103 
REMARK       I    between atoms: O1S_91  and  S1_100 
REMARK       I    between atoms: O4_96  and  C4_99 
ROOT
ATOM      1  N   SGN d 304      14.225  17.530  10.872  0.00  0.00    -0.210 NA
ATOM      2  O2S SGN d 304      14.908  19.521  12.201  0.00  0.00    -0.296 OA
ATOM      3  C5  SGN d 304      17.086  15.092  12.702  0.00  0.00     0.091 C 
ATOM      4  O5S SGN d 304      20.726  13.992  14.188  0.00  0.00    -0.572 OA
ATOM      5  O3  SGN d 304      16.033  15.946   9.200  0.00  0.00    -0.391 OA
ATOM      6  C3  SGN d 304      15.865  15.684  10.581  0.00  0.00     0.083 C 
ATOM      7  O4  SGN d 304      17.801  14.195  10.515  0.00  0.00    -0.348 OA
ATOM      8  O5  SGN d 304      16.522  16.218  13.346  0.00  0.00    -0.349 OA
ATOM      9  C4  SGN d 304      17.239  15.360  11.186  0.00  0.00     0.095 C 
ATOM     10  O4S SGN d 304      19.880  13.968  16.554  0.00  0.00    -0.572 OA
ATOM     11  O6S SGN d 304      20.526  15.993  15.458  0.00  0.00    -0.572 OA
ATOM     12  O6  SGN d 304      18.482  14.670  14.744  0.00  0.00    -0.254 OA
ATOM     13  C6  SGN d 304      18.499  14.893  13.341  0.00  0.00     0.067 C 
ATOM     14  C2  SGN d 304      15.449  16.977  11.336  0.00  0.00     0.081 C 
ATOM     15  O3S SGN d 304      15.468  19.504   9.840  0.00  0.00    -0.296 OA
ATOM     16  C1  SGN d 304      15.222  16.647  12.812  0.00  0.00     0.150 C 
ATOM     17  O1S SGN d 304      13.127  19.690  10.377  0.00  0.00    -0.296 OA
ATOM     18  S1  SGN d 304      14.372  19.171  10.865  0.00  0.00     0.156 S 
ATOM     19  S2  SGN d 304      19.960  14.584  15.258  0.00  0.00     0.251 S 
ATOM     20  H   SGN d 304      13.464  17.254  11.492  0.00  0.00     0.140 HD
ATOM     21  H   SGN d 304      15.755  19.069  12.338  0.00  0.00     0.231 HD
ATOM     22  H   SGN d 304      16.465  14.229  12.820  0.00  0.00     0.090 H 
ATOM     23  H   SGN d 304      15.173  16.152   8.803  0.00  0.00     0.210 HD
ATOM     24  H   SGN d 304      15.141  14.901  10.673  0.00  0.00     0.089 H 
ATOM     25  H   SGN d 304      17.901  16.190  11.050  0.00  0.00     0.091 H 
ATOM     26  H   SGN d 304      19.081  15.771  13.149  0.00  0.00     0.080 H 
ATOM     27  H   SGN d 304      18.914  14.013  12.897  0.00  0.00     0.080 H 
ATOM     28  H   SGN d 304      16.240  17.679  11.175  0.00  0.00     0.076 H 
ATOM     29  H   SGN d 304      16.320  19.160  10.154  0.00  0.00     0.231 HD
ATOM     30  H   SGN d 304      14.896  17.451  13.439  0.00  0.00     0.131 H 
ATOM     31  H   SGN d 304      12.422  19.490  11.012  0.00  0.00     0.231 HD
ATOM     32  O6S SGN d 306      10.567   9.426  12.045  0.00  0.00    -0.572 OA
ATOM     33  O5S SGN d 306       8.259   9.967  11.528  0.00  0.00    -0.572 OA
ATOM     34  O2S SGN d 306      11.842  12.148  19.624  0.00  0.00    -0.296 OA
ATOM     35  C1  SGN d 306       9.469  11.645  17.313  0.00  0.00     0.038 C 
ATOM     36  N   SGN d 306       9.886  13.402  18.879  0.00  0.00    -0.212 NA
ATOM     37  O3  SGN d 306      10.413  15.228  16.927  0.00  0.00    -0.391 OA
ATOM     38  S2  SGN d 306       9.107   9.333  12.537  0.00  0.00     0.251 S 
ATOM     39  C3  SGN d 306       9.737  14.006  16.601  0.00  0.00     0.081 C 
ATOM     40  O3S SGN d 306      12.198  14.507  19.125  0.00  0.00    -0.296 OA
ATOM     41  O4S SGN d 306       8.879   7.988  13.005  0.00  0.00    -0.572 OA
ATOM     42  O5  SGN d 306       9.756  11.169  15.990  0.00  0.00    -0.379 OA
ATOM     43  S1  SGN d 306      11.229  13.488  19.806  0.00  0.00     0.156 S 
ATOM     44  O6  SGN d 306       8.917  10.213  13.773  0.00  0.00    -0.254 OA
ATOM     45  C2  SGN d 306      10.172  12.959  17.568  0.00  0.00     0.054 C 
ATOM     46  C5  SGN d 306       9.362  12.139  14.996  0.00  0.00     0.087 C 
ATOM     47  C6  SGN d 306       9.669  11.460  13.666  0.00  0.00     0.067 C 
ATOM     48  O1S SGN d 306      10.771  13.983  21.114  0.00  0.00    -0.296 OA
ATOM     49  O4  SGN d 306       9.725  14.549  14.198  0.00  0.00    -0.348 OA
ATOM     50  C4  SGN d 306      10.106  13.502  15.200  0.00  0.00     0.095 C 
ATOM     51  H   SGN d 306      12.071  12.021  18.691  0.00  0.00     0.231 HD
ATOM     52  H   SGN d 306       8.413  11.786  17.414  0.00  0.00     0.077 H 
ATOM     53  H   SGN d 306       9.816  10.923  18.022  0.00  0.00     0.077 H 
ATOM     54  H   SGN d 306       9.230  12.751  19.310  0.00  0.00     0.140 HD
ATOM     55  H   SGN d 306      10.154  15.513  17.817  0.00  0.00     0.210 HD
ATOM     56  H   SGN d 306       8.685  14.194  16.641  0.00  0.00     0.089 H 
ATOM     57  H   SGN d 306      12.484  14.158  18.267  0.00  0.00     0.231 HD
ATOM     58  H   SGN d 306      11.222  12.798  17.448  0.00  0.00     0.072 H 
ATOM     59  H   SGN d 306       8.327  12.408  15.054  0.00  0.00     0.090 H 
ATOM     60  H   SGN d 306       9.327  12.049  12.842  0.00  0.00     0.080 H 
ATOM     61  H   SGN d 306      10.714  11.316  13.490  0.00  0.00     0.080 H 
ATOM     62  H   SGN d 306      10.173  13.332  21.514  0.00  0.00     0.231 HD
ATOM     63  H   SGN d 306      11.155  13.331  15.075  0.00  0.00     0.091 H 
ATOM     64  O6S SGN d 302      21.981  15.879   0.875  0.00  0.00    -0.572 OA
ATOM     65  O2S SGN d 302      21.484  10.594   7.277  0.00  0.00    -0.296 OA
ATOM     66  O5S SGN d 302      22.602  17.995   1.888  0.00  0.00    -0.572 OA
ATOM     67  C5  SGN d 302      22.863  15.241   4.990  0.00  0.00     0.091 C 
ATOM     68  O4  SGN d 302      25.215  15.851   4.951  0.00  0.00    -0.348 OA
ATOM     69  O3  SGN d 302      25.702  13.617   6.869  0.00  0.00    -0.391 OA
ATOM     70  C6  SGN d 302      22.741  15.886   3.597  0.00  0.00     0.067 C 
ATOM     71  S1  SGN d 302      22.765  10.579   7.932  0.00  0.00     0.156 S 
ATOM     72  N   SGN d 302      23.392  12.155   7.890  0.00  0.00    -0.210 NA
ATOM     73  O4S SGN d 302      20.181  17.287   1.499  0.00  0.00    -0.572 OA
ATOM     74  O6  SGN d 302      21.466  16.403   3.315  0.00  0.00    -0.254 OA
ATOM     75  O5  SGN d 302      21.890  14.131   5.114  0.00  0.00    -0.349 OA
ATOM     76  C4  SGN d 302      24.294  14.729   5.176  0.00  0.00     0.095 C 
ATOM     77  S2  SGN d 302      21.537  16.977   1.856  0.00  0.00     0.251 S 
ATOM     78  C1  SGN d 302      21.970  13.340   6.373  0.00  0.00     0.150 C 
ATOM     79  C2  SGN d 302      23.415  12.901   6.634  0.00  0.00     0.081 C 
ATOM     80  O1S SGN d 302      22.906  10.194   9.310  0.00  0.00    -0.296 OA
ATOM     81  C3  SGN d 302      24.388  14.103   6.616  0.00  0.00     0.083 C 
ATOM     82  O3S SGN d 302      23.580   9.636   7.061  0.00  0.00    -0.296 OA
ATOM     83  H   SGN d 302      20.880  11.177   7.763  0.00  0.00     0.231 HD
ATOM     84  H   SGN d 302      22.648  15.963   5.749  0.00  0.00     0.090 H 
ATOM     85  H   SGN d 302      26.328  14.358   6.862  0.00  0.00     0.210 HD
ATOM     86  H   SGN d 302      22.973  15.144   2.861  0.00  0.00     0.080 H 
ATOM     87  H   SGN d 302      23.421  16.713   3.578  0.00  0.00     0.080 H 
ATOM     88  H   SGN d 302      24.356  12.096   8.216  0.00  0.00     0.140 HD
ATOM     89  H   SGN d 302      24.565  13.965   4.477  0.00  0.00     0.091 H 
ATOM     90  H   SGN d 302      21.331  12.501   6.192  0.00  0.00     0.131 H 
ATOM     91  H   SGN d 302      23.793  12.268   5.858  0.00  0.00     0.076 H 
ATOM     92  H   SGN d 302      22.386  10.795   9.867  0.00  0.00     0.231 HD
ATOM     93  H   SGN d 302      24.150  14.838   7.357  0.00  0.00     0.089 H 
ATOM     94  H   SGN d 302      23.486   9.893   6.130  0.00  0.00     0.231 HD
ATOM     95  O5  IDS d 303      19.872  15.213   9.684  0.00  0.00    -0.340 OA
ATOM     96  O2S IDS d 303      19.944  11.920  12.597  0.00  0.00    -0.572 OA
ATOM     97  O4  IDS d 303      21.432  13.960   7.553  0.00  0.00    -0.348 OA
ATOM     98  O1S IDS d 303      22.407  11.572  12.246  0.00  0.00    -0.572 OA
ATOM     99  C4  IDS d 303      20.005  13.916   7.588  0.00  0.00     0.103 C 
ATOM    100  S   IDS d 303      21.072  11.562  11.760  0.00  0.00     0.252 S 
ATOM    101  O2  IDS d 303      21.038  12.577  10.488  0.00  0.00    -0.244 OA
ATOM    102  O3  IDS d 303      17.975  12.792   8.149  0.00  0.00    -0.390 OA
ATOM    103  O61 IDS d 303      20.960  17.205   8.054  0.00  0.00    -0.646 OA
ATOM    104  C2  IDS d 303      19.644  12.721   9.956  0.00  0.00     0.134 C 
ATOM    105  C1  IDS d 303      19.227  14.112  10.456  0.00  0.00     0.161 C 
ATOM    106  O3S IDS d 303      20.811  10.123  11.296  0.00  0.00    -0.572 OA
ATOM    107  C3  IDS d 303      19.396  12.680   8.346  0.00  0.00     0.094 C 
ATOM    108  C5  IDS d 303      19.531  15.221   8.242  0.00  0.00     0.152 C 
ATOM    109  O62 IDS d 303      20.029  16.531   6.163  0.00  0.00    -0.646 OA
ATOM    110  C6  IDS d 303      20.220  16.403   7.480  0.00  0.00     0.206 C 
ATOM    111  H   IDS d 303      19.659  13.807   6.581  0.00  0.00     0.092 H 
ATOM    112  H   IDS d 303      17.778  12.772   7.199  0.00  0.00     0.210 HD
ATOM    113  H   IDS d 303      19.092  11.866  10.290  0.00  0.00     0.097 H 
ATOM    114  H   IDS d 303      19.592  14.248  11.453  0.00  0.00     0.133 H 
ATOM    115  H   IDS d 303      19.849  11.785   7.975  0.00  0.00     0.091 H 
ATOM    116  H   IDS d 303      18.468  15.330   8.177  0.00  0.00     0.104 H 
ATOM    117  C1  UAP d 301      25.372  16.987   5.780  0.00  0.00     0.167 C 
ATOM    118  C5  UAP d 301      26.991  17.940   7.241  0.00  0.00     0.147 C 
ATOM    119  O61 UAP d 301      28.440  18.582   9.055  0.00  0.00    -0.642 OA
ATOM    120  C2  UAP d 301      25.573  18.239   4.811  0.00  0.00     0.135 C 
ATOM    121  O62 UAP d 301      28.267  16.366   8.693  0.00  0.00    -0.642 OA
ATOM    122  O3  UAP d 301      24.383  19.889   6.236  0.00  0.00    -0.389 OA
ATOM    123  O5  UAP d 301      26.544  16.815   6.614  0.00  0.00    -0.311 OA
ATOM    124  C6  UAP d 301      27.942  17.666   8.389  0.00  0.00     0.233 C 
ATOM    125  O2  UAP d 301      26.825  18.114   3.966  0.00  0.00    -0.244 OA
ATOM    126  C3  UAP d 301      25.695  19.524   5.731  0.00  0.00     0.086 C 
ATOM    127  O2S UAP d 301      25.600  16.605   2.459  0.00  0.00    -0.572 OA
ATOM    128  C4  UAP d 301      26.655  19.221   6.916  0.00  0.00    -0.034 C 
ATOM    129  O3S UAP d 301      25.664  18.963   1.797  0.00  0.00    -0.572 OA
ATOM    130  O1S UAP d 301      27.749  17.722   1.672  0.00  0.00    -0.572 OA
ATOM    131  S   UAP d 301      26.487  17.787   2.408  0.00  0.00     0.252 S 
ATOM    132  H   UAP d 301      24.524  17.129   6.416  0.00  0.00     0.134 H 
ATOM    133  H   UAP d 301      24.744  18.298   4.137  0.00  0.00     0.097 H 
ATOM    134  H   UAP d 301      23.790  20.076   5.491  0.00  0.00     0.210 HD
ATOM    135  H   UAP d 301      26.088  20.339   5.160  0.00  0.00     0.093 H 
ATOM    136  H   UAP d 301      27.045  20.002   7.466  0.00  0.00     0.085 H 
ATOM    137  C5  IDS d 305      12.652  14.089  14.017  0.00  0.00     0.152 C 
ATOM    138  O2  IDS d 305      11.519  16.568  11.592  0.00  0.00    -0.244 OA
ATOM    139  C6  IDS d 305      13.738  13.039  13.922  0.00  0.00     0.206 C 
ATOM    140  O61 IDS d 305      13.751  12.222  12.994  0.00  0.00    -0.646 OA
ATOM    141  O2S IDS d 305       9.193  16.548  10.794  0.00  0.00    -0.572 OA
ATOM    142  O62 IDS d 305      14.677  13.000  14.880  0.00  0.00    -0.646 OA
ATOM    143  O5  IDS d 305      11.716  13.928  12.889  0.00  0.00    -0.340 OA
ATOM    144  C3  IDS d 305      12.117  16.617  14.049  0.00  0.00     0.094 C 
ATOM    145  O4  IDS d 305      14.137  15.612  12.819  0.00  0.00    -0.348 OA
ATOM    146  O1S IDS d 305      11.004  17.552   9.414  0.00  0.00    -0.572 OA
ATOM    147  C2  IDS d 305      11.012  16.346  12.941  0.00  0.00     0.134 C 
ATOM    148  C1  IDS d 305      10.563  14.844  13.006  0.00  0.00     0.161 C 
ATOM    149  C4  IDS d 305      13.292  15.524  13.999  0.00  0.00     0.103 C 
ATOM    150  O3  IDS d 305      11.460  16.461  15.292  0.00  0.00    -0.390 OA
ATOM    151  S   IDS d 305      10.417  17.332  10.711  0.00  0.00     0.252 S 
ATOM    152  O3S IDS d 305      10.153  18.700  11.376  0.00  0.00    -0.572 OA
ATOM    153  H   IDS d 305      12.115  13.969  14.935  0.00  0.00     0.104 H 
ATOM    154  H   IDS d 305      12.548  17.585  13.898  0.00  0.00     0.091 H 
ATOM    155  H   IDS d 305      10.206  17.022  13.140  0.00  0.00     0.097 H 
ATOM    156  H   IDS d 305       9.935  14.671  12.157  0.00  0.00     0.133 H 
ATOM    157  H   IDS d 305      13.911  15.713  14.850  0.00  0.00     0.092 H 
ATOM    158  H   IDS d 305      11.098  15.564  15.355  0.00  0.00     0.210 HD
ENDROOT
TORSDOF 49
ENDMDL
MODEL 38
REMARK VINA RESULT:      -5.8      3.562      4.762
REMARK  0 active torsions:
REMARK  status: ('A' for Active; 'I' for Inactive)
REMARK       I    between atoms: N_1  and  C2_65 
REMARK       I    between atoms: N_1  and  S1_100 
REMARK       I    between atoms: O2S_4  and  S1_36 
REMARK       I    between atoms: O2S_5  and  S1_100 
REMARK       I    between atoms: C5_7  and  C6_64 
REMARK       I    between atoms: O3_11  and  C3_17 
REMARK       I    between atoms: C1_12  and  O4_28 
REMARK       I    between atoms: C5_13  and  C6_35 
REMARK       I    between atoms: C5_14  and  C6_52 
REMARK       I    between atoms: O2S_16  and  S1_75 
REMARK       I    between atoms: C2_18  and  O2_63 
REMARK       I    between atoms: C5_19  and  C6_22 
REMARK       I    between atoms: O2_20  and  C2_53 
REMARK       I    between atoms: O2_20  and  S_86 
REMARK       I    between atoms: O4_21  and  C1_67 
REMARK       I    between atoms: O4_21  and  C4_48 
REMARK       I    between atoms: O3_26  and  C3_72 
REMARK       I    between atoms: O4_28  and  C4_71 
REMARK       I    between atoms: O3_30  and  C3_94 
REMARK       I    between atoms: N_33  and  C2_82 
REMARK       I    between atoms: N_33  and  S1_75 
REMARK       I    between atoms: C6_35  and  O6_59 
REMARK       I    between atoms: S1_36  and  N_37 
REMARK       I    between atoms: S1_36  and  O1S_89 
REMARK       I    between atoms: S1_36  and  O3S_97 
REMARK       I    between atoms: N_37  and  C2_78 
REMARK       I    between atoms: C3_38  and  O3_81 
REMARK       I    between atoms: O4_39  and  C1_85 
REMARK       I    between atoms: O4_39  and  C4_69 
REMARK       I    between atoms: O3_40  and  C3_47 
REMARK       I    between atoms: O4_41  and  C1_76 
REMARK       I    between atoms: O4_41  and  C4_43 
REMARK       I    between atoms: S2_44  and  O6_80 
REMARK       I    between atoms: S_46  and  O2_57 
REMARK       I    between atoms: O3S_49  and  S1_75 
REMARK       I    between atoms: C1_54  and  O4_96 
REMARK       I    between atoms: O2_57  and  C2_66 
REMARK       I    between atoms: O6_58  and  C6_64 
REMARK       I    between atoms: O6_58  and  S2_101 
REMARK       I    between atoms: O6_59  and  S2_73 
REMARK       I    between atoms: O3_61  and  C3_77 
REMARK       I    between atoms: O2_63  and  S_104 
REMARK       I    between atoms: S1_75  and  O1S_92 
REMARK       I    between atoms: O6_80  and  C6_88 
REMARK       I    between atoms: C5_83  and  C6_88 
REMARK       I    between atoms: O3S_84  and  S1_100 
REMARK       I    between atoms: C5_87  and  C6_103 
REMARK       I    between atoms: O1S_91  and  S1_100 
REMARK       I    between atoms: O4_96  and  C4_99 
ROOT
ATOM      1  N   SGN d 304      24.962  10.405  12.456  0.00  0.00    -0.210 NA
ATOM      2  O2S SGN d 304      24.894  12.650  13.529  0.00  0.00    -0.296 OA
ATOM      3  C5  SGN d 304      21.553  11.187  10.168  0.00  0.00     0.091 C 
ATOM      4  O5S SGN d 304      17.772  12.484   9.334  0.00  0.00    -0.572 OA
ATOM      5  O3  SGN d 304      22.754   8.482  12.478  0.00  0.00    -0.391 OA
ATOM      6  C3  SGN d 304      22.860   9.492  11.491  0.00  0.00     0.083 C 
ATOM      7  O4  SGN d 304      20.579   8.998  10.768  0.00  0.00    -0.348 OA
ATOM      8  O5  SGN d 304      22.423  12.211  10.610  0.00  0.00    -0.349 OA
ATOM      9  C4  SGN d 304      21.460  10.065  11.228  0.00  0.00     0.095 C 
ATOM     10  O4S SGN d 304      18.610  14.337   7.858  0.00  0.00    -0.572 OA
ATOM     11  O6S SGN d 304      18.552  14.539  10.240  0.00  0.00    -0.572 OA
ATOM     12  O6  SGN d 304      20.124  12.931   9.065  0.00  0.00    -0.254 OA
ATOM     13  C6  SGN d 304      20.151  11.859   9.996  0.00  0.00     0.067 C 
ATOM     14  C2  SGN d 304      23.638  10.718  12.045  0.00  0.00     0.081 C 
ATOM     15  O3S SGN d 304      24.318  10.734  14.901  0.00  0.00    -0.296 OA
ATOM     16  C1  SGN d 304      23.784  11.764  10.938  0.00  0.00     0.150 C 
ATOM     17  O1S SGN d 304      26.623  10.900  14.220  0.00  0.00    -0.296 OA
ATOM     18  S1  SGN d 304      25.289  11.254  13.830  0.00  0.00     0.156 S 
ATOM     19  S2  SGN d 304      18.690  13.564   9.067  0.00  0.00     0.251 S 
ATOM     20  H   SGN d 304      25.622  10.665  11.723  0.00  0.00     0.140 HD
ATOM     21  H   SGN d 304      23.956  12.675  13.286  0.00  0.00     0.231 HD
ATOM     22  H   SGN d 304      21.903  10.749   9.257  0.00  0.00     0.090 H 
ATOM     23  H   SGN d 304      23.631   8.110  12.656  0.00  0.00     0.210 HD
ATOM     24  H   SGN d 304      23.332   9.055  10.636  0.00  0.00     0.089 H 
ATOM     25  H   SGN d 304      21.060  10.478  12.130  0.00  0.00     0.091 H 
ATOM     26  H   SGN d 304      19.841  12.236  10.949  0.00  0.00     0.080 H 
ATOM     27  H   SGN d 304      19.495  11.105   9.613  0.00  0.00     0.080 H 
ATOM     28  H   SGN d 304      23.078  11.066  12.887  0.00  0.00     0.076 H 
ATOM     29  H   SGN d 304      23.409  10.964  14.654  0.00  0.00     0.231 HD
ATOM     30  H   SGN d 304      24.335  12.648  11.183  0.00  0.00     0.131 H 
ATOM     31  H   SGN d 304      27.251  11.221  13.554  0.00  0.00     0.231 HD
ATOM     32  O6S SGN d 306      26.176   6.698   4.380  0.00  0.00    -0.572 OA
ATOM     33  O5S SGN d 306      28.534   6.156   4.556  0.00  0.00    -0.572 OA
ATOM     34  O2S SGN d 306      25.839  14.702   2.863  0.00  0.00    -0.296 OA
ATOM     35  C1  SGN d 306      27.937  12.102   3.128  0.00  0.00     0.038 C 
ATOM     36  N   SGN d 306      28.061  14.385   3.822  0.00  0.00    -0.212 NA
ATOM     37  O3  SGN d 306      28.048  13.743   6.470  0.00  0.00    -0.391 OA
ATOM     38  S2  SGN d 306      27.555   6.829   3.701  0.00  0.00     0.251 S 
ATOM     39  C3  SGN d 306      28.342  12.738   5.490  0.00  0.00     0.081 C 
ATOM     40  O3S SGN d 306      26.164  15.532   5.132  0.00  0.00    -0.296 OA
ATOM     41  O4S SGN d 306      27.398   6.507   2.304  0.00  0.00    -0.572 OA
ATOM     42  O5  SGN d 306      27.507  10.788   3.511  0.00  0.00    -0.379 OA
ATOM     43  S1  SGN d 306      26.812  15.434   3.713  0.00  0.00     0.156 S 
ATOM     44  O6  SGN d 306      28.007   8.289   3.716  0.00  0.00    -0.254 OA
ATOM     45  C2  SGN d 306      27.641  13.098   4.226  0.00  0.00     0.054 C 
ATOM     46  C5  SGN d 306      28.147  10.373   4.737  0.00  0.00     0.087 C 
ATOM     47  C6  SGN d 306      27.640   8.953   4.963  0.00  0.00     0.067 C 
ATOM     48  O1S SGN d 306      27.411  16.717   3.314  0.00  0.00    -0.296 OA
ATOM     49  O4  SGN d 306      28.474  10.977   7.207  0.00  0.00    -0.348 OA
ATOM     50  C4  SGN d 306      27.825  11.356   5.912  0.00  0.00     0.095 C 
ATOM     51  H   SGN d 306      25.570  13.884   3.310  0.00  0.00     0.231 HD
ATOM     52  H   SGN d 306      28.990  12.086   2.941  0.00  0.00     0.077 H 
ATOM     53  H   SGN d 306      27.409  12.394   2.244  0.00  0.00     0.077 H 
ATOM     54  H   SGN d 306      28.510  14.313   2.910  0.00  0.00     0.140 HD
ATOM     55  H   SGN d 306      28.390  14.599   6.168  0.00  0.00     0.210 HD
ATOM     56  H   SGN d 306      29.406  12.695   5.376  0.00  0.00     0.089 H 
ATOM     57  H   SGN d 306      25.777  14.675   5.371  0.00  0.00     0.231 HD
ATOM     58  H   SGN d 306      26.587  13.087   4.404  0.00  0.00     0.072 H 
ATOM     59  H   SGN d 306      29.216  10.389   4.683  0.00  0.00     0.090 H 
ATOM     60  H   SGN d 306      28.124   8.498   5.801  0.00  0.00     0.080 H 
ATOM     61  H   SGN d 306      26.594   8.902   5.184  0.00  0.00     0.080 H 
ATOM     62  H   SGN d 306      27.804  16.628   2.431  0.00  0.00     0.231 HD
ATOM     63  H   SGN d 306      26.770  11.337   6.084  0.00  0.00     0.091 H 
ATOM     64  O6S SGN d 302      16.912   2.372  18.242  0.00  0.00    -0.572 OA
ATOM     65  O2S SGN d 302      15.976   5.036  10.420  0.00  0.00    -0.296 OA
ATOM     66  O5S SGN d 302      16.935   4.402  19.571  0.00  0.00    -0.572 OA
ATOM     67  C5  SGN d 302      15.945   5.677  15.741  0.00  0.00     0.091 C 
ATOM     68  O4  SGN d 302      13.865   6.337  16.809  0.00  0.00    -0.348 OA
ATOM     69  O3  SGN d 302      12.789   6.910  14.084  0.00  0.00    -0.391 OA
ATOM     70  C6  SGN d 302      16.226   4.804  16.979  0.00  0.00     0.067 C 
ATOM     71  S1  SGN d 302      14.753   5.791  10.359  0.00  0.00     0.156 S 
ATOM     72  N   SGN d 302      14.602   6.657  11.811  0.00  0.00    -0.210 NA
ATOM     73  O4S SGN d 302      19.048   3.319  18.636  0.00  0.00    -0.572 OA
ATOM     74  O6  SGN d 302      17.591   4.619  17.251  0.00  0.00    -0.254 OA
ATOM     75  O5  SGN d 302      16.564   5.061  14.544  0.00  0.00    -0.349 OA
ATOM     76  C4  SGN d 302      14.431   5.809  15.561  0.00  0.00     0.095 C 
ATOM     77  S2  SGN d 302      17.665   3.685  18.511  0.00  0.00     0.251 S 
ATOM     78  C1  SGN d 302      16.280   5.740  13.250  0.00  0.00     0.150 C 
ATOM     79  C2  SGN d 302      14.774   5.975  13.092  0.00  0.00     0.081 C 
ATOM     80  O1S SGN d 302      14.529   6.787   9.346  0.00  0.00    -0.296 OA
ATOM     81  C3  SGN d 302      14.183   6.727  14.307  0.00  0.00     0.083 C 
ATOM     82  O3S SGN d 302      13.691   4.710  10.246  0.00  0.00    -0.296 OA
ATOM     83  H   SGN d 302      16.728   5.644  10.495  0.00  0.00     0.231 HD
ATOM     84  H   SGN d 302      16.369   6.651  15.875  0.00  0.00     0.090 H 
ATOM     85  H   SGN d 302      12.401   7.382  14.838  0.00  0.00     0.210 HD
ATOM     86  H   SGN d 302      15.781   3.844  16.821  0.00  0.00     0.080 H 
ATOM     87  H   SGN d 302      15.810   5.318  17.820  0.00  0.00     0.080 H 
ATOM     88  H   SGN d 302      13.665   7.060  11.816  0.00  0.00     0.140 HD
ATOM     89  H   SGN d 302      13.943   4.874  15.374  0.00  0.00     0.091 H 
ATOM     90  H   SGN d 302      16.650   5.057  12.513  0.00  0.00     0.131 H 
ATOM     91  H   SGN d 302      14.220   5.059  13.078  0.00  0.00     0.076 H 
ATOM     92  H   SGN d 302      15.206   7.478   9.417  0.00  0.00     0.231 HD
ATOM     93  H   SGN d 302      14.632   7.687  14.455  0.00  0.00     0.089 H 
ATOM     94  H   SGN d 302      13.840   4.036  10.928  0.00  0.00     0.231 HD
ATOM     95  O5  IDS d 303      18.873   9.149  12.523  0.00  0.00    -0.340 OA
ATOM     96  O2S IDS d 303      17.907   9.960   8.310  0.00  0.00    -0.572 OA
ATOM     97  O4  IDS d 303      16.989   6.965  13.001  0.00  0.00    -0.348 OA
ATOM     98  O1S IDS d 303      15.443   9.888   8.790  0.00  0.00    -0.572 OA
ATOM     99  C4  IDS d 303      18.345   6.739  12.613  0.00  0.00     0.103 C 
ATOM    100  S   IDS d 303      16.713   9.254   8.728  0.00  0.00     0.252 S 
ATOM    101  O2  IDS d 303      17.016   8.685  10.222  0.00  0.00    -0.244 OA
ATOM    102  O3  IDS d 303      19.978   6.313  10.924  0.00  0.00    -0.390 OA
ATOM    103  O61 IDS d 303      18.374   8.955  15.265  0.00  0.00    -0.646 OA
ATOM    104  C2  IDS d 303      18.385   8.079  10.296  0.00  0.00     0.134 C 
ATOM    105  C1  IDS d 303      19.189   9.140  11.065  0.00  0.00     0.161 C 
ATOM    106  O3S IDS d 303      16.546   8.090   7.742  0.00  0.00    -0.572 OA
ATOM    107  C3  IDS d 303      18.587   6.656  11.061  0.00  0.00     0.094 C 
ATOM    108  C5  IDS d 303      19.181   7.876  13.216  0.00  0.00     0.152 C 
ATOM    109  O62 IDS d 303      19.046   6.860  15.504  0.00  0.00    -0.646 OA
ATOM    110  C6  IDS d 303      18.846   7.942  14.745  0.00  0.00     0.206 C 
ATOM    111  H   IDS d 303      18.631   5.774  12.978  0.00  0.00     0.092 H 
ATOM    112  H   IDS d 303      20.147   5.467  11.367  0.00  0.00     0.210 HD
ATOM    113  H   IDS d 303      18.675   7.840   9.294  0.00  0.00     0.097 H 
ATOM    114  H   IDS d 303      18.892  10.112  10.731  0.00  0.00     0.133 H 
ATOM    115  H   IDS d 303      17.893   5.962  10.636  0.00  0.00     0.091 H 
ATOM    116  H   IDS d 303      20.229   7.703  13.091  0.00  0.00     0.104 H 
ATOM    117  C1  UAP d 301      14.050   7.640  17.330  0.00  0.00     0.167 C 
ATOM    118  C5  UAP d 301      12.792   9.624  17.707  0.00  0.00     0.147 C 
ATOM    119  O61 UAP d 301      11.612  11.722  17.604  0.00  0.00    -0.642 OA
ATOM    120  C2  UAP d 301      14.200   7.486  18.911  0.00  0.00     0.135 C 
ATOM    121  O62 UAP d 301      11.141  10.265  15.952  0.00  0.00    -0.642 OA
ATOM    122  O3  UAP d 301      15.831   9.334  19.217  0.00  0.00    -0.389 OA
ATOM    123  O5  UAP d 301      12.889   8.451  17.020  0.00  0.00    -0.311 OA
ATOM    124  C6  UAP d 301      11.818  10.613  17.096  0.00  0.00     0.233 C 
ATOM    125  O2  UAP d 301      12.952   6.912  19.551  0.00  0.00    -0.244 OA
ATOM    126  C3  UAP d 301      14.462   8.936  19.496  0.00  0.00     0.086 C 
ATOM    127  O2S UAP d 301      13.674   4.672  18.838  0.00  0.00    -0.572 OA
ATOM    128  C4  UAP d 301      13.474   9.943  18.844  0.00  0.00    -0.034 C 
ATOM    129  O3S UAP d 301      14.275   5.315  21.125  0.00  0.00    -0.572 OA
ATOM    130  O1S UAP d 301      11.921   4.922  20.669  0.00  0.00    -0.572 OA
ATOM    131  S   UAP d 301      13.160   5.372  20.035  0.00  0.00     0.252 S 
ATOM    132  H   UAP d 301      14.913   8.112  16.908  0.00  0.00     0.134 H 
ATOM    133  H   UAP d 301      15.002   6.810  19.123  0.00  0.00     0.097 H 
ATOM    134  H   UAP d 301      16.442   8.701  19.627  0.00  0.00     0.210 HD
ATOM    135  H   UAP d 301      14.310   8.929  20.555  0.00  0.00     0.093 H 
ATOM    136  H   UAP d 301      13.331  10.868  19.278  0.00  0.00     0.085 H 
ATOM    137  C5  IDS d 305      25.535  11.069   7.615  0.00  0.00     0.152 C 
ATOM    138  O2  IDS d 305      27.292  10.085  10.656  0.00  0.00    -0.244 OA
ATOM    139  C6  IDS d 305      24.193  10.634   7.064  0.00  0.00     0.206 C 
ATOM    140  O61 IDS d 305      23.935   9.436   6.896  0.00  0.00    -0.646 OA
ATOM    141  O2S IDS d 305      29.504   9.019  10.520  0.00  0.00    -0.572 OA
ATOM    142  O62 IDS d 305      23.297  11.579   6.743  0.00  0.00    -0.646 OA
ATOM    143  O5  IDS d 305      26.370   9.879   7.865  0.00  0.00    -0.340 OA
ATOM    144  C3  IDS d 305      26.769  12.288   9.530  0.00  0.00     0.094 C 
ATOM    145  O4  IDS d 305      24.528  11.068   9.839  0.00  0.00    -0.348 OA
ATOM    146  O1S IDS d 305      28.034   8.655  12.495  0.00  0.00    -0.572 OA
ATOM    147  C2  IDS d 305      27.734  11.033   9.640  0.00  0.00     0.134 C 
ATOM    148  C1  IDS d 305      27.738  10.254   8.278  0.00  0.00     0.161 C 
ATOM    149  C4  IDS d 305      25.330  11.884   8.941  0.00  0.00     0.103 C 
ATOM    150  O3  IDS d 305      27.372  13.154   8.588  0.00  0.00    -0.390 OA
ATOM    151  S   IDS d 305      28.553   9.546  11.489  0.00  0.00     0.252 S 
ATOM    152  O3S IDS d 305      29.206  10.759  12.187  0.00  0.00    -0.572 OA
ATOM    153  H   IDS d 305      26.028  11.697   6.903  0.00  0.00     0.104 H 
ATOM    154  H   IDS d 305      26.629  12.721  10.498  0.00  0.00     0.091 H 
ATOM    155  H   IDS d 305      28.702  11.411   9.895  0.00  0.00     0.097 H 
ATOM    156  H   IDS d 305      28.277   9.344   8.442  0.00  0.00     0.133 H 
ATOM    157  H   IDS d 305      24.803  12.803   8.788  0.00  0.00     0.092 H 
ATOM    158  H   IDS d 305      27.464  12.694   7.740  0.00  0.00     0.210 HD
ENDROOT
TORSDOF 49
ENDMDL
MODEL 39
REMARK VINA RESULT:      -5.5      6.786     14.007
REMARK  0 active torsions:
REMARK  status: ('A' for Active; 'I' for Inactive)
REMARK       I    between atoms: N_1  and  C2_65 
REMARK       I    between atoms: N_1  and  S1_100 
REMARK       I    between atoms: O2S_4  and  S1_36 
REMARK       I    between atoms: O2S_5  and  S1_100 
REMARK       I    between atoms: C5_7  and  C6_64 
REMARK       I    between atoms: O3_11  and  C3_17 
REMARK       I    between atoms: C1_12  and  O4_28 
REMARK       I    between atoms: C5_13  and  C6_35 
REMARK       I    between atoms: C5_14  and  C6_52 
REMARK       I    between atoms: O2S_16  and  S1_75 
REMARK       I    between atoms: C2_18  and  O2_63 
REMARK       I    between atoms: C5_19  and  C6_22 
REMARK       I    between atoms: O2_20  and  C2_53 
REMARK       I    between atoms: O2_20  and  S_86 
REMARK       I    between atoms: O4_21  and  C1_67 
REMARK       I    between atoms: O4_21  and  C4_48 
REMARK       I    between atoms: O3_26  and  C3_72 
REMARK       I    between atoms: O4_28  and  C4_71 
REMARK       I    between atoms: O3_30  and  C3_94 
REMARK       I    between atoms: N_33  and  C2_82 
REMARK       I    between atoms: N_33  and  S1_75 
REMARK       I    between atoms: C6_35  and  O6_59 
REMARK       I    between atoms: S1_36  and  N_37 
REMARK       I    between atoms: S1_36  and  O1S_89 
REMARK       I    between atoms: S1_36  and  O3S_97 
REMARK       I    between atoms: N_37  and  C2_78 
REMARK       I    between atoms: C3_38  and  O3_81 
REMARK       I    between atoms: O4_39  and  C1_85 
REMARK       I    between atoms: O4_39  and  C4_69 
REMARK       I    between atoms: O3_40  and  C3_47 
REMARK       I    between atoms: O4_41  and  C1_76 
REMARK       I    between atoms: O4_41  and  C4_43 
REMARK       I    between atoms: S2_44  and  O6_80 
REMARK       I    between atoms: S_46  and  O2_57 
REMARK       I    between atoms: O3S_49  and  S1_75 
REMARK       I    between atoms: C1_54  and  O4_96 
REMARK       I    between atoms: O2_57  and  C2_66 
REMARK       I    between atoms: O6_58  and  C6_64 
REMARK       I    between atoms: O6_58  and  S2_101 
REMARK       I    between atoms: O6_59  and  S2_73 
REMARK       I    between atoms: O3_61  and  C3_77 
REMARK       I    between atoms: O2_63  and  S_104 
REMARK       I    between atoms: S1_75  and  O1S_92 
REMARK       I    between atoms: O6_80  and  C6_88 
REMARK       I    between atoms: C5_83  and  C6_88 
REMARK       I    between atoms: O3S_84  and  S1_100 
REMARK       I    between atoms: C5_87  and  C6_103 
REMARK       I    between atoms: O1S_91  and  S1_100 
REMARK       I    between atoms: O4_96  and  C4_99 
ROOT
ATOM      1  N   SGN d 304      16.141  11.062  16.224  0.00  0.00    -0.210 NA
ATOM      2  O2S SGN d 304      16.938  10.863  18.575  0.00  0.00    -0.296 OA
ATOM      3  C5  SGN d 304      15.373   6.964  15.938  0.00  0.00     0.091 C 
ATOM      4  O5S SGN d 304      16.029   2.954  16.342  0.00  0.00    -0.572 OA
ATOM      5  O3  SGN d 304      17.235   9.558  13.964  0.00  0.00    -0.391 OA
ATOM      6  C3  SGN d 304      16.202   9.039  14.780  0.00  0.00     0.083 C 
ATOM      7  O4  SGN d 304      16.516   6.845  13.752  0.00  0.00    -0.348 OA
ATOM      8  O5  SGN d 304      15.327   7.662  17.168  0.00  0.00    -0.349 OA
ATOM      9  C4  SGN d 304      16.478   7.549  15.028  0.00  0.00     0.095 C 
ATOM     10  O4S SGN d 304      14.176   2.704  18.021  0.00  0.00    -0.572 OA
ATOM     11  O6S SGN d 304      16.347   3.497  18.636  0.00  0.00    -0.572 OA
ATOM     12  O6  SGN d 304      14.789   4.851  17.160  0.00  0.00    -0.254 OA
ATOM     13  C6  SGN d 304      15.724   5.482  16.297  0.00  0.00     0.067 C 
ATOM     14  C2  SGN d 304      16.276   9.648  16.209  0.00  0.00     0.081 C 
ATOM     15  O3S SGN d 304      18.596  11.324  16.865  0.00  0.00    -0.296 OA
ATOM     16  C1  SGN d 304      15.114   9.111  17.046  0.00  0.00     0.150 C 
ATOM     17  O1S SGN d 304      17.026  13.091  17.328  0.00  0.00    -0.296 OA
ATOM     18  S1  SGN d 304      17.179  11.665  17.353  0.00  0.00     0.156 S 
ATOM     19  S2  SGN d 304      15.315   3.415  17.507  0.00  0.00     0.251 S 
ATOM     20  H   SGN d 304      15.183  11.315  16.466  0.00  0.00     0.140 HD
ATOM     21  H   SGN d 304      17.095   9.926  18.382  0.00  0.00     0.231 HD
ATOM     22  H   SGN d 304      14.443   7.041  15.415  0.00  0.00     0.090 H 
ATOM     23  H   SGN d 304      17.076  10.499  13.798  0.00  0.00     0.210 HD
ATOM     24  H   SGN d 304      15.273   9.246  14.291  0.00  0.00     0.089 H 
ATOM     25  H   SGN d 304      17.422   7.430  15.516  0.00  0.00     0.091 H 
ATOM     26  H   SGN d 304      16.682   5.472  16.776  0.00  0.00     0.080 H 
ATOM     27  H   SGN d 304      15.711   4.934  15.379  0.00  0.00     0.080 H 
ATOM     28  H   SGN d 304      17.237   9.378  16.593  0.00  0.00     0.076 H 
ATOM     29  H   SGN d 304      18.719  10.362  16.875  0.00  0.00     0.231 HD
ATOM     30  H   SGN d 304      15.032   9.483  18.046  0.00  0.00     0.131 H 
ATOM     31  H   SGN d 304      16.136  13.326  17.634  0.00  0.00     0.231 HD
ATOM     32  O6S SGN d 306       8.648  10.013  11.409  0.00  0.00    -0.572 OA
ATOM     33  O5S SGN d 306       7.900  12.321  11.353  0.00  0.00    -0.572 OA
ATOM     34  O2S SGN d 306       6.666   7.213  18.806  0.00  0.00    -0.296 OA
ATOM     35  C1  SGN d 306       6.296   9.817  16.730  0.00  0.00     0.038 C 
ATOM     36  N   SGN d 306       6.666   9.638  19.084  0.00  0.00    -0.212 NA
ATOM     37  O3  SGN d 306       9.138  10.774  18.939  0.00  0.00    -0.391 OA
ATOM     38  S2  SGN d 306       7.459  10.962  11.668  0.00  0.00     0.251 S 
ATOM     39  C3  SGN d 306       8.221  10.912  17.846  0.00  0.00     0.081 C 
ATOM     40  O3S SGN d 306       8.521   8.155  20.078  0.00  0.00    -0.296 OA
ATOM     41  O4S SGN d 306       6.282  10.375  11.076  0.00  0.00    -0.572 OA
ATOM     42  O5  SGN d 306       6.940   9.892  15.450  0.00  0.00    -0.379 OA
ATOM     43  S1  SGN d 306       6.977   8.226  19.846  0.00  0.00     0.156 S 
ATOM     44  O6  SGN d 306       7.154  11.019  13.165  0.00  0.00    -0.254 OA
ATOM     45  C2  SGN d 306       7.322   9.724  17.836  0.00  0.00     0.054 C 
ATOM     46  C5  SGN d 306       7.833  11.025  15.388  0.00  0.00     0.087 C 
ATOM     47  C6  SGN d 306       8.376  10.998  13.964  0.00  0.00     0.067 C 
ATOM     48  O1S SGN d 306       6.253   8.303  21.124  0.00  0.00    -0.296 OA
ATOM     49  O4  SGN d 306       9.891  12.099  16.478  0.00  0.00    -0.348 OA
ATOM     50  C4  SGN d 306       8.941  10.941  16.491  0.00  0.00     0.095 C 
ATOM     51  H   SGN d 306       7.257   7.337  18.047  0.00  0.00     0.231 HD
ATOM     52  H   SGN d 306       5.700  10.694  16.875  0.00  0.00     0.077 H 
ATOM     53  H   SGN d 306       5.680   8.942  16.755  0.00  0.00     0.077 H 
ATOM     54  H   SGN d 306       5.661   9.715  18.933  0.00  0.00     0.140 HD
ATOM     55  H   SGN d 306       8.645  10.761  19.774  0.00  0.00     0.210 HD
ATOM     56  H   SGN d 306       7.689  11.832  17.980  0.00  0.00     0.089 H 
ATOM     57  H   SGN d 306       8.975   8.105  19.221  0.00  0.00     0.231 HD
ATOM     58  H   SGN d 306       7.913   8.850  17.662  0.00  0.00     0.072 H 
ATOM     59  H   SGN d 306       7.349  11.958  15.592  0.00  0.00     0.090 H 
ATOM     60  H   SGN d 306       8.983  11.856  13.764  0.00  0.00     0.080 H 
ATOM     61  H   SGN d 306       9.005  10.158  13.761  0.00  0.00     0.080 H 
ATOM     62  H   SGN d 306       5.298   8.345  20.952  0.00  0.00     0.231 HD
ATOM     63  H   SGN d 306       9.529  10.066  16.308  0.00  0.00     0.091 H 
ATOM     64  O6S SGN d 302      25.412   7.965   8.022  0.00  0.00    -0.572 OA
ATOM     65  O2S SGN d 302      18.433   3.550   9.011  0.00  0.00    -0.296 OA
ATOM     66  O5S SGN d 302      26.423   7.994  10.228  0.00  0.00    -0.572 OA
ATOM     67  C5  SGN d 302      23.225   5.364  10.585  0.00  0.00     0.091 C 
ATOM     68  O4  SGN d 302      24.980   3.744  11.032  0.00  0.00    -0.348 OA
ATOM     69  O3  SGN d 302      22.886   1.620  10.895  0.00  0.00    -0.391 OA
ATOM     70  C6  SGN d 302      24.317   6.290  10.017  0.00  0.00     0.067 C 
ATOM     71  S1  SGN d 302      18.805   2.251   9.504  0.00  0.00     0.156 S 
ATOM     72  N   SGN d 302      20.106   2.451  10.574  0.00  0.00    -0.210 NA
ATOM     73  O4S SGN d 302      24.815   9.796   9.402  0.00  0.00    -0.572 OA
ATOM     74  O6  SGN d 302      24.028   7.658  10.139  0.00  0.00    -0.254 OA
ATOM     75  O5  SGN d 302      21.942   5.617   9.888  0.00  0.00    -0.349 OA
ATOM     76  C4  SGN d 302      23.663   3.909  10.401  0.00  0.00     0.095 C 
ATOM     77  S2  SGN d 302      25.229   8.423   9.478  0.00  0.00     0.251 S 
ATOM     78  C1  SGN d 302      20.818   4.714  10.258  0.00  0.00     0.150 C 
ATOM     79  C2  SGN d 302      21.264   3.250  10.179  0.00  0.00     0.081 C 
ATOM     80  O1S SGN d 302      17.883   1.430  10.242  0.00  0.00    -0.296 OA
ATOM     81  C3  SGN d 302      22.539   2.995  11.016  0.00  0.00     0.083 C 
ATOM     82  O3S SGN d 302      19.233   1.518   8.243  0.00  0.00    -0.296 OA
ATOM     83  H   SGN d 302      18.140   4.105   9.751  0.00  0.00     0.231 HD
ATOM     84  H   SGN d 302      23.085   5.558  11.628  0.00  0.00     0.090 H 
ATOM     85  H   SGN d 302      23.685   1.441  11.415  0.00  0.00     0.210 HD
ATOM     86  H   SGN d 302      24.442   6.064   8.979  0.00  0.00     0.080 H 
ATOM     87  H   SGN d 302      25.204   6.109  10.589  0.00  0.00     0.080 H 
ATOM     88  H   SGN d 302      20.454   1.517  10.792  0.00  0.00     0.140 HD
ATOM     89  H   SGN d 302      23.778   3.628   9.374  0.00  0.00     0.091 H 
ATOM     90  H   SGN d 302      20.061   4.933   9.534  0.00  0.00     0.131 H 
ATOM     91  H   SGN d 302      21.561   2.970   9.189  0.00  0.00     0.076 H 
ATOM     92  H   SGN d 302      17.609   1.896  11.047  0.00  0.00     0.231 HD
ATOM     93  H   SGN d 302      22.404   3.221  12.053  0.00  0.00     0.089 H 
ATOM     94  H   SGN d 302      19.855   2.070   7.743  0.00  0.00     0.231 HD
ATOM     95  O5  IDS d 303      18.790   5.940  13.899  0.00  0.00    -0.340 OA
ATOM     96  O2S IDS d 303      15.277   3.300  13.744  0.00  0.00    -0.572 OA
ATOM     97  O4  IDS d 303      20.191   4.960  11.527  0.00  0.00    -0.348 OA
ATOM     98  O1S IDS d 303      16.720   1.291  13.306  0.00  0.00    -0.572 OA
ATOM     99  C4  IDS d 303      19.308   6.083  11.489  0.00  0.00     0.103 C 
ATOM    100  S   IDS d 303      16.207   2.558  12.917  0.00  0.00     0.252 S 
ATOM    101  O2  IDS d 303      17.495   3.527  12.693  0.00  0.00    -0.244 OA
ATOM    102  O3  IDS d 303      17.150   7.013  11.075  0.00  0.00    -0.390 OA
ATOM    103  O61 IDS d 303      21.504   6.569  14.114  0.00  0.00    -0.646 OA
ATOM    104  C2  IDS d 303      17.062   4.926  12.374  0.00  0.00     0.134 C 
ATOM    105  C1  IDS d 303      17.337   5.678  13.685  0.00  0.00     0.161 C 
ATOM    106  O3S IDS d 303      15.485   2.319  11.584  0.00  0.00    -0.572 OA
ATOM    107  C3  IDS d 303      17.807   5.737  11.174  0.00  0.00     0.094 C 
ATOM    108  C5  IDS d 303      19.412   6.783  12.851  0.00  0.00     0.152 C 
ATOM    109  O62 IDS d 303      21.642   7.765  12.258  0.00  0.00    -0.646 OA
ATOM    110  C6  IDS d 303      20.933   7.041  13.129  0.00  0.00     0.206 C 
ATOM    111  H   IDS d 303      19.614   6.708  10.676  0.00  0.00     0.092 H 
ATOM    112  H   IDS d 303      17.562   7.535  10.369  0.00  0.00     0.210 HD
ATOM    113  H   IDS d 303      16.055   4.867  12.015  0.00  0.00     0.097 H 
ATOM    114  H   IDS d 303      17.064   5.053  14.509  0.00  0.00     0.133 H 
ATOM    115  H   IDS d 303      17.766   5.124  10.299  0.00  0.00     0.091 H 
ATOM    116  H   IDS d 303      18.889   7.716  12.855  0.00  0.00     0.104 H 
ATOM    117  C1  UAP d 301      25.257   3.790  12.419  0.00  0.00     0.167 C 
ATOM    118  C5  UAP d 301      25.928   2.327  14.171  0.00  0.00     0.147 C 
ATOM    119  O61 UAP d 301      26.120   0.727  15.962  0.00  0.00    -0.642 OA
ATOM    120  C2  UAP d 301      26.649   4.554  12.583  0.00  0.00     0.135 C 
ATOM    121  O62 UAP d 301      24.943   0.036  14.169  0.00  0.00    -0.642 OA
ATOM    122  O3  UAP d 301      26.094   5.684  14.724  0.00  0.00    -0.389 OA
ATOM    123  O5  UAP d 301      25.372   2.440  12.932  0.00  0.00    -0.311 OA
ATOM    124  C6  UAP d 301      25.676   0.988  14.836  0.00  0.00     0.233 C 
ATOM    125  O2  UAP d 301      27.791   3.816  11.913  0.00  0.00    -0.244 OA
ATOM    126  C3  UAP d 301      26.940   4.659  14.138  0.00  0.00     0.086 C 
ATOM    127  O2S UAP d 301      27.055   4.735   9.754  0.00  0.00    -0.572 OA
ATOM    128  C4  UAP d 301      26.655   3.287  14.810  0.00  0.00    -0.034 C 
ATOM    129  O3S UAP d 301      28.831   5.976  10.899  0.00  0.00    -0.572 OA
ATOM    130  O1S UAP d 301      29.408   3.793  10.002  0.00  0.00    -0.572 OA
ATOM    131  S   UAP d 301      28.288   4.555  10.551  0.00  0.00     0.252 S 
ATOM    132  H   UAP d 301      24.480   4.290  12.957  0.00  0.00     0.134 H 
ATOM    133  H   UAP d 301      26.578   5.515  12.116  0.00  0.00     0.097 H 
ATOM    134  H   UAP d 301      26.278   6.537  14.300  0.00  0.00     0.210 HD
ATOM    135  H   UAP d 301      27.966   4.922  14.294  0.00  0.00     0.093 H 
ATOM    136  H   UAP d 301      27.023   3.099  15.756  0.00  0.00     0.085 H 
ATOM    137  C5  IDS d 305      11.446   9.599  16.098  0.00  0.00     0.152 C 
ATOM    138  O2  IDS d 305      13.589  12.550  16.021  0.00  0.00    -0.244 OA
ATOM    139  C6  IDS d 305      11.530   8.296  15.331  0.00  0.00     0.206 C 
ATOM    140  O61 IDS d 305      11.592   8.291  14.096  0.00  0.00    -0.646 OA
ATOM    141  O2S IDS d 305      12.665  14.736  15.375  0.00  0.00    -0.572 OA
ATOM    142  O62 IDS d 305      11.515   7.146  16.020  0.00  0.00    -0.646 OA
ATOM    143  O5  IDS d 305      11.444  10.727  15.148  0.00  0.00    -0.340 OA
ATOM    144  C3  IDS d 305      12.574  11.128  17.849  0.00  0.00     0.094 C 
ATOM    145  O4  IDS d 305      13.877   9.532  16.313  0.00  0.00    -0.348 OA
ATOM    146  O1S IDS d 305      15.091  14.249  15.108  0.00  0.00    -0.572 OA
ATOM    147  C2  IDS d 305      12.398  12.336  16.834  0.00  0.00     0.134 C 
ATOM    148  C1  IDS d 305      11.230  12.016  15.837  0.00  0.00     0.161 C 
ATOM    149  C4  IDS d 305      12.660   9.717  17.087  0.00  0.00     0.103 C 
ATOM    150  O3  IDS d 305      11.393  11.106  18.627  0.00  0.00    -0.390 OA
ATOM    151  S   IDS d 305      13.883  14.121  15.883  0.00  0.00     0.252 S 
ATOM    152  O3S IDS d 305      14.141  14.675  17.301  0.00  0.00    -0.572 OA
ATOM    153  H   IDS d 305      10.540   9.622  16.667  0.00  0.00     0.104 H 
ATOM    154  H   IDS d 305      13.471  11.262  18.416  0.00  0.00     0.091 H 
ATOM    155  H   IDS d 305      12.202  13.207  17.425  0.00  0.00     0.097 H 
ATOM    156  H   IDS d 305      11.244  12.780  15.087  0.00  0.00     0.133 H 
ATOM    157  H   IDS d 305      12.649   8.966  17.850  0.00  0.00     0.092 H 
ATOM    158  H   IDS d 305      10.626  10.981  18.047  0.00  0.00     0.210 HD
ENDROOT
TORSDOF 49
ENDMDL
MODEL 40
REMARK VINA RESULT:      -5.5      3.653     15.347
REMARK  0 active torsions:
REMARK  status: ('A' for Active; 'I' for Inactive)
REMARK       I    between atoms: N_1  and  C2_65 
REMARK       I    between atoms: N_1  and  S1_100 
REMARK       I    between atoms: O2S_4  and  S1_36 
REMARK       I    between atoms: O2S_5  and  S1_100 
REMARK       I    between atoms: C5_7  and  C6_64 
REMARK       I    between atoms: O3_11  and  C3_17 
REMARK       I    between atoms: C1_12  and  O4_28 
REMARK       I    between atoms: C5_13  and  C6_35 
REMARK       I    between atoms: C5_14  and  C6_52 
REMARK       I    between atoms: O2S_16  and  S1_75 
REMARK       I    between atoms: C2_18  and  O2_63 
REMARK       I    between atoms: C5_19  and  C6_22 
REMARK       I    between atoms: O2_20  and  C2_53 
REMARK       I    between atoms: O2_20  and  S_86 
REMARK       I    between atoms: O4_21  and  C1_67 
REMARK       I    between atoms: O4_21  and  C4_48 
REMARK       I    between atoms: O3_26  and  C3_72 
REMARK       I    between atoms: O4_28  and  C4_71 
REMARK       I    between atoms: O3_30  and  C3_94 
REMARK       I    between atoms: N_33  and  C2_82 
REMARK       I    between atoms: N_33  and  S1_75 
REMARK       I    between atoms: C6_35  and  O6_59 
REMARK       I    between atoms: S1_36  and  N_37 
REMARK       I    between atoms: S1_36  and  O1S_89 
REMARK       I    between atoms: S1_36  and  O3S_97 
REMARK       I    between atoms: N_37  and  C2_78 
REMARK       I    between atoms: C3_38  and  O3_81 
REMARK       I    between atoms: O4_39  and  C1_85 
REMARK       I    between atoms: O4_39  and  C4_69 
REMARK       I    between atoms: O3_40  and  C3_47 
REMARK       I    between atoms: O4_41  and  C1_76 
REMARK       I    between atoms: O4_41  and  C4_43 
REMARK       I    between atoms: S2_44  and  O6_80 
REMARK       I    between atoms: S_46  and  O2_57 
REMARK       I    between atoms: O3S_49  and  S1_75 
REMARK       I    between atoms: C1_54  and  O4_96 
REMARK       I    between atoms: O2_57  and  C2_66 
REMARK       I    between atoms: O6_58  and  C6_64 
REMARK       I    between atoms: O6_58  and  S2_101 
REMARK       I    between atoms: O6_59  and  S2_73 
REMARK       I    between atoms: O3_61  and  C3_77 
REMARK       I    between atoms: O2_63  and  S_104 
REMARK       I    between atoms: S1_75  and  O1S_92 
REMARK       I    between atoms: O6_80  and  C6_88 
REMARK       I    between atoms: C5_83  and  C6_88 
REMARK       I    between atoms: O3S_84  and  S1_100 
REMARK       I    between atoms: C5_87  and  C6_103 
REMARK       I    between atoms: O1S_91  and  S1_100 
REMARK       I    between atoms: O4_96  and  C4_99 
ROOT
ATOM      1  N   SGN d 304      16.511   9.930  15.072  0.00  0.00    -0.210 NA
ATOM      2  O2S SGN d 304      17.814  10.863  16.976  0.00  0.00    -0.296 OA
ATOM      3  C5  SGN d 304      19.748   7.655  13.724  0.00  0.00     0.091 C 
ATOM      4  O5S SGN d 304      23.606   6.805  12.692  0.00  0.00    -0.572 OA
ATOM      5  O3  SGN d 304      17.311  10.108  12.261  0.00  0.00    -0.391 OA
ATOM      6  C3  SGN d 304      17.753   9.059  13.102  0.00  0.00     0.083 C 
ATOM      7  O4  SGN d 304      19.380   8.406  11.400  0.00  0.00    -0.348 OA
ATOM      8  O5  SGN d 304      19.587   8.018  15.082  0.00  0.00    -0.349 OA
ATOM      9  C4  SGN d 304      19.233   8.784  12.801  0.00  0.00     0.095 C 
ATOM     10  O4S SGN d 304      23.886   5.204  14.607  0.00  0.00    -0.572 OA
ATOM     11  O6S SGN d 304      24.092   7.569  14.890  0.00  0.00    -0.572 OA
ATOM     12  O6  SGN d 304      21.874   6.470  14.333  0.00  0.00    -0.254 OA
ATOM     13  C6  SGN d 304      21.285   7.466  13.509  0.00  0.00     0.067 C 
ATOM     14  C2  SGN d 304      17.782   9.523  14.586  0.00  0.00     0.081 C 
ATOM     15  O3S SGN d 304      17.278  12.361  15.144  0.00  0.00    -0.296 OA
ATOM     16  C1  SGN d 304      18.209   8.351  15.471  0.00  0.00     0.150 C 
ATOM     17  O1S SGN d 304      15.425  11.632  16.500  0.00  0.00    -0.296 OA
ATOM     18  S1  SGN d 304      16.728  11.243  16.044  0.00  0.00     0.156 S 
ATOM     19  S2  SGN d 304      23.422   6.457  14.079  0.00  0.00     0.251 S 
ATOM     20  H   SGN d 304      16.085   9.171  15.605  0.00  0.00     0.140 HD
ATOM     21  H   SGN d 304      18.609  10.635  16.470  0.00  0.00     0.231 HD
ATOM     22  H   SGN d 304      19.197   6.767  13.493  0.00  0.00     0.090 H 
ATOM     23  H   SGN d 304      16.376  10.294  12.440  0.00  0.00     0.210 HD
ATOM     24  H   SGN d 304      17.103   8.224  12.943  0.00  0.00     0.089 H 
ATOM     25  H   SGN d 304      19.812   9.665  12.982  0.00  0.00     0.091 H 
ATOM     26  H   SGN d 304      21.770   8.399  13.713  0.00  0.00     0.080 H 
ATOM     27  H   SGN d 304      21.415   7.141  12.498  0.00  0.00     0.080 H 
ATOM     28  H   SGN d 304      18.458  10.351  14.622  0.00  0.00     0.076 H 
ATOM     29  H   SGN d 304      18.160  12.115  14.825  0.00  0.00     0.231 HD
ATOM     30  H   SGN d 304      18.236   8.531  16.526  0.00  0.00     0.131 H 
ATOM     31  H   SGN d 304      15.061  10.937  17.071  0.00  0.00     0.231 HD
ATOM     32  O6S SGN d 306      13.309   2.080  12.145  0.00  0.00    -0.572 OA
ATOM     33  O5S SGN d 306      11.041   2.250  12.992  0.00  0.00    -0.572 OA
ATOM     34  O2S SGN d 306      17.931   0.076  18.556  0.00  0.00    -0.296 OA
ATOM     35  C1  SGN d 306      14.760   0.467  17.546  0.00  0.00     0.038 C 
ATOM     36  N   SGN d 306      15.917   1.016  19.563  0.00  0.00    -0.212 NA
ATOM     37  O3  SGN d 306      15.630   3.698  19.181  0.00  0.00    -0.391 OA
ATOM     38  S2  SGN d 306      12.212   1.372  12.967  0.00  0.00     0.251 S 
ATOM     39  C3  SGN d 306      14.815   2.778  18.443  0.00  0.00     0.081 C 
ATOM     40  O3S SGN d 306      18.158   2.283  19.565  0.00  0.00    -0.296 OA
ATOM     41  O4S SGN d 306      12.140   0.000  12.527  0.00  0.00    -0.572 OA
ATOM     42  O5  SGN d 306      14.411   0.937  16.237  0.00  0.00    -0.379 OA
ATOM     43  S1  SGN d 306      17.534   0.863  19.750  0.00  0.00     0.156 S 
ATOM     44  O6  SGN d 306      12.631   1.288  14.434  0.00  0.00    -0.254 OA
ATOM     45  C2  SGN d 306      15.573   1.505  18.284  0.00  0.00     0.054 C 
ATOM     46  C5  SGN d 306      13.672   2.176  16.314  0.00  0.00     0.087 C 
ATOM     47  C6  SGN d 306      13.326   2.498  14.864  0.00  0.00     0.067 C 
ATOM     48  O1S SGN d 306      17.725   0.375  21.125  0.00  0.00    -0.296 OA
ATOM     49  O4  SGN d 306      13.777   4.598  17.148  0.00  0.00    -0.348 OA
ATOM     50  C4  SGN d 306      14.502   3.292  17.032  0.00  0.00     0.095 C 
ATOM     51  H   SGN d 306      17.719   0.577  17.753  0.00  0.00     0.231 HD
ATOM     52  H   SGN d 306      13.866   0.264  18.097  0.00  0.00     0.077 H 
ATOM     53  H   SGN d 306      15.344  -0.425  17.448  0.00  0.00     0.077 H 
ATOM     54  H   SGN d 306      15.483   0.102  19.693  0.00  0.00     0.140 HD
ATOM     55  H   SGN d 306      15.805   3.338  20.065  0.00  0.00     0.210 HD
ATOM     56  H   SGN d 306      13.899   2.649  18.981  0.00  0.00     0.089 H 
ATOM     57  H   SGN d 306      18.018   2.581  18.652  0.00  0.00     0.231 HD
ATOM     58  H   SGN d 306      16.454   1.701  17.709  0.00  0.00     0.072 H 
ATOM     59  H   SGN d 306      12.784   2.103  16.908  0.00  0.00     0.090 H 
ATOM     60  H   SGN d 306      12.689   3.354  14.799  0.00  0.00     0.080 H 
ATOM     61  H   SGN d 306      14.178   2.739  14.264  0.00  0.00     0.080 H 
ATOM     62  H   SGN d 306      17.329  -0.507  21.212  0.00  0.00     0.231 HD
ATOM     63  H   SGN d 306      15.379   3.484  16.449  0.00  0.00     0.091 H 
ATOM     64  O6S SGN d 302      18.981  16.336   4.317  0.00  0.00    -0.572 OA
ATOM     65  O2S SGN d 302      21.064   8.381   5.554  0.00  0.00    -0.296 OA
ATOM     66  O5S SGN d 302      20.097  17.536   6.107  0.00  0.00    -0.572 OA
ATOM     67  C5  SGN d 302      21.546  13.652   6.398  0.00  0.00     0.091 C 
ATOM     68  O4  SGN d 302      23.670  14.711   5.878  0.00  0.00    -0.348 OA
ATOM     69  O3  SGN d 302      24.829  11.975   5.603  0.00  0.00    -0.391 OA
ATOM     70  C6  SGN d 302      20.859  14.936   5.897  0.00  0.00     0.067 C 
ATOM     71  S1  SGN d 302      22.500   8.294   5.514  0.00  0.00     0.156 S 
ATOM     72  N   SGN d 302      23.128   9.691   6.243  0.00  0.00    -0.210 NA
ATOM     73  O4S SGN d 302      17.717  16.635   6.299  0.00  0.00    -0.572 OA
ATOM     74  O6  SGN d 302      19.620  15.197   6.504  0.00  0.00    -0.254 OA
ATOM     75  O5  SGN d 302      20.668  12.485   6.148  0.00  0.00    -0.349 OA
ATOM     76  C4  SGN d 302      22.883  13.489   5.670  0.00  0.00     0.095 C 
ATOM     77  S2  SGN d 302      19.072  16.510   5.842  0.00  0.00     0.251 S 
ATOM     78  C1  SGN d 302      21.250  11.156   6.481  0.00  0.00     0.150 C 
ATOM     79  C2  SGN d 302      22.637  11.009   5.845  0.00  0.00     0.081 C 
ATOM     80  O1S SGN d 302      23.211   7.225   6.161  0.00  0.00    -0.296 OA
ATOM     81  C3  SGN d 302      23.567  12.185   6.225  0.00  0.00     0.083 C 
ATOM     82  O3S SGN d 302      22.796   8.265   4.023  0.00  0.00    -0.296 OA
ATOM     83  H   SGN d 302      20.767   8.405   6.478  0.00  0.00     0.231 HD
ATOM     84  H   SGN d 302      21.726  13.718   7.450  0.00  0.00     0.090 H 
ATOM     85  H   SGN d 302      25.427  12.704   5.831  0.00  0.00     0.210 HD
ATOM     86  H   SGN d 302      20.703  14.845   4.842  0.00  0.00     0.080 H 
ATOM     87  H   SGN d 302      21.504  15.751   6.151  0.00  0.00     0.080 H 
ATOM     88  H   SGN d 302      24.133   9.687   6.069  0.00  0.00     0.140 HD
ATOM     89  H   SGN d 302      22.777  13.368   4.611  0.00  0.00     0.091 H 
ATOM     90  H   SGN d 302      20.553  10.457   6.068  0.00  0.00     0.131 H 
ATOM     91  H   SGN d 302      22.600  11.061   4.777  0.00  0.00     0.076 H 
ATOM     92  H   SGN d 302      23.022   7.242   7.113  0.00  0.00     0.231 HD
ATOM     93  H   SGN d 302      23.718  12.266   7.281  0.00  0.00     0.089 H 
ATOM     94  H   SGN d 302      22.317   8.985   3.584  0.00  0.00     0.231 HD
ATOM     95  O5  IDS d 303      20.926  10.176  10.701  0.00  0.00    -0.340 OA
ATOM     96  O2S IDS d 303      22.093   5.938  10.594  0.00  0.00    -0.572 OA
ATOM     97  O4  IDS d 303      21.320  10.820   7.876  0.00  0.00    -0.348 OA
ATOM     98  O1S IDS d 303      24.128   6.462   9.218  0.00  0.00    -0.572 OA
ATOM     99  C4  IDS d 303      20.053  10.424   8.405  0.00  0.00     0.103 C 
ATOM    100  S   IDS d 303      22.717   6.419   9.378  0.00  0.00     0.252 S 
ATOM    101  O2  IDS d 303      22.182   7.940   9.159  0.00  0.00    -0.244 OA
ATOM    102  O3  IDS d 303      18.420   8.738   8.838  0.00  0.00    -0.390 OA
ATOM    103  O61 IDS d 303      21.292  12.933  10.433  0.00  0.00    -0.646 OA
ATOM    104  C2  IDS d 303      20.706   8.028   9.405  0.00  0.00     0.134 C 
ATOM    105  C1  IDS d 303      20.627   8.717  10.777  0.00  0.00     0.161 C 
ATOM    106  O3S IDS d 303      22.202   5.509   8.254  0.00  0.00    -0.572 OA
ATOM    107  C3  IDS d 303      19.774   8.877   8.373  0.00  0.00     0.094 C 
ATOM    108  C5  IDS d 303      19.987  10.941   9.848  0.00  0.00     0.152 C 
ATOM    109  O62 IDS d 303      19.590  13.290   9.066  0.00  0.00    -0.646 OA
ATOM    110  C6  IDS d 303      20.333  12.469   9.813  0.00  0.00     0.206 C 
ATOM    111  H   IDS d 303      19.295  10.844   7.778  0.00  0.00     0.092 H 
ATOM    112  H   IDS d 303      17.825   9.230   8.250  0.00  0.00     0.210 HD
ATOM    113  H   IDS d 303      20.313   7.038   9.302  0.00  0.00     0.097 H 
ATOM    114  H   IDS d 303      21.400   8.328  11.407  0.00  0.00     0.133 H 
ATOM    115  H   IDS d 303      19.969   8.507   7.388  0.00  0.00     0.091 H 
ATOM    116  H   IDS d 303      19.011  10.810  10.268  0.00  0.00     0.104 H 
ATOM    117  C1  UAP d 301      24.237  15.147   7.100  0.00  0.00     0.167 C 
ATOM    118  C5  UAP d 301      26.381  15.421   8.093  0.00  0.00     0.147 C 
ATOM    119  O61 UAP d 301      28.513  15.209   9.195  0.00  0.00    -0.642 OA
ATOM    120  C2  UAP d 301      24.058  16.732   7.149  0.00  0.00     0.135 C 
ATOM    121  O62 UAP d 301      28.079  13.658   7.620  0.00  0.00    -0.642 OA
ATOM    122  O3  UAP d 301      23.707  16.896   9.602  0.00  0.00    -0.389 OA
ATOM    123  O5  UAP d 301      25.645  14.807   7.124  0.00  0.00    -0.311 OA
ATOM    124  C6  UAP d 301      27.724  14.766   8.350  0.00  0.00     0.233 C 
ATOM    125  O2  UAP d 301      24.803  17.428   6.027  0.00  0.00    -0.244 OA
ATOM    126  C3  UAP d 301      24.642  17.222   8.540  0.00  0.00     0.086 C 
ATOM    127  O2S UAP d 301      22.960  16.842   4.507  0.00  0.00    -0.572 OA
ATOM    128  C4  UAP d 301      26.007  16.525   8.801  0.00  0.00    -0.034 C 
ATOM    129  O3S UAP d 301      22.854  19.074   5.512  0.00  0.00    -0.572 OA
ATOM    130  O1S UAP d 301      24.602  18.683   3.870  0.00  0.00    -0.572 OA
ATOM    131  S   UAP d 301      23.797  18.002   4.883  0.00  0.00     0.252 S 
ATOM    132  H   UAP d 301      23.763  14.682   7.939  0.00  0.00     0.134 H 
ATOM    133  H   UAP d 301      23.022  16.972   7.036  0.00  0.00     0.097 H 
ATOM    134  H   UAP d 301      22.858  17.334   9.432  0.00  0.00     0.210 HD
ATOM    135  H   UAP d 301      24.786  18.282   8.515  0.00  0.00     0.093 H 
ATOM    136  H   UAP d 301      26.640  16.903   9.522  0.00  0.00     0.085 H 
ATOM    137  C5  IDS d 305      16.297   5.048  15.644  0.00  0.00     0.152 C 
ATOM    138  O2  IDS d 305      14.349   8.115  15.968  0.00  0.00    -0.244 OA
ATOM    139  C6  IDS d 305      17.172   4.548  14.515  0.00  0.00     0.206 C 
ATOM    140  O61 IDS d 305      16.731   4.458  13.363  0.00  0.00    -0.646 OA
ATOM    141  O2S IDS d 305      11.911   8.008  16.277  0.00  0.00    -0.572 OA
ATOM    142  O62 IDS d 305      18.433   4.184  14.795  0.00  0.00    -0.646 OA
ATOM    143  O5  IDS d 305      14.953   5.357  15.122  0.00  0.00    -0.340 OA
ATOM    144  C3  IDS d 305      15.967   6.863  17.454  0.00  0.00     0.094 C 
ATOM    145  O4  IDS d 305      17.184   7.285  15.229  0.00  0.00    -0.348 OA
ATOM    146  O1S IDS d 305      12.983  10.026  15.290  0.00  0.00    -0.572 OA
ATOM    147  C2  IDS d 305      14.476   7.034  16.939  0.00  0.00     0.134 C 
ATOM    148  C1  IDS d 305      14.020   5.724  16.207  0.00  0.00     0.161 C 
ATOM    149  C4  IDS d 305      16.940   6.325  16.294  0.00  0.00     0.103 C 
ATOM    150  O3  IDS d 305      15.917   5.860  18.449  0.00  0.00    -0.390 OA
ATOM    151  S   IDS d 305      13.014   8.958  16.257  0.00  0.00     0.252 S 
ATOM    152  O3S IDS d 305      13.144   9.569  17.669  0.00  0.00    -0.572 OA
ATOM    153  H   IDS d 305      16.212   4.290  16.395  0.00  0.00     0.104 H 
ATOM    154  H   IDS d 305      16.340   7.805  17.798  0.00  0.00     0.091 H 
ATOM    155  H   IDS d 305      13.876   7.250  17.799  0.00  0.00     0.097 H 
ATOM    156  H   IDS d 305      13.075   5.935  15.752  0.00  0.00     0.133 H 
ATOM    157  H   IDS d 305      17.880   6.124  16.765  0.00  0.00     0.092 H 
ATOM    158  H   IDS d 305      15.571   5.040  18.064  0.00  0.00     0.210 HD
ENDROOT
TORSDOF 49
ENDMDL
MODEL 41
REMARK VINA RESULT:      -5.4      3.246     15.079
REMARK  0 active torsions:
REMARK  status: ('A' for Active; 'I' for Inactive)
REMARK       I    between atoms: N_1  and  C2_65 
REMARK       I    between atoms: N_1  and  S1_100 
REMARK       I    between atoms: O2S_4  and  S1_36 
REMARK       I    between atoms: O2S_5  and  S1_100 
REMARK       I    between atoms: C5_7  and  C6_64 
REMARK       I    between atoms: O3_11  and  C3_17 
REMARK       I    between atoms: C1_12  and  O4_28 
REMARK       I    between atoms: C5_13  and  C6_35 
REMARK       I    between atoms: C5_14  and  C6_52 
REMARK       I    between atoms: O2S_16  and  S1_75 
REMARK       I    between atoms: C2_18  and  O2_63 
REMARK       I    between atoms: C5_19  and  C6_22 
REMARK       I    between atoms: O2_20  and  C2_53 
REMARK       I    between atoms: O2_20  and  S_86 
REMARK       I    between atoms: O4_21  and  C1_67 
REMARK       I    between atoms: O4_21  and  C4_48 
REMARK       I    between atoms: O3_26  and  C3_72 
REMARK       I    between atoms: O4_28  and  C4_71 
REMARK       I    between atoms: O3_30  and  C3_94 
REMARK       I    between atoms: N_33  and  C2_82 
REMARK       I    between atoms: N_33  and  S1_75 
REMARK       I    between atoms: C6_35  and  O6_59 
REMARK       I    between atoms: S1_36  and  N_37 
REMARK       I    between atoms: S1_36  and  O1S_89 
REMARK       I    between atoms: S1_36  and  O3S_97 
REMARK       I    between atoms: N_37  and  C2_78 
REMARK       I    between atoms: C3_38  and  O3_81 
REMARK       I    between atoms: O4_39  and  C1_85 
REMARK       I    between atoms: O4_39  and  C4_69 
REMARK       I    between atoms: O3_40  and  C3_47 
REMARK       I    between atoms: O4_41  and  C1_76 
REMARK       I    between atoms: O4_41  and  C4_43 
REMARK       I    between atoms: S2_44  and  O6_80 
REMARK       I    between atoms: S_46  and  O2_57 
REMARK       I    between atoms: O3S_49  and  S1_75 
REMARK       I    between atoms: C1_54  and  O4_96 
REMARK       I    between atoms: O2_57  and  C2_66 
REMARK       I    between atoms: O6_58  and  C6_64 
REMARK       I    between atoms: O6_58  and  S2_101 
REMARK       I    between atoms: O6_59  and  S2_73 
REMARK       I    between atoms: O3_61  and  C3_77 
REMARK       I    between atoms: O2_63  and  S_104 
REMARK       I    between atoms: S1_75  and  O1S_92 
REMARK       I    between atoms: O6_80  and  C6_88 
REMARK       I    between atoms: C5_83  and  C6_88 
REMARK       I    between atoms: O3S_84  and  S1_100 
REMARK       I    between atoms: C5_87  and  C6_103 
REMARK       I    between atoms: O1S_91  and  S1_100 
REMARK       I    between atoms: O4_96  and  C4_99 
ROOT
ATOM      1  N   SGN d 304      20.162   6.458  10.229  0.00  0.00    -0.210 NA
ATOM      2  O2S SGN d 304      17.999   6.219   9.019  0.00  0.00    -0.296 OA
ATOM      3  C5  SGN d 304      18.920   9.958  12.146  0.00  0.00     0.091 C 
ATOM      4  O5S SGN d 304      17.234  13.655  12.552  0.00  0.00    -0.572 OA
ATOM      5  O3  SGN d 304      21.875   8.830  10.124  0.00  0.00    -0.391 OA
ATOM      6  C3  SGN d 304      20.813   8.711  11.052  0.00  0.00     0.083 C 
ATOM      7  O4  SGN d 304      21.049  11.082  11.594  0.00  0.00    -0.348 OA
ATOM      8  O5  SGN d 304      18.011   8.960  11.723  0.00  0.00    -0.349 OA
ATOM      9  C4  SGN d 304      20.100  10.068  11.152  0.00  0.00     0.095 C 
ATOM     10  O4S SGN d 304      15.366  12.771  13.983  0.00  0.00    -0.572 OA
ATOM     11  O6S SGN d 304      15.325  12.608  11.597  0.00  0.00    -0.572 OA
ATOM     12  O6  SGN d 304      16.983  11.302  13.006  0.00  0.00    -0.254 OA
ATOM     13  C6  SGN d 304      18.114  11.299  12.148  0.00  0.00     0.067 C 
ATOM     14  C2  SGN d 304      19.703   7.776  10.498  0.00  0.00     0.081 C 
ATOM     15  O3S SGN d 304      19.946   6.857   7.720  0.00  0.00    -0.296 OA
ATOM     16  C1  SGN d 304      18.601   7.625  11.548  0.00  0.00     0.150 C 
ATOM     17  O1S SGN d 304      19.941   4.614   8.596  0.00  0.00    -0.296 OA
ATOM     18  S1  SGN d 304      19.442   5.936   8.842  0.00  0.00     0.156 S 
ATOM     19  S2  SGN d 304      16.225  12.664  12.835  0.00  0.00     0.251 S 
ATOM     20  H   SGN d 304      19.911   5.840  11.001  0.00  0.00     0.140 HD
ATOM     21  H   SGN d 304      17.873   7.168   9.174  0.00  0.00     0.231 HD
ATOM     22  H   SGN d 304      19.324   9.730  13.110  0.00  0.00     0.090 H 
ATOM     23  H   SGN d 304      22.336   7.980  10.049  0.00  0.00     0.210 HD
ATOM     24  H   SGN d 304      21.230   8.358  11.972  0.00  0.00     0.089 H 
ATOM     25  H   SGN d 304      19.716  10.348  10.194  0.00  0.00     0.091 H 
ATOM     26  H   SGN d 304      17.778  11.490  11.149  0.00  0.00     0.080 H 
ATOM     27  H   SGN d 304      18.778  12.054  12.515  0.00  0.00     0.080 H 
ATOM     28  H   SGN d 304      19.365   8.226   9.589  0.00  0.00     0.076 H 
ATOM     29  H   SGN d 304      19.618   7.758   7.869  0.00  0.00     0.231 HD
ATOM     30  H   SGN d 304      17.788   6.974  11.300  0.00  0.00     0.131 H 
ATOM     31  H   SGN d 304      19.632   4.017   9.296  0.00  0.00     0.231 HD
ATOM     32  O6S SGN d 306      23.395   6.293  18.593  0.00  0.00    -0.572 OA
ATOM     33  O5S SGN d 306      24.157   3.991  18.666  0.00  0.00    -0.572 OA
ATOM     34  O2S SGN d 306      15.308   5.991  19.582  0.00  0.00    -0.296 OA
ATOM     35  C1  SGN d 306      18.097   4.136  19.668  0.00  0.00     0.038 C 
ATOM     36  N   SGN d 306      15.888   3.736  18.849  0.00  0.00    -0.212 NA
ATOM     37  O3  SGN d 306      16.708   3.585  16.256  0.00  0.00    -0.391 OA
ATOM     38  S2  SGN d 306      23.342   4.970  19.385  0.00  0.00     0.251 S 
ATOM     39  C3  SGN d 306      17.665   3.473  17.318  0.00  0.00     0.081 C 
ATOM     40  O3S SGN d 306      14.669   5.396  17.305  0.00  0.00    -0.296 OA
ATOM     41  O4S SGN d 306      23.551   5.275  20.779  0.00  0.00    -0.572 OA
ATOM     42  O5  SGN d 306      19.390   4.656  19.328  0.00  0.00    -0.379 OA
ATOM     43  S1  SGN d 306      14.726   4.884  18.780  0.00  0.00     0.156 S 
ATOM     44  O6  SGN d 306      21.932   4.381  19.322  0.00  0.00    -0.254 OA
ATOM     45  C2  SGN d 306      17.157   4.241  18.489  0.00  0.00     0.054 C 
ATOM     46  C5  SGN d 306      19.946   3.956  18.193  0.00  0.00     0.087 C 
ATOM     47  C6  SGN d 306      21.326   4.576  18.009  0.00  0.00     0.067 C 
ATOM     48  O1S SGN d 306      13.478   4.201  19.154  0.00  0.00    -0.296 OA
ATOM     49  O4  SGN d 306      19.546   3.365  15.730  0.00  0.00    -0.348 OA
ATOM     50  C4  SGN d 306      19.021   4.082  16.936  0.00  0.00     0.095 C 
ATOM     51  H   SGN d 306      16.127   6.298  19.163  0.00  0.00     0.231 HD
ATOM     52  H   SGN d 306      18.195   3.108  19.950  0.00  0.00     0.077 H 
ATOM     53  H   SGN d 306      17.698   4.706  20.480  0.00  0.00     0.077 H 
ATOM     54  H   SGN d 306      15.937   3.374  19.802  0.00  0.00     0.140 HD
ATOM     55  H   SGN d 306      15.868   3.190  16.535  0.00  0.00     0.210 HD
ATOM     56  H   SGN d 306      17.795   2.432  17.530  0.00  0.00     0.089 H 
ATOM     57  H   SGN d 306      15.502   5.842  17.085  0.00  0.00     0.231 HD
ATOM     58  H   SGN d 306      17.086   5.272  18.216  0.00  0.00     0.072 H 
ATOM     59  H   SGN d 306      20.022   2.899  18.343  0.00  0.00     0.090 H 
ATOM     60  H   SGN d 306      21.880   4.069  17.247  0.00  0.00     0.080 H 
ATOM     61  H   SGN d 306      21.298   5.599  17.698  0.00  0.00     0.080 H 
ATOM     62  H   SGN d 306      13.540   3.894  20.072  0.00  0.00     0.231 HD
ATOM     63  H   SGN d 306      18.957   5.116  16.670  0.00  0.00     0.091 H 
ATOM     64  O6S SGN d 302      27.820  14.719   4.236  0.00  0.00    -0.572 OA
ATOM     65  O2S SGN d 302      24.548  16.056  11.764  0.00  0.00    -0.296 OA
ATOM     66  O5S SGN d 302      25.897  14.389   2.793  0.00  0.00    -0.572 OA
ATOM     67  C5  SGN d 302      24.276  15.574   6.432  0.00  0.00     0.091 C 
ATOM     68  O4  SGN d 302      23.508  17.483   5.142  0.00  0.00    -0.348 OA
ATOM     69  O3  SGN d 302      22.653  18.727   7.717  0.00  0.00    -0.391 OA
ATOM     70  C6  SGN d 302      25.255  15.274   5.281  0.00  0.00     0.067 C 
ATOM     71  S1  SGN d 302      23.683  17.202  11.667  0.00  0.00     0.156 S 
ATOM     72  N   SGN d 302      22.910  17.146  10.157  0.00  0.00    -0.210 NA
ATOM     73  O4S SGN d 302      27.098  12.476   3.981  0.00  0.00    -0.572 OA
ATOM     74  O6  SGN d 302      25.580  13.915   5.146  0.00  0.00    -0.254 OA
ATOM     75  O5  SGN d 302      24.861  15.121   7.716  0.00  0.00    -0.349 OA
ATOM     76  C4  SGN d 302      23.997  17.079   6.466  0.00  0.00     0.095 C 
ATOM     77  S2  SGN d 302      26.602  13.823   3.957  0.00  0.00     0.251 S 
ATOM     78  C1  SGN d 302      24.072  15.447   8.936  0.00  0.00     0.150 C 
ATOM     79  C2  SGN d 302      23.692  16.932   8.941  0.00  0.00     0.081 C 
ATOM     80  O1S SGN d 302      22.604  17.415  12.593  0.00  0.00    -0.296 OA
ATOM     81  C3  SGN d 302      22.975  17.343   7.634  0.00  0.00     0.083 C 
ATOM     82  O3S SGN d 302      24.655  18.368  11.749  0.00  0.00    -0.296 OA
ATOM     83  H   SGN d 302      24.017  15.245  11.721  0.00  0.00     0.231 HD
ATOM     84  H   SGN d 302      23.356  15.050   6.279  0.00  0.00     0.090 H 
ATOM     85  H   SGN d 302      22.202  19.003   6.904  0.00  0.00     0.210 HD
ATOM     86  H   SGN d 302      26.158  15.820   5.457  0.00  0.00     0.080 H 
ATOM     87  H   SGN d 302      24.765  15.566   4.376  0.00  0.00     0.080 H 
ATOM     88  H   SGN d 302      22.426  18.036  10.043  0.00  0.00     0.140 HD
ATOM     89  H   SGN d 302      24.869  17.667   6.665  0.00  0.00     0.091 H 
ATOM     90  H   SGN d 302      24.732  15.208   9.743  0.00  0.00     0.131 H 
ATOM     91  H   SGN d 302      24.551  17.570   8.961  0.00  0.00     0.076 H 
ATOM     92  H   SGN d 302      21.983  16.671  12.541  0.00  0.00     0.231 HD
ATOM     93  H   SGN d 302      22.072  16.794   7.469  0.00  0.00     0.089 H 
ATOM     94  H   SGN d 302      25.384  18.227  11.126  0.00  0.00     0.231 HD
ATOM     95  O5  IDS d 303      20.867  12.612   9.686  0.00  0.00    -0.340 OA
ATOM     96  O2S IDS d 303      19.683  13.849  13.736  0.00  0.00    -0.572 OA
ATOM     97  O4  IDS d 303      22.901  14.648   9.172  0.00  0.00    -0.348 OA
ATOM     98  O1S IDS d 303      19.566  16.259  13.040  0.00  0.00    -0.572 OA
ATOM     99  C4  IDS d 303      23.221  13.357   9.696  0.00  0.00     0.103 C 
ATOM    100  S   IDS d 303      20.306  15.066  13.255  0.00  0.00     0.252 S 
ATOM    101  O2  IDS d 303      21.002  14.693  11.832  0.00  0.00    -0.244 OA
ATOM    102  O3  IDS d 303      23.673  11.922  11.548  0.00  0.00    -0.390 OA
ATOM    103  O61 IDS d 303      21.205  12.892   6.927  0.00  0.00    -0.646 OA
ATOM    104  C2  IDS d 303      21.732  13.386  11.920  0.00  0.00     0.134 C 
ATOM    105  C1  IDS d 303      20.804  12.423  11.164  0.00  0.00     0.161 C 
ATOM    106  O3S IDS d 303      21.379  15.426  14.291  0.00  0.00    -0.572 OA
ATOM    107  C3  IDS d 303      23.217  13.257  11.265  0.00  0.00     0.094 C 
ATOM    108  C5  IDS d 303      22.207  12.369   9.103  0.00  0.00     0.152 C 
ATOM    109  O62 IDS d 303      23.363  12.405   6.878  0.00  0.00    -0.646 OA
ATOM    110  C6  IDS d 303      22.218  12.565   7.548  0.00  0.00     0.206 C 
ATOM    111  H   IDS d 303      24.230  13.135   9.417  0.00  0.00     0.092 H 
ATOM    112  H   IDS d 303      24.560  11.797  11.175  0.00  0.00     0.210 HD
ATOM    113  H   IDS d 303      21.927  13.207  12.957  0.00  0.00     0.097 H 
ATOM    114  H   IDS d 303      19.788  12.652  11.410  0.00  0.00     0.133 H 
ATOM    115  H   IDS d 303      23.815  14.048  11.667  0.00  0.00     0.091 H 
ATOM    116  H   IDS d 303      22.465  11.356   9.333  0.00  0.00     0.104 H 
ATOM    117  C1  UAP d 301      22.265  17.131   4.562  0.00  0.00     0.167 C 
ATOM    118  C5  UAP d 301      20.208  18.158   3.951  0.00  0.00     0.147 C 
ATOM    119  O61 UAP d 301      18.010  19.135   3.818  0.00  0.00    -0.642 OA
ATOM    120  C2  UAP d 301      22.542  16.863   3.013  0.00  0.00     0.135 C 
ATOM    121  O62 UAP d 301      19.301  19.883   5.507  0.00  0.00    -0.642 OA
ATOM    122  O3  UAP d 301      20.874  15.043   2.744  0.00  0.00    -0.389 OA
ATOM    123  O5  UAP d 301      21.335  18.231   4.715  0.00  0.00    -0.311 OA
ATOM    124  C6  UAP d 301      19.096  19.080   4.410  0.00  0.00     0.233 C 
ATOM    125  O2  UAP d 301      23.044  18.102   2.298  0.00  0.00    -0.244 OA
ATOM    126  C3  UAP d 301      21.165  16.415   2.367  0.00  0.00     0.086 C 
ATOM    127  O2S UAP d 301      25.285  17.660   3.209  0.00  0.00    -0.572 OA
ATOM    128  C4  UAP d 301      20.031  17.355   2.864  0.00  0.00    -0.034 C 
ATOM    129  O3S UAP d 301      24.858  16.808   0.952  0.00  0.00    -0.572 OA
ATOM    130  O1S UAP d 301      25.006  19.219   1.215  0.00  0.00    -0.572 OA
ATOM    131  S   UAP d 301      24.626  18.002   1.931  0.00  0.00     0.252 S 
ATOM    132  H   UAP d 301      21.845  16.266   5.031  0.00  0.00     0.134 H 
ATOM    133  H   UAP d 301      23.300  16.114   2.916  0.00  0.00     0.097 H 
ATOM    134  H   UAP d 301      21.586  14.463   2.431  0.00  0.00     0.210 HD
ATOM    135  H   UAP d 301      21.232  16.476   1.301  0.00  0.00     0.093 H 
ATOM    136  H   UAP d 301      19.129  17.371   2.363  0.00  0.00     0.085 H 
ATOM    137  C5  IDS d 305      19.219   6.236  15.053  0.00  0.00     0.152 C 
ATOM    138  O2  IDS d 305      20.564   4.330  12.249  0.00  0.00    -0.244 OA
ATOM    139  C6  IDS d 305      19.492   7.656  15.504  0.00  0.00     0.206 C 
ATOM    140  O61 IDS d 305      20.647   8.041  15.722  0.00  0.00    -0.646 OA
ATOM    141  O2S IDS d 305      21.812   2.249  12.651  0.00  0.00    -0.572 OA
ATOM    142  O62 IDS d 305      18.450   8.482  15.685  0.00  0.00    -0.646 OA
ATOM    143  O5  IDS d 305      20.493   5.501  14.953  0.00  0.00    -0.340 OA
ATOM    144  C3  IDS d 305      18.250   4.734  13.187  0.00  0.00     0.094 C 
ATOM    145  O4  IDS d 305      19.283   7.047  12.750  0.00  0.00    -0.348 OA
ATOM    146  O1S IDS d 305      22.179   3.575  10.576  0.00  0.00    -0.572 OA
ATOM    147  C2  IDS d 305      19.592   3.887  13.242  0.00  0.00     0.134 C 
ATOM    148  C1  IDS d 305      20.272   4.073  14.643  0.00  0.00     0.161 C 
ATOM    149  C4  IDS d 305      18.482   6.249  13.665  0.00  0.00     0.103 C 
ATOM    150  O3  IDS d 305      17.379   4.133  14.125  0.00  0.00    -0.390 OA
ATOM    151  S   IDS d 305      21.271   3.060  11.569  0.00  0.00     0.252 S 
ATOM    152  O3S IDS d 305      20.173   2.237  10.861  0.00  0.00    -0.572 OA
ATOM    153  H   IDS d 305      18.590   5.747  15.767  0.00  0.00     0.104 H 
ATOM    154  H   IDS d 305      17.875   4.749  12.185  0.00  0.00     0.091 H 
ATOM    155  H   IDS d 305      19.321   2.869  13.053  0.00  0.00     0.097 H 
ATOM    156  H   IDS d 305      21.236   3.611  14.585  0.00  0.00     0.133 H 
ATOM    157  H   IDS d 305      17.511   6.697  13.714  0.00  0.00     0.092 H 
ATOM    158  H   IDS d 305      17.785   4.157  15.005  0.00  0.00     0.210 HD
ENDROOT
TORSDOF 49
ENDMDL
MODEL 42
REMARK VINA RESULT:      -5.3      3.565      7.084
REMARK  0 active torsions:
REMARK  status: ('A' for Active; 'I' for Inactive)
REMARK       I    between atoms: N_1  and  C2_65 
REMARK       I    between atoms: N_1  and  S1_100 
REMARK       I    between atoms: O2S_4  and  S1_36 
REMARK       I    between atoms: O2S_5  and  S1_100 
REMARK       I    between atoms: C5_7  and  C6_64 
REMARK       I    between atoms: O3_11  and  C3_17 
REMARK       I    between atoms: C1_12  and  O4_28 
REMARK       I    between atoms: C5_13  and  C6_35 
REMARK       I    between atoms: C5_14  and  C6_52 
REMARK       I    between atoms: O2S_16  and  S1_75 
REMARK       I    between atoms: C2_18  and  O2_63 
REMARK       I    between atoms: C5_19  and  C6_22 
REMARK       I    between atoms: O2_20  and  C2_53 
REMARK       I    between atoms: O2_20  and  S_86 
REMARK       I    between atoms: O4_21  and  C1_67 
REMARK       I    between atoms: O4_21  and  C4_48 
REMARK       I    between atoms: O3_26  and  C3_72 
REMARK       I    between atoms: O4_28  and  C4_71 
REMARK       I    between atoms: O3_30  and  C3_94 
REMARK       I    between atoms: N_33  and  C2_82 
REMARK       I    between atoms: N_33  and  S1_75 
REMARK       I    between atoms: C6_35  and  O6_59 
REMARK       I    between atoms: S1_36  and  N_37 
REMARK       I    between atoms: S1_36  and  O1S_89 
REMARK       I    between atoms: S1_36  and  O3S_97 
REMARK       I    between atoms: N_37  and  C2_78 
REMARK       I    between atoms: C3_38  and  O3_81 
REMARK       I    between atoms: O4_39  and  C1_85 
REMARK       I    between atoms: O4_39  and  C4_69 
REMARK       I    between atoms: O3_40  and  C3_47 
REMARK       I    between atoms: O4_41  and  C1_76 
REMARK       I    between atoms: O4_41  and  C4_43 
REMARK       I    between atoms: S2_44  and  O6_80 
REMARK       I    between atoms: S_46  and  O2_57 
REMARK       I    between atoms: O3S_49  and  S1_75 
REMARK       I    between atoms: C1_54  and  O4_96 
REMARK       I    between atoms: O2_57  and  C2_66 
REMARK       I    between atoms: O6_58  and  C6_64 
REMARK       I    between atoms: O6_58  and  S2_101 
REMARK       I    between atoms: O6_59  and  S2_73 
REMARK       I    between atoms: O3_61  and  C3_77 
REMARK       I    between atoms: O2_63  and  S_104 
REMARK       I    between atoms: S1_75  and  O1S_92 
REMARK       I    between atoms: O6_80  and  C6_88 
REMARK       I    between atoms: C5_83  and  C6_88 
REMARK       I    between atoms: O3S_84  and  S1_100 
REMARK       I    between atoms: C5_87  and  C6_103 
REMARK       I    between atoms: O1S_91  and  S1_100 
REMARK       I    between atoms: O4_96  and  C4_99 
ROOT
ATOM      1  N   SGN d 304      20.126  12.801   7.490  0.00  0.00    -0.210 NA
ATOM      2  O2S SGN d 304      19.210  11.566   5.532  0.00  0.00    -0.296 OA
ATOM      3  C5  SGN d 304      22.439   9.538   8.705  0.00  0.00     0.091 C 
ATOM      4  O5S SGN d 304      23.334   5.651   9.577  0.00  0.00    -0.572 OA
ATOM      5  O3  SGN d 304      19.955  11.882  10.264  0.00  0.00    -0.391 OA
ATOM      6  C3  SGN d 304      21.010  11.488   9.407  0.00  0.00     0.083 C 
ATOM      7  O4  SGN d 304      21.682   9.800  11.041  0.00  0.00    -0.348 OA
ATOM      8  O5  SGN d 304      22.075   9.751   7.354  0.00  0.00    -0.349 OA
ATOM      9  C4  SGN d 304      21.303  10.000   9.647  0.00  0.00     0.095 C 
ATOM     10  O4S SGN d 304      24.941   5.470   7.653  0.00  0.00    -0.572 OA
ATOM     11  O6S SGN d 304      22.578   5.247   7.359  0.00  0.00    -0.572 OA
ATOM     12  O6  SGN d 304      23.650   7.453   8.009  0.00  0.00    -0.254 OA
ATOM     13  C6  SGN d 304      22.646   7.995   8.856  0.00  0.00     0.067 C 
ATOM     14  C2  SGN d 304      20.548  11.515   7.923  0.00  0.00     0.081 C 
ATOM     15  O3S SGN d 304      17.704  12.008   7.382  0.00  0.00    -0.296 OA
ATOM     16  C1  SGN d 304      21.725  11.139   7.022  0.00  0.00     0.150 C 
ATOM     17  O1S SGN d 304      18.411  13.924   6.105  0.00  0.00    -0.296 OA
ATOM     18  S1  SGN d 304      18.816  12.608   6.507  0.00  0.00     0.156 S 
ATOM     19  S2  SGN d 304      23.682   5.897   8.199  0.00  0.00     0.251 S 
ATOM     20  H   SGN d 304      20.879  13.257   6.975  0.00  0.00     0.140 HD
ATOM     21  H   SGN d 304      19.447  10.753   6.004  0.00  0.00     0.231 HD
ATOM     22  H   SGN d 304      23.320  10.090   8.959  0.00  0.00     0.090 H 
ATOM     23  H   SGN d 304      19.758  12.821  10.124  0.00  0.00     0.210 HD
ATOM     24  H   SGN d 304      21.837  12.141   9.594  0.00  0.00     0.089 H 
ATOM     25  H   SGN d 304      20.429   9.419   9.440  0.00  0.00     0.091 H 
ATOM     26  H   SGN d 304      21.720   7.509   8.631  0.00  0.00     0.080 H 
ATOM     27  H   SGN d 304      22.972   7.828   9.861  0.00  0.00     0.080 H 
ATOM     28  H   SGN d 304      19.728  10.831   7.858  0.00  0.00     0.076 H 
ATOM     29  H   SGN d 304      17.960  11.116   7.665  0.00  0.00     0.231 HD
ATOM     30  H   SGN d 304      21.546  11.154   5.967  0.00  0.00     0.131 H 
ATOM     31  H   SGN d 304      19.102  14.319   5.551  0.00  0.00     0.231 HD
ATOM     32  O6S SGN d 306      27.934  15.973  10.556  0.00  0.00    -0.572 OA
ATOM     33  O5S SGN d 306      27.737  18.271   9.805  0.00  0.00    -0.572 OA
ATOM     34  O2S SGN d 306      29.999  11.645   3.962  0.00  0.00    -0.296 OA
ATOM     35  C1  SGN d 306      29.569  14.767   5.102  0.00  0.00     0.038 C 
ATOM     36  N   SGN d 306      29.035  13.688   3.038  0.00  0.00    -0.212 NA
ATOM     37  O3  SGN d 306      26.349  13.927   3.428  0.00  0.00    -0.391 OA
ATOM     38  S2  SGN d 306      28.629  17.112   9.782  0.00  0.00     0.251 S 
ATOM     39  C3  SGN d 306      27.259  14.721   4.201  0.00  0.00     0.081 C 
ATOM     40  O3S SGN d 306      27.795  11.434   2.941  0.00  0.00    -0.296 OA
ATOM     41  O4S SGN d 306      30.000  17.182  10.227  0.00  0.00    -0.572 OA
ATOM     42  O5  SGN d 306      29.093  15.056   6.424  0.00  0.00    -0.379 OA
ATOM     43  S1  SGN d 306      29.208  12.082   2.784  0.00  0.00     0.156 S 
ATOM     44  O6  SGN d 306      28.719  16.754   8.298  0.00  0.00    -0.254 OA
ATOM     45  C2  SGN d 306      28.541  13.972   4.330  0.00  0.00     0.054 C 
ATOM     46  C5  SGN d 306      27.845  15.782   6.376  0.00  0.00     0.087 C 
ATOM     47  C6  SGN d 306      27.518  16.063   7.838  0.00  0.00     0.067 C 
ATOM     48  O1S SGN d 306      29.699  11.955   1.403  0.00  0.00    -0.296 OA
ATOM     49  O4  SGN d 306      25.425  15.682   5.535  0.00  0.00    -0.348 OA
ATOM     50  C4  SGN d 306      26.740  14.969   5.623  0.00  0.00     0.095 C 
ATOM     51  H   SGN d 306      29.495  11.818   4.772  0.00  0.00     0.231 HD
ATOM     52  H   SGN d 306      29.761  15.686   4.589  0.00  0.00     0.077 H 
ATOM     53  H   SGN d 306      30.467  14.190   5.177  0.00  0.00     0.077 H 
ATOM     54  H   SGN d 306      29.943  14.138   2.927  0.00  0.00     0.140 HD
ATOM     55  H   SGN d 306      26.713  13.793   2.538  0.00  0.00     0.210 HD
ATOM     56  H   SGN d 306      27.378  15.660   3.702  0.00  0.00     0.089 H 
ATOM     57  H   SGN d 306      27.495  11.532   3.859  0.00  0.00     0.231 HD
ATOM     58  H   SGN d 306      28.355  13.066   4.867  0.00  0.00     0.072 H 
ATOM     59  H   SGN d 306      27.908  16.694   5.819  0.00  0.00     0.090 H 
ATOM     60  H   SGN d 306      26.654  16.687   7.929  0.00  0.00     0.080 H 
ATOM     61  H   SGN d 306      27.287  15.184   8.402  0.00  0.00     0.080 H 
ATOM     62  H   SGN d 306      30.576  12.364   1.334  0.00  0.00     0.231 HD
ATOM     63  H   SGN d 306      26.558  14.067   6.169  0.00  0.00     0.091 H 
ATOM     64  O6S SGN d 302      13.741   9.809  18.124  0.00  0.00    -0.572 OA
ATOM     65  O2S SGN d 302      21.723   7.875  16.812  0.00  0.00    -0.296 OA
ATOM     66  O5S SGN d 302      12.557   8.753  16.288  0.00  0.00    -0.572 OA
ATOM     67  C5  SGN d 302      16.458   7.365  15.942  0.00  0.00     0.091 C 
ATOM     68  O4  SGN d 302      15.424   5.209  16.372  0.00  0.00    -0.348 OA
ATOM     69  O3  SGN d 302      18.175   4.072  16.602  0.00  0.00    -0.391 OA
ATOM     70  C6  SGN d 302      15.165   8.015  16.469  0.00  0.00     0.067 C 
ATOM     71  S1  SGN d 302      21.827   6.440  16.793  0.00  0.00     0.156 S 
ATOM     72  N   SGN d 302      20.438   5.826  16.037  0.00  0.00    -0.210 NA
ATOM     73  O4S SGN d 302      13.429  11.150  16.196  0.00  0.00    -0.572 OA
ATOM     74  O6  SGN d 302      14.890   9.275  15.914  0.00  0.00    -0.254 OA
ATOM     75  O5  SGN d 302      17.614   8.246  16.230  0.00  0.00    -0.349 OA
ATOM     76  C4  SGN d 302      16.637   6.001  16.614  0.00  0.00     0.095 C 
ATOM     77  S2  SGN d 302      13.570   9.778  16.597  0.00  0.00     0.251 S 
ATOM     78  C1  SGN d 302      18.951   7.694  15.875  0.00  0.00     0.150 C 
ATOM     79  C2  SGN d 302      19.114   6.284  16.452  0.00  0.00     0.081 C 
ATOM     80  O1S SGN d 302      22.905   5.770  16.117  0.00  0.00    -0.296 OA
ATOM     81  C3  SGN d 302      17.950   5.356  16.033  0.00  0.00     0.083 C 
ATOM     82  O3S SGN d 302      21.858   6.082  18.270  0.00  0.00    -0.296 OA
ATOM     83  H   SGN d 302      21.695   8.210  15.902  0.00  0.00     0.231 HD
ATOM     84  H   SGN d 302      16.395   7.228  14.883  0.00  0.00     0.090 H 
ATOM     85  H   SGN d 302      17.453   3.475  16.349  0.00  0.00     0.210 HD
ATOM     86  H   SGN d 302      15.254   8.127  17.530  0.00  0.00     0.080 H 
ATOM     87  H   SGN d 302      14.359   7.370  16.188  0.00  0.00     0.080 H 
ATOM     88  H   SGN d 302      20.454   4.815  16.169  0.00  0.00     0.140 HD
ATOM     89  H   SGN d 302      16.755   6.064  17.676  0.00  0.00     0.091 H 
ATOM     90  H   SGN d 302      19.640   8.382  16.317  0.00  0.00     0.131 H 
ATOM     91  H   SGN d 302      19.061   6.275  17.521  0.00  0.00     0.076 H 
ATOM     92  H   SGN d 302      22.887   5.997  15.175  0.00  0.00     0.231 HD
ATOM     93  H   SGN d 302      17.871   5.248  14.971  0.00  0.00     0.089 H 
ATOM     94  H   SGN d 302      21.132   6.534  18.728  0.00  0.00     0.231 HD
ATOM     95  O5  IDS d 303      19.929   8.205  11.673  0.00  0.00    -0.340 OA
ATOM     96  O2S IDS d 303      24.182   7.085  11.737  0.00  0.00    -0.572 OA
ATOM     97  O4  IDS d 303      19.288   7.686  14.478  0.00  0.00    -0.348 OA
ATOM     98  O1S IDS d 303      23.681   4.989  13.027  0.00  0.00    -0.572 OA
ATOM     99  C4  IDS d 303      19.670   8.978  14.003  0.00  0.00     0.103 C 
ATOM    100  S   IDS d 303      23.708   6.406  12.925  0.00  0.00     0.252 S 
ATOM    101  O2  IDS d 303      22.180   6.913  13.164  0.00  0.00    -0.244 OA
ATOM    102  O3  IDS d 303      21.336  10.648  13.640  0.00  0.00    -0.390 OA
ATOM    103  O61 IDS d 303      17.177   7.794  11.922  0.00  0.00    -0.646 OA
ATOM    104  C2  IDS d 303      22.074   8.397  12.979  0.00  0.00     0.134 C 
ATOM    105  C1  IDS d 303      21.385   8.524  11.612  0.00  0.00     0.161 C 
ATOM    106  O3S IDS d 303      24.610   6.885  14.071  0.00  0.00    -0.572 OA
ATOM    107  C3  IDS d 303      21.213   9.274  14.048  0.00  0.00     0.094 C 
ATOM    108  C5  IDS d 303      19.152   9.099  12.563  0.00  0.00     0.152 C 
ATOM    109  O62 IDS d 303      16.798   9.434  13.358  0.00  0.00    -0.646 OA
ATOM    110  C6  IDS d 303      17.629   8.733  12.582  0.00  0.00     0.206 C 
ATOM    111  H   IDS d 303      19.240   9.705  14.661  0.00  0.00     0.092 H 
ATOM    112  H   IDS d 303      20.836  11.213  14.251  0.00  0.00     0.210 HD
ATOM    113  H   IDS d 303      23.059   8.798  13.100  0.00  0.00     0.097 H 
ATOM    114  H   IDS d 303      21.784   7.783  10.951  0.00  0.00     0.133 H 
ATOM    115  H   IDS d 303      21.585   9.044  15.025  0.00  0.00     0.091 H 
ATOM    116  H   IDS d 303      19.272  10.092  12.184  0.00  0.00     0.104 H 
ATOM    117  C1  UAP d 301      14.997   4.687  15.127  0.00  0.00     0.167 C 
ATOM    118  C5  UAP d 301      14.749   2.583  14.046  0.00  0.00     0.147 C 
ATOM    119  O61 UAP d 301      14.989   0.502  12.856  0.00  0.00    -0.642 OA
ATOM    120  C2  UAP d 301      13.410   4.848  15.084  0.00  0.00     0.135 C 
ATOM    121  O62 UAP d 301      16.533   0.888  14.450  0.00  0.00    -0.642 OA
ATOM    122  O3  UAP d 301      13.243   5.299  12.647  0.00  0.00    -0.389 OA
ATOM    123  O5  UAP d 301      15.354   3.286  15.045  0.00  0.00    -0.311 OA
ATOM    124  C6  UAP d 301      15.420   1.260  13.734  0.00  0.00     0.233 C 
ATOM    125  O2  UAP d 301      12.722   4.050  16.173  0.00  0.00    -0.244 OA
ATOM    126  C3  UAP d 301      12.928   4.317  13.669  0.00  0.00     0.086 C 
ATOM    127  O2S UAP d 301      13.284   5.834  17.769  0.00  0.00    -0.572 OA
ATOM    128  C4  UAP d 301      13.642   2.973  13.353  0.00  0.00    -0.034 C 
ATOM    129  O3S UAP d 301      11.051   5.955  16.766  0.00  0.00    -0.572 OA
ATOM    130  O1S UAP d 301      11.463   4.146  18.335  0.00  0.00    -0.572 OA
ATOM    131  S   UAP d 301      12.135   5.000  17.357  0.00  0.00     0.252 S 
ATOM    132  H   UAP d 301      15.456   5.201  14.309  0.00  0.00     0.134 H 
ATOM    133  H   UAP d 301      13.157   5.876  15.240  0.00  0.00     0.097 H 
ATOM    134  H   UAP d 301      12.795   6.135  12.851  0.00  0.00     0.210 HD
ATOM    135  H   UAP d 301      11.870   4.159  13.687  0.00  0.00     0.093 H 
ATOM    136  H   UAP d 301      13.272   2.365  12.605  0.00  0.00     0.085 H 
ATOM    137  C5  IDS d 305      25.005  13.097   6.933  0.00  0.00     0.152 C 
ATOM    138  O2  IDS d 305      21.915  15.019   6.687  0.00  0.00    -0.244 OA
ATOM    139  C6  IDS d 305      25.515  12.181   8.026  0.00  0.00     0.206 C 
ATOM    140  O61 IDS d 305      25.598  12.575   9.195  0.00  0.00    -0.646 OA
ATOM    141  O2S IDS d 305      21.992  17.469   6.479  0.00  0.00    -0.572 OA
ATOM    142  O62 IDS d 305      25.894  10.938   7.694  0.00  0.00    -0.646 OA
ATOM    143  O5  IDS d 305      24.679  14.414   7.510  0.00  0.00    -0.340 OA
ATOM    144  C3  IDS d 305      23.187  13.479   5.136  0.00  0.00     0.094 C 
ATOM    145  O4  IDS d 305      22.779  12.166   7.308  0.00  0.00    -0.348 OA
ATOM    146  O1S IDS d 305      19.987  16.333   7.418  0.00  0.00    -0.572 OA
ATOM    147  C2  IDS d 305      22.997  14.946   5.712  0.00  0.00     0.134 C 
ATOM    148  C1  IDS d 305      24.302  15.387   6.464  0.00  0.00     0.161 C 
ATOM    149  C4  IDS d 305      23.736  12.466   6.255  0.00  0.00     0.103 C 
ATOM    150  O3  IDS d 305      24.191  13.583   4.145  0.00  0.00    -0.390 OA
ATOM    151  S   IDS d 305      21.056  16.354   6.452  0.00  0.00     0.252 S 
ATOM    152  O3S IDS d 305      20.448  16.276   5.034  0.00  0.00    -0.572 OA
ATOM    153  H   IDS d 305      25.762  13.222   6.187  0.00  0.00     0.104 H 
ATOM    154  H   IDS d 305      22.250  13.110   4.775  0.00  0.00     0.091 H 
ATOM    155  H   IDS d 305      22.775  15.578   4.877  0.00  0.00     0.097 H 
ATOM    156  H   IDS d 305      24.079  16.310   6.958  0.00  0.00     0.133 H 
ATOM    157  H   IDS d 305      23.949  11.549   5.746  0.00  0.00     0.092 H 
ATOM    158  H   IDS d 305      25.006  13.922   4.545  0.00  0.00     0.210 HD
ENDROOT
TORSDOF 49
ENDMDL
MODEL 43
REMARK VINA RESULT:      -5.2      4.498     15.561
REMARK  0 active torsions:
REMARK  status: ('A' for Active; 'I' for Inactive)
REMARK       I    between atoms: N_1  and  C2_65 
REMARK       I    between atoms: N_1  and  S1_100 
REMARK       I    between atoms: O2S_4  and  S1_36 
REMARK       I    between atoms: O2S_5  and  S1_100 
REMARK       I    between atoms: C5_7  and  C6_64 
REMARK       I    between atoms: O3_11  and  C3_17 
REMARK       I    between atoms: C1_12  and  O4_28 
REMARK       I    between atoms: C5_13  and  C6_35 
REMARK       I    between atoms: C5_14  and  C6_52 
REMARK       I    between atoms: O2S_16  and  S1_75 
REMARK       I    between atoms: C2_18  and  O2_63 
REMARK       I    between atoms: C5_19  and  C6_22 
REMARK       I    between atoms: O2_20  and  C2_53 
REMARK       I    between atoms: O2_20  and  S_86 
REMARK       I    between atoms: O4_21  and  C1_67 
REMARK       I    between atoms: O4_21  and  C4_48 
REMARK       I    between atoms: O3_26  and  C3_72 
REMARK       I    between atoms: O4_28  and  C4_71 
REMARK       I    between atoms: O3_30  and  C3_94 
REMARK       I    between atoms: N_33  and  C2_82 
REMARK       I    between atoms: N_33  and  S1_75 
REMARK       I    between atoms: C6_35  and  O6_59 
REMARK       I    between atoms: S1_36  and  N_37 
REMARK       I    between atoms: S1_36  and  O1S_89 
REMARK       I    between atoms: S1_36  and  O3S_97 
REMARK       I    between atoms: N_37  and  C2_78 
REMARK       I    between atoms: C3_38  and  O3_81 
REMARK       I    between atoms: O4_39  and  C1_85 
REMARK       I    between atoms: O4_39  and  C4_69 
REMARK       I    between atoms: O3_40  and  C3_47 
REMARK       I    between atoms: O4_41  and  C1_76 
REMARK       I    between atoms: O4_41  and  C4_43 
REMARK       I    between atoms: S2_44  and  O6_80 
REMARK       I    between atoms: S_46  and  O2_57 
REMARK       I    between atoms: O3S_49  and  S1_75 
REMARK       I    between atoms: C1_54  and  O4_96 
REMARK       I    between atoms: O2_57  and  C2_66 
REMARK       I    between atoms: O6_58  and  C6_64 
REMARK       I    between atoms: O6_58  and  S2_101 
REMARK       I    between atoms: O6_59  and  S2_73 
REMARK       I    between atoms: O3_61  and  C3_77 
REMARK       I    between atoms: O2_63  and  S_104 
REMARK       I    between atoms: S1_75  and  O1S_92 
REMARK       I    between atoms: O6_80  and  C6_88 
REMARK       I    between atoms: C5_83  and  C6_88 
REMARK       I    between atoms: O3S_84  and  S1_100 
REMARK       I    between atoms: C5_87  and  C6_103 
REMARK       I    between atoms: O1S_91  and  S1_100 
REMARK       I    between atoms: O4_96  and  C4_99 
ROOT
ATOM      1  N   SGN d 304      19.976  10.915  13.829  0.00  0.00    -0.210 NA
ATOM      2  O2S SGN d 304      20.972  12.314  15.633  0.00  0.00    -0.296 OA
ATOM      3  C5  SGN d 304      23.717   9.548  12.564  0.00  0.00     0.091 C 
ATOM      4  O5S SGN d 304      27.655   9.741  11.499  0.00  0.00    -0.572 OA
ATOM      5  O3  SGN d 304      20.683  11.105  10.995  0.00  0.00    -0.391 OA
ATOM      6  C3  SGN d 304      21.406  10.287  11.895  0.00  0.00     0.083 C 
ATOM      7  O4  SGN d 304      23.144   9.993  10.203  0.00  0.00    -0.348 OA
ATOM      8  O5  SGN d 304      23.466   9.949  13.897  0.00  0.00    -0.349 OA
ATOM      9  C4  SGN d 304      22.903  10.416  11.577  0.00  0.00     0.095 C 
ATOM     10  O4S SGN d 304      28.381   8.426  13.514  0.00  0.00    -0.572 OA
ATOM     11  O6S SGN d 304      27.915  10.769  13.628  0.00  0.00    -0.572 OA
ATOM     12  O6  SGN d 304      26.094   9.054  13.202  0.00  0.00    -0.254 OA
ATOM     13  C6  SGN d 304      25.245   9.782  12.325  0.00  0.00     0.067 C 
ATOM     14  C2  SGN d 304      21.309  10.847  13.342  0.00  0.00     0.081 C 
ATOM     15  O3S SGN d 304      20.029  13.463  13.715  0.00  0.00    -0.296 OA
ATOM     16  C1  SGN d 304      22.052   9.910  14.296  0.00  0.00     0.150 C 
ATOM     17  O1S SGN d 304      18.461  12.345  15.163  0.00  0.00    -0.296 OA
ATOM     18  S1  SGN d 304      19.819  12.304  14.703  0.00  0.00     0.156 S 
ATOM     19  S2  SGN d 304      27.581   9.457  12.912  0.00  0.00     0.251 S 
ATOM     20  H   SGN d 304      19.784  10.110  14.424  0.00  0.00     0.140 HD
ATOM     21  H   SGN d 304      21.797  12.281  15.125  0.00  0.00     0.231 HD
ATOM     22  H   SGN d 304      23.438   8.526  12.408  0.00  0.00     0.090 H 
ATOM     23  H   SGN d 304      19.735  11.034  11.183  0.00  0.00     0.210 HD
ATOM     24  H   SGN d 304      21.016   9.294  11.810  0.00  0.00     0.089 H 
ATOM     25  H   SGN d 304      23.210  11.435  11.684  0.00  0.00     0.091 H 
ATOM     26  H   SGN d 304      25.448  10.825  12.452  0.00  0.00     0.080 H 
ATOM     27  H   SGN d 304      25.457   9.433  11.336  0.00  0.00     0.080 H 
ATOM     28  H   SGN d 304      21.725  11.832  13.304  0.00  0.00     0.076 H 
ATOM     29  H   SGN d 304      20.943  13.452  13.393  0.00  0.00     0.231 HD
ATOM     30  H   SGN d 304      22.031  10.167  15.334  0.00  0.00     0.131 H 
ATOM     31  H   SGN d 304      18.310  11.619  15.789  0.00  0.00     0.231 HD
ATOM     32  O6S SGN d 306      19.102   2.291  11.530  0.00  0.00    -0.572 OA
ATOM     33  O5S SGN d 306      16.881   1.879  12.417  0.00  0.00    -0.572 OA
ATOM     34  O2S SGN d 306      24.126   2.137  17.949  0.00  0.00    -0.296 OA
ATOM     35  C1  SGN d 306      20.969   1.548  16.992  0.00  0.00     0.038 C 
ATOM     36  N   SGN d 306      21.932   2.546  18.938  0.00  0.00    -0.212 NA
ATOM     37  O3  SGN d 306      20.900   5.004  18.379  0.00  0.00    -0.391 OA
ATOM     38  S2  SGN d 306      18.251   1.365  12.424  0.00  0.00     0.251 S 
ATOM     39  C3  SGN d 306      20.375   3.841  17.726  0.00  0.00     0.081 C 
ATOM     40  O3S SGN d 306      23.725   4.387  18.798  0.00  0.00    -0.296 OA
ATOM     41  O4S SGN d 306      18.566   0.000  12.082  0.00  0.00    -0.572 OA
ATOM     42  O5  SGN d 306      20.496   1.805  15.662  0.00  0.00    -0.379 OA
ATOM     43  S1  SGN d 306      23.527   2.866  19.096  0.00  0.00     0.156 S 
ATOM     44  O6  SGN d 306      18.683   1.510  13.884  0.00  0.00    -0.254 OA
ATOM     45  C2  SGN d 306      21.460   2.824  17.637  0.00  0.00     0.054 C 
ATOM     46  C5  SGN d 306      19.439   2.789  15.672  0.00  0.00     0.087 C 
ATOM     47  C6  SGN d 306      19.011   2.894  14.212  0.00  0.00     0.067 C 
ATOM     48  O1S SGN d 306      23.853   2.553  20.496  0.00  0.00    -0.296 OA
ATOM     49  O4  SGN d 306      18.861   5.198  16.334  0.00  0.00    -0.348 OA
ATOM     50  C4  SGN d 306      19.924   4.143  16.290  0.00  0.00     0.095 C 
ATOM     51  H   SGN d 306      23.778   2.498  17.119  0.00  0.00     0.231 HD
ATOM     52  H   SGN d 306      20.170   1.143  17.577  0.00  0.00     0.077 H 
ATOM     53  H   SGN d 306      21.780   0.852  16.941  0.00  0.00     0.077 H 
ATOM     54  H   SGN d 306      21.773   1.559  19.141  0.00  0.00     0.140 HD
ATOM     55  H   SGN d 306      21.173   4.773  19.281  0.00  0.00     0.210 HD
ATOM     56  H   SGN d 306      19.534   3.500  18.293  0.00  0.00     0.089 H 
ATOM     57  H   SGN d 306      23.505   4.567  17.871  0.00  0.00     0.231 HD
ATOM     58  H   SGN d 306      22.247   3.217  17.028  0.00  0.00     0.072 H 
ATOM     59  H   SGN d 306      18.610   2.514  16.291  0.00  0.00     0.090 H 
ATOM     60  H   SGN d 306      18.158   3.531  14.104  0.00  0.00     0.080 H 
ATOM     61  H   SGN d 306      19.759   3.320  13.576  0.00  0.00     0.080 H 
ATOM     62  H   SGN d 306      23.722   1.604  20.654  0.00  0.00     0.231 HD
ATOM     63  H   SGN d 306      20.709   4.529  15.675  0.00  0.00     0.091 H 
ATOM     64  O6S SGN d 302      20.503  16.955   2.602  0.00  0.00    -0.572 OA
ATOM     65  O2S SGN d 302      24.745  10.015   4.334  0.00  0.00    -0.296 OA
ATOM     66  O5S SGN d 302      21.243  18.547   4.277  0.00  0.00    -0.572 OA
ATOM     67  C5  SGN d 302      23.728  15.257   4.800  0.00  0.00     0.091 C 
ATOM     68  O4  SGN d 302      25.465  16.828   4.157  0.00  0.00    -0.348 OA
ATOM     69  O3  SGN d 302      27.347  14.514   4.044  0.00  0.00    -0.391 OA
ATOM     70  C6  SGN d 302      22.705  16.257   4.229  0.00  0.00     0.067 C 
ATOM     71  S1  SGN d 302      26.147  10.331   4.265  0.00  0.00     0.156 S 
ATOM     72  N   SGN d 302      26.360  11.898   4.880  0.00  0.00    -0.210 NA
ATOM     73  O4S SGN d 302      19.214  17.031   4.588  0.00  0.00    -0.572 OA
ATOM     74  O6  SGN d 302      21.445  16.203   4.846  0.00  0.00    -0.254 OA
ATOM     75  O5  SGN d 302      23.212  13.875   4.652  0.00  0.00    -0.349 OA
ATOM     76  C4  SGN d 302      25.053  15.422   4.053  0.00  0.00     0.095 C 
ATOM     77  S2  SGN d 302      20.548  17.258   4.108  0.00  0.00     0.251 S 
ATOM     78  C1  SGN d 302      24.147  12.791   5.062  0.00  0.00     0.150 C 
ATOM     79  C2  SGN d 302      25.516  12.992   4.405  0.00  0.00     0.081 C 
ATOM     80  O1S SGN d 302      27.133   9.555   4.967  0.00  0.00    -0.296 OA
ATOM     81  C3  SGN d 302      26.079  14.406   4.680  0.00  0.00     0.083 C 
ATOM     82  O3S SGN d 302      26.434  10.278   2.773  0.00  0.00    -0.296 OA
ATOM     83  H   SGN d 302      24.457  10.022   5.260  0.00  0.00     0.231 HD
ATOM     84  H   SGN d 302      23.885  15.447   5.841  0.00  0.00     0.090 H 
ATOM     85  H   SGN d 302      27.717  15.396   4.206  0.00  0.00     0.210 HD
ATOM     86  H   SGN d 302      22.577  16.049   3.187  0.00  0.00     0.080 H 
ATOM     87  H   SGN d 302      23.096  17.236   4.410  0.00  0.00     0.080 H 
ATOM     88  H   SGN d 302      27.324  12.163   4.683  0.00  0.00     0.140 HD
ATOM     89  H   SGN d 302      24.982  15.200   3.008  0.00  0.00     0.091 H 
ATOM     90  H   SGN d 302      23.672  11.896   4.715  0.00  0.00     0.131 H 
ATOM     91  H   SGN d 302      25.462  12.954   3.337  0.00  0.00     0.076 H 
ATOM     92  H   SGN d 302      26.951   9.587   5.920  0.00  0.00     0.231 HD
ATOM     93  H   SGN d 302      26.205  14.604   5.724  0.00  0.00     0.089 H 
ATOM     94  H   SGN d 302      25.770  10.801   2.297  0.00  0.00     0.231 HD
ATOM     95  O5  IDS d 303      24.127  12.070   9.346  0.00  0.00    -0.340 OA
ATOM     96  O2S IDS d 303      26.440   8.333   9.504  0.00  0.00    -0.572 OA
ATOM     97  O4  IDS d 303      24.313  12.591   6.475  0.00  0.00    -0.348 OA
ATOM     98  O1S IDS d 303      28.239   9.305   8.046  0.00  0.00    -0.572 OA
ATOM     99  C4  IDS d 303      23.211  11.895   7.060  0.00  0.00     0.103 C 
ATOM    100  S   IDS d 303      26.898   8.879   8.243  0.00  0.00     0.252 S 
ATOM    101  O2  IDS d 303      25.956  10.170   7.933  0.00  0.00    -0.244 OA
ATOM    102  O3  IDS d 303      22.120   9.855   7.648  0.00  0.00    -0.390 OA
ATOM    103  O61 IDS d 303      23.702  14.792   8.881  0.00  0.00    -0.646 OA
ATOM    104  C2  IDS d 303      24.516   9.858   8.208  0.00  0.00     0.134 C 
ATOM    105  C1  IDS d 303      24.251  10.595   9.530  0.00  0.00     0.161 C 
ATOM    106  O3S IDS d 303      26.655   7.783   7.197  0.00  0.00    -0.572 OA
ATOM    107  C3  IDS d 303      23.379  10.334   7.142  0.00  0.00     0.094 C 
ATOM    108  C5  IDS d 303      23.007  12.477   8.466  0.00  0.00     0.152 C 
ATOM    109  O62 IDS d 303      21.963  14.557   7.533  0.00  0.00    -0.646 OA
ATOM    110  C6  IDS d 303      22.910  14.034   8.317  0.00  0.00     0.206 C 
ATOM    111  H   IDS d 303      22.363  12.038   6.424  0.00  0.00     0.092 H 
ATOM    112  H   IDS d 303      21.408  10.116   7.043  0.00  0.00     0.210 HD
ATOM    113  H   IDS d 303      24.416   8.793   8.183  0.00  0.00     0.097 H 
ATOM    114  H   IDS d 303      25.105  10.486  10.166  0.00  0.00     0.133 H 
ATOM    115  H   IDS d 303      23.665   9.962   6.181  0.00  0.00     0.091 H 
ATOM    116  H   IDS d 303      22.110  12.108   8.917  0.00  0.00     0.104 H 
ATOM    117  C1  UAP d 301      25.892  17.493   5.332  0.00  0.00     0.167 C 
ATOM    118  C5  UAP d 301      27.876  18.430   6.251  0.00  0.00     0.147 C 
ATOM    119  O61 UAP d 301      29.985  18.904   7.314  0.00  0.00    -0.642 OA
ATOM    120  C2  UAP d 301      25.275  18.964   5.276  0.00  0.00     0.135 C 
ATOM    121  O62 UAP d 301      30.000  17.183   5.860  0.00  0.00    -0.642 OA
ATOM    122  O3  UAP d 301      24.901  19.202   7.720  0.00  0.00    -0.389 OA
ATOM    123  O5  UAP d 301      27.339  17.564   5.345  0.00  0.00    -0.311 OA
ATOM    124  C6  UAP d 301      29.350  18.198   6.520  0.00  0.00     0.233 C 
ATOM    125  O2  UAP d 301      25.789  19.756   4.091  0.00  0.00    -0.244 OA
ATOM    126  C3  UAP d 301      25.702  19.698   6.615  0.00  0.00     0.086 C 
ATOM    127  O2S UAP d 301      24.180  18.569   2.659  0.00  0.00    -0.572 OA
ATOM    128  C4  UAP d 301      27.209  19.432   6.890  0.00  0.00    -0.034 C 
ATOM    129  O3S UAP d 301      23.454  20.749   3.511  0.00  0.00    -0.572 OA
ATOM    130  O1S UAP d 301      25.234  20.744   1.858  0.00  0.00    -0.572 OA
ATOM    131  S   UAP d 301      24.658  19.940   2.935  0.00  0.00     0.252 S 
ATOM    132  H   UAP d 301      25.571  16.977   6.212  0.00  0.00     0.134 H 
ATOM    133  H   UAP d 301      24.212  18.895   5.171  0.00  0.00     0.097 H 
ATOM    134  H   UAP d 301      23.962  19.370   7.541  0.00  0.00     0.210 HD
ATOM    135  H   UAP d 301      25.542  20.751   6.514  0.00  0.00     0.093 H 
ATOM    136  H   UAP d 301      27.713  20.025   7.568  0.00  0.00     0.085 H 
ATOM    137  C5  IDS d 305      21.147   6.225  14.742  0.00  0.00     0.152 C 
ATOM    138  O2  IDS d 305      18.416   8.638  14.900  0.00  0.00    -0.244 OA
ATOM    139  C6  IDS d 305      22.123   5.909  13.629  0.00  0.00     0.206 C 
ATOM    140  O61 IDS d 305      21.721   5.616  12.497  0.00  0.00    -0.646 OA
ATOM    141  O2S IDS d 305      16.108   7.875  15.275  0.00  0.00    -0.572 OA
ATOM    142  O62 IDS d 305      23.436   5.935  13.903  0.00  0.00    -0.646 OA
ATOM    143  O5  IDS d 305      19.769   6.106  14.232  0.00  0.00    -0.340 OA
ATOM    144  C3  IDS d 305      20.327   8.002  16.430  0.00  0.00     0.094 C 
ATOM    145  O4  IDS d 305      21.367   8.584  14.153  0.00  0.00    -0.348 OA
ATOM    146  O1S IDS d 305      16.564  10.034  14.126  0.00  0.00    -0.572 OA
ATOM    147  C2  IDS d 305      18.845   7.710  15.940  0.00  0.00     0.134 C 
ATOM    148  C1  IDS d 305      18.774   6.275  15.312  0.00  0.00     0.161 C 
ATOM    149  C4  IDS d 305      21.407   7.675  15.287  0.00  0.00     0.103 C 
ATOM    150  O3  IDS d 305      20.564   7.100  17.493  0.00  0.00    -0.390 OA
ATOM    151  S   IDS d 305      16.899   9.092  15.163  0.00  0.00     0.252 S 
ATOM    152  O3S IDS d 305      16.857   9.815  16.526  0.00  0.00    -0.572 OA
ATOM    153  H   IDS d 305      21.282   5.531  15.545  0.00  0.00     0.104 H 
ATOM    154  H   IDS d 305      20.420   9.033  16.699  0.00  0.00     0.091 H 
ATOM    155  H   IDS d 305      18.213   7.811  16.798  0.00  0.00     0.097 H 
ATOM    156  H   IDS d 305      17.806   6.178  14.866  0.00  0.00     0.133 H 
ATOM    157  H   IDS d 305      22.368   7.780  15.747  0.00  0.00     0.092 H 
ATOM    158  H   IDS d 305      20.462   6.190  17.173  0.00  0.00     0.210 HD
ENDROOT
TORSDOF 49
ENDMDL
MODEL 44
REMARK VINA RESULT:      -5.1      3.953      7.837
REMARK  0 active torsions:
REMARK  status: ('A' for Active; 'I' for Inactive)
REMARK       I    between atoms: N_1  and  C2_65 
REMARK       I    between atoms: N_1  and  S1_100 
REMARK       I    between atoms: O2S_4  and  S1_36 
REMARK       I    between atoms: O2S_5  and  S1_100 
REMARK       I    between atoms: C5_7  and  C6_64 
REMARK       I    between atoms: O3_11  and  C3_17 
REMARK       I    between atoms: C1_12  and  O4_28 
REMARK       I    between atoms: C5_13  and  C6_35 
REMARK       I    between atoms: C5_14  and  C6_52 
REMARK       I    between atoms: O2S_16  and  S1_75 
REMARK       I    between atoms: C2_18  and  O2_63 
REMARK       I    between atoms: C5_19  and  C6_22 
REMARK       I    between atoms: O2_20  and  C2_53 
REMARK       I    between atoms: O2_20  and  S_86 
REMARK       I    between atoms: O4_21  and  C1_67 
REMARK       I    between atoms: O4_21  and  C4_48 
REMARK       I    between atoms: O3_26  and  C3_72 
REMARK       I    between atoms: O4_28  and  C4_71 
REMARK       I    between atoms: O3_30  and  C3_94 
REMARK       I    between atoms: N_33  and  C2_82 
REMARK       I    between atoms: N_33  and  S1_75 
REMARK       I    between atoms: C6_35  and  O6_59 
REMARK       I    between atoms: S1_36  and  N_37 
REMARK       I    between atoms: S1_36  and  O1S_89 
REMARK       I    between atoms: S1_36  and  O3S_97 
REMARK       I    between atoms: N_37  and  C2_78 
REMARK       I    between atoms: C3_38  and  O3_81 
REMARK       I    between atoms: O4_39  and  C1_85 
REMARK       I    between atoms: O4_39  and  C4_69 
REMARK       I    between atoms: O3_40  and  C3_47 
REMARK       I    between atoms: O4_41  and  C1_76 
REMARK       I    between atoms: O4_41  and  C4_43 
REMARK       I    between atoms: S2_44  and  O6_80 
REMARK       I    between atoms: S_46  and  O2_57 
REMARK       I    between atoms: O3S_49  and  S1_75 
REMARK       I    between atoms: C1_54  and  O4_96 
REMARK       I    between atoms: O2_57  and  C2_66 
REMARK       I    between atoms: O6_58  and  C6_64 
REMARK       I    between atoms: O6_58  and  S2_101 
REMARK       I    between atoms: O6_59  and  S2_73 
REMARK       I    between atoms: O3_61  and  C3_77 
REMARK       I    between atoms: O2_63  and  S_104 
REMARK       I    between atoms: S1_75  and  O1S_92 
REMARK       I    between atoms: O6_80  and  C6_88 
REMARK       I    between atoms: C5_83  and  C6_88 
REMARK       I    between atoms: O3S_84  and  S1_100 
REMARK       I    between atoms: C5_87  and  C6_103 
REMARK       I    between atoms: O1S_91  and  S1_100 
REMARK       I    between atoms: O4_96  and  C4_99 
ROOT
ATOM      1  N   SGN d 304      19.809  16.258   6.311  0.00  0.00    -0.210 NA
ATOM      2  O2S SGN d 304      18.827  15.104   4.335  0.00  0.00    -0.296 OA
ATOM      3  C5  SGN d 304      20.440  12.657   8.337  0.00  0.00     0.091 C 
ATOM      4  O5S SGN d 304      19.602   8.930   9.780  0.00  0.00    -0.572 OA
ATOM      5  O3  SGN d 304      18.834  15.974   9.057  0.00  0.00    -0.391 OA
ATOM      6  C3  SGN d 304      19.782  15.081   8.501  0.00  0.00     0.083 C 
ATOM      7  O4  SGN d 304      19.465  13.586  10.407  0.00  0.00    -0.348 OA
ATOM      8  O5  SGN d 304      20.418  12.741   6.925  0.00  0.00    -0.349 OA
ATOM      9  C4  SGN d 304      19.431  13.655   8.951  0.00  0.00     0.095 C 
ATOM     10  O4S SGN d 304      21.311   7.845   8.290  0.00  0.00    -0.572 OA
ATOM     11  O6S SGN d 304      19.131   8.434   7.502  0.00  0.00    -0.572 OA
ATOM     12  O6  SGN d 304      20.848  10.188   8.146  0.00  0.00    -0.254 OA
ATOM     13  C6  SGN d 304      20.006  11.196   8.688  0.00  0.00     0.067 C 
ATOM     14  C2  SGN d 304      19.621  15.006   6.956  0.00  0.00     0.081 C 
ATOM     15  O3S SGN d 304      17.324  16.379   5.749  0.00  0.00    -0.296 OA
ATOM     16  C1  SGN d 304      20.694  14.079   6.383  0.00  0.00     0.150 C 
ATOM     17  O1S SGN d 304      18.920  17.653   4.473  0.00  0.00    -0.296 OA
ATOM     18  S1  SGN d 304      18.711  16.374   5.087  0.00  0.00     0.156 S 
ATOM     19  S2  SGN d 304      20.243   8.785   8.496  0.00  0.00     0.251 S 
ATOM     20  H   SGN d 304      20.754  16.314   5.933  0.00  0.00     0.140 HD
ATOM     21  H   SGN d 304      18.649  14.359   4.929  0.00  0.00     0.231 HD
ATOM     22  H   SGN d 304      21.410  12.892   8.723  0.00  0.00     0.090 H 
ATOM     23  H   SGN d 304      19.042  16.880   8.781  0.00  0.00     0.210 HD
ATOM     24  H   SGN d 304      20.753  15.417   8.799  0.00  0.00     0.089 H 
ATOM     25  H   SGN d 304      18.448  13.399   8.616  0.00  0.00     0.091 H 
ATOM     26  H   SGN d 304      19.015  11.041   8.313  0.00  0.00     0.080 H 
ATOM     27  H   SGN d 304      20.069  11.106   9.752  0.00  0.00     0.080 H 
ATOM     28  H   SGN d 304      18.624  14.661   6.781  0.00  0.00     0.076 H 
ATOM     29  H   SGN d 304      17.164  15.520   6.171  0.00  0.00     0.231 HD
ATOM     30  H   SGN d 304      20.714  13.968   5.319  0.00  0.00     0.131 H 
ATOM     31  H   SGN d 304      19.792  17.669   4.048  0.00  0.00     0.231 HD
ATOM     32  O6S SGN d 306      27.604  16.917  10.697  0.00  0.00    -0.572 OA
ATOM     33  O5S SGN d 306      28.441  18.959   9.689  0.00  0.00    -0.572 OA
ATOM     34  O2S SGN d 306      28.904  11.032   5.205  0.00  0.00    -0.296 OA
ATOM     35  C1  SGN d 306      29.531  14.251   5.895  0.00  0.00     0.038 C 
ATOM     36  N   SGN d 306      28.975  13.084   3.885  0.00  0.00    -0.212 NA
ATOM     37  O3  SGN d 306      26.567  14.335   3.642  0.00  0.00    -0.391 OA
ATOM     38  S2  SGN d 306      28.805  17.573   9.984  0.00  0.00     0.251 S 
ATOM     39  C3  SGN d 306      27.570  14.875   4.512  0.00  0.00     0.081 C 
ATOM     40  O3S SGN d 306      26.995  11.446   3.746  0.00  0.00    -0.296 OA
ATOM     41  O4S SGN d 306      30.000  17.226  10.712  0.00  0.00    -0.572 OA
ATOM     42  O5  SGN d 306      28.991  14.922   7.042  0.00  0.00    -0.379 OA
ATOM     43  S1  SGN d 306      28.553  11.506   3.842  0.00  0.00     0.156 S 
ATOM     44  O6  SGN d 306      28.996  16.948   8.602  0.00  0.00    -0.254 OA
ATOM     45  C2  SGN d 306      28.421  13.753   4.999  0.00  0.00     0.054 C 
ATOM     46  C5  SGN d 306      28.149  16.026   6.643  0.00  0.00     0.087 C 
ATOM     47  C6  SGN d 306      27.717  16.663   7.959  0.00  0.00     0.067 C 
ATOM     48  O1S SGN d 306      29.180  10.966   2.626  0.00  0.00    -0.296 OA
ATOM     49  O4  SGN d 306      26.056  16.651   5.300  0.00  0.00    -0.348 OA
ATOM     50  C4  SGN d 306      26.957  15.542   5.750  0.00  0.00     0.095 C 
ATOM     51  H   SGN d 306      28.378  11.516   5.861  0.00  0.00     0.231 HD
ATOM     52  H   SGN d 306      30.147  14.932   5.347  0.00  0.00     0.077 H 
ATOM     53  H   SGN d 306      30.110  13.414   6.227  0.00  0.00     0.077 H 
ATOM     54  H   SGN d 306      29.991  13.151   3.934  0.00  0.00     0.140 HD
ATOM     55  H   SGN d 306      26.993  13.923   2.874  0.00  0.00     0.210 HD
ATOM     56  H   SGN d 306      28.124  15.604   3.958  0.00  0.00     0.089 H 
ATOM     57  H   SGN d 306      26.606  11.807   4.559  0.00  0.00     0.231 HD
ATOM     58  H   SGN d 306      27.812  13.085   5.571  0.00  0.00     0.072 H 
ATOM     59  H   SGN d 306      28.651  16.740   6.024  0.00  0.00     0.090 H 
ATOM     60  H   SGN d 306      27.159  17.560   7.791  0.00  0.00     0.080 H 
ATOM     61  H   SGN d 306      27.073  16.041   8.545  0.00  0.00     0.080 H 
ATOM     62  H   SGN d 306      30.146  11.014   2.711  0.00  0.00     0.231 HD
ATOM     63  H   SGN d 306      26.352  14.878   6.331  0.00  0.00     0.091 H 
ATOM     64  O6S SGN d 302      11.083  17.704  15.508  0.00  0.00    -0.572 OA
ATOM     65  O2S SGN d 302      17.792  12.839  16.208  0.00  0.00    -0.296 OA
ATOM     66  O5S SGN d 302       9.908  16.833  13.572  0.00  0.00    -0.572 OA
ATOM     67  C5  SGN d 302      12.966  14.101  14.247  0.00  0.00     0.091 C 
ATOM     68  O4  SGN d 302      11.122  12.572  14.654  0.00  0.00    -0.348 OA
ATOM     69  O3  SGN d 302      13.138  10.587  15.605  0.00  0.00    -0.391 OA
ATOM     70  C6  SGN d 302      11.957  15.255  14.404  0.00  0.00     0.067 C 
ATOM     71  S1  SGN d 302      17.334  11.483  16.360  0.00  0.00     0.156 S 
ATOM     72  N   SGN d 302      15.963  11.283  15.381  0.00  0.00    -0.210 NA
ATOM     73  O4S SGN d 302      11.641  18.700  13.432  0.00  0.00    -0.572 OA
ATOM     74  O6  SGN d 302      12.288  16.408  13.675  0.00  0.00    -0.254 OA
ATOM     75  O5  SGN d 302      14.307  14.546  14.693  0.00  0.00    -0.349 OA
ATOM     76  C4  SGN d 302      12.488  12.908  15.078  0.00  0.00     0.095 C 
ATOM     77  S2  SGN d 302      11.171  17.464  13.992  0.00  0.00     0.251 S 
ATOM     78  C1  SGN d 302      15.365  13.498  14.702  0.00  0.00     0.150 C 
ATOM     79  C2  SGN d 302      14.871  12.251  15.443  0.00  0.00     0.081 C 
ATOM     80  O1S SGN d 302      18.165  10.362  16.013  0.00  0.00    -0.296 OA
ATOM     81  C3  SGN d 302      13.526  11.743  14.872  0.00  0.00     0.083 C 
ATOM     82  O3S SGN d 302      16.977  11.408  17.836  0.00  0.00    -0.296 OA
ATOM     83  H   SGN d 302      18.049  12.993  15.286  0.00  0.00     0.231 HD
ATOM     84  H   SGN d 302      13.033  13.809  13.220  0.00  0.00     0.090 H 
ATOM     85  H   SGN d 302      12.295  10.253  15.260  0.00  0.00     0.210 HD
ATOM     86  H   SGN d 302      11.903  15.515  15.440  0.00  0.00     0.080 H 
ATOM     87  H   SGN d 302      11.023  14.902  14.018  0.00  0.00     0.080 H 
ATOM     88  H   SGN d 302      15.565  10.374  15.616  0.00  0.00     0.140 HD
ATOM     89  H   SGN d 302      12.442  13.113  16.127  0.00  0.00     0.091 H 
ATOM     90  H   SGN d 302      16.183  13.961  15.214  0.00  0.00     0.131 H 
ATOM     91  H   SGN d 302      14.640  12.453  16.468  0.00  0.00     0.076 H 
ATOM     92  H   SGN d 302      18.394  10.409  15.072  0.00  0.00     0.231 HD
ATOM     93  H   SGN d 302      13.591  11.482  13.836  0.00  0.00     0.089 H 
ATOM     94  H   SGN d 302      16.417  12.164  18.072  0.00  0.00     0.231 HD
ATOM     95  O5  IDS d 303      17.153  12.865  10.794  0.00  0.00    -0.340 OA
ATOM     96  O2S IDS d 303      20.565  10.327  11.915  0.00  0.00    -0.572 OA
ATOM     97  O4  IDS d 303      15.901  13.120  13.423  0.00  0.00    -0.348 OA
ATOM     98  O1S IDS d 303      19.084   8.816  13.269  0.00  0.00    -0.572 OA
ATOM     99  C4  IDS d 303      16.827  14.083  12.916  0.00  0.00     0.103 C 
ATOM    100  S   IDS d 303      19.673  10.087  13.032  0.00  0.00     0.252 S 
ATOM    101  O2  IDS d 303      18.444  11.141  12.872  0.00  0.00    -0.244 OA
ATOM    102  O3  IDS d 303      19.045  14.952  12.763  0.00  0.00    -0.390 OA
ATOM    103  O61 IDS d 303      14.456  13.519  10.464  0.00  0.00    -0.646 OA
ATOM    104  C2  IDS d 303      18.953  12.506  12.517  0.00  0.00     0.134 C 
ATOM    105  C1  IDS d 303      18.607  12.625  11.025  0.00  0.00     0.161 C 
ATOM    106  O3S IDS d 303      20.485  10.408  14.294  0.00  0.00    -0.572 OA
ATOM    107  C3  IDS d 303      18.333  13.810  13.272  0.00  0.00     0.094 C 
ATOM    108  C5  IDS d 303      16.645  14.121  11.392  0.00  0.00     0.152 C 
ATOM    109  O62 IDS d 303      14.507  15.413  11.605  0.00  0.00    -0.646 OA
ATOM    110  C6  IDS d 303      15.119  14.334  11.109  0.00  0.00     0.206 C 
ATOM    111  H   IDS d 303      16.609  15.021  13.383  0.00  0.00     0.092 H 
ATOM    112  H   IDS d 303      18.708  15.757  13.187  0.00  0.00     0.210 HD
ATOM    113  H   IDS d 303      19.981  12.542  12.812  0.00  0.00     0.097 H 
ATOM    114  H   IDS d 303      18.792  11.685  10.549  0.00  0.00     0.133 H 
ATOM    115  H   IDS d 303      18.418  13.640  14.325  0.00  0.00     0.091 H 
ATOM    116  H   IDS d 303      17.201  14.921  10.950  0.00  0.00     0.104 H 
ATOM    117  C1  UAP d 301      10.741  12.025  13.405  0.00  0.00     0.167 C 
ATOM    118  C5  UAP d 301       9.882   9.992  12.517  0.00  0.00     0.147 C 
ATOM    119  O61 UAP d 301       9.493   7.787  11.630  0.00  0.00    -0.642 OA
ATOM    120  C2  UAP d 301       9.371  12.733  12.994  0.00  0.00     0.135 C 
ATOM    121  O62 UAP d 301      10.776   7.873  13.479  0.00  0.00    -0.642 OA
ATOM    122  O3  UAP d 301       9.802  12.771  10.547  0.00  0.00    -0.389 OA
ATOM    123  O5  UAP d 301      10.536  10.598  13.548  0.00  0.00    -0.311 OA
ATOM    124  C6  UAP d 301      10.032   8.483  12.499  0.00  0.00     0.233 C 
ATOM    125  O2  UAP d 301       8.257  12.442  13.978  0.00  0.00    -0.244 OA
ATOM    126  C3  UAP d 301       8.965  12.166  11.569  0.00  0.00     0.086 C 
ATOM    127  O2S UAP d 301       9.190  14.162  15.469  0.00  0.00    -0.572 OA
ATOM    128  C4  UAP d 301       9.145  10.622  11.559  0.00  0.00    -0.034 C 
ATOM    129  O3S UAP d 301       7.380  14.893  13.987  0.00  0.00    -0.572 OA
ATOM    130  O1S UAP d 301       6.791  13.368  15.785  0.00  0.00    -0.572 OA
ATOM    131  S   UAP d 301       7.894  13.735  14.898  0.00  0.00     0.252 S 
ATOM    132  H   UAP d 301      11.493  12.185  12.662  0.00  0.00     0.134 H 
ATOM    133  H   UAP d 301       9.514  13.794  12.983  0.00  0.00     0.097 H 
ATOM    134  H   UAP d 301       9.685  13.734  10.561  0.00  0.00     0.210 HD
ATOM    135  H   UAP d 301       7.942  12.403  11.367  0.00  0.00     0.093 H 
ATOM    136  H   UAP d 301       8.699  10.064  10.814  0.00  0.00     0.085 H 
ATOM    137  C5  IDS d 305      24.441  14.683   6.826  0.00  0.00     0.152 C 
ATOM    138  O2  IDS d 305      22.424  17.507   5.703  0.00  0.00    -0.244 OA
ATOM    139  C6  IDS d 305      24.366  13.856   8.092  0.00  0.00     0.206 C 
ATOM    140  O61 IDS d 305      24.399  14.396   9.204  0.00  0.00    -0.646 OA
ATOM    141  O2S IDS d 305      23.477  19.686   5.268  0.00  0.00    -0.572 OA
ATOM    142  O62 IDS d 305      24.285  12.522   7.982  0.00  0.00    -0.646 OA
ATOM    143  O5  IDS d 305      24.558  16.109   7.178  0.00  0.00    -0.340 OA
ATOM    144  C3  IDS d 305      23.241  15.362   4.640  0.00  0.00     0.094 C 
ATOM    145  O4  IDS d 305      21.999  14.694   6.789  0.00  0.00    -0.348 OA
ATOM    146  O1S IDS d 305      21.062  19.532   5.849  0.00  0.00    -0.572 OA
ATOM    147  C2  IDS d 305      23.540  16.878   5.007  0.00  0.00     0.134 C 
ATOM    148  C1  IDS d 305      24.768  16.949   5.981  0.00  0.00     0.161 C 
ATOM    149  C4  IDS d 305      23.159  14.437   5.951  0.00  0.00     0.103 C 
ATOM    150  O3  IDS d 305      24.357  14.921   3.892  0.00  0.00    -0.390 OA
ATOM    151  S   IDS d 305      22.201  18.996   5.148  0.00  0.00     0.252 S 
ATOM    152  O3S IDS d 305      21.856  18.888   3.647  0.00  0.00    -0.572 OA
ATOM    153  H   IDS d 305      25.300  14.392   6.258  0.00  0.00     0.104 H 
ATOM    154  H   IDS d 305      22.308  15.295   4.120  0.00  0.00     0.091 H 
ATOM    155  H   IDS d 305      23.723  17.387   4.083  0.00  0.00     0.097 H 
ATOM    156  H   IDS d 305      24.840  17.963   6.315  0.00  0.00     0.133 H 
ATOM    157  H   IDS d 305      23.083  13.430   5.599  0.00  0.00     0.092 H 
ATOM    158  H   IDS d 305      25.160  15.011   4.427  0.00  0.00     0.210 HD
ENDROOT
TORSDOF 49
ENDMDL
MODEL 45
REMARK VINA RESULT:      -4.9      4.994      6.642
REMARK  0 active torsions:
REMARK  status: ('A' for Active; 'I' for Inactive)
REMARK       I    between atoms: N_1  and  C2_65 
REMARK       I    between atoms: N_1  and  S1_100 
REMARK       I    between atoms: O2S_4  and  S1_36 
REMARK       I    between atoms: O2S_5  and  S1_100 
REMARK       I    between atoms: C5_7  and  C6_64 
REMARK       I    between atoms: O3_11  and  C3_17 
REMARK       I    between atoms: C1_12  and  O4_28 
REMARK       I    between atoms: C5_13  and  C6_35 
REMARK       I    between atoms: C5_14  and  C6_52 
REMARK       I    between atoms: O2S_16  and  S1_75 
REMARK       I    between atoms: C2_18  and  O2_63 
REMARK       I    between atoms: C5_19  and  C6_22 
REMARK       I    between atoms: O2_20  and  C2_53 
REMARK       I    between atoms: O2_20  and  S_86 
REMARK       I    between atoms: O4_21  and  C1_67 
REMARK       I    between atoms: O4_21  and  C4_48 
REMARK       I    between atoms: O3_26  and  C3_72 
REMARK       I    between atoms: O4_28  and  C4_71 
REMARK       I    between atoms: O3_30  and  C3_94 
REMARK       I    between atoms: N_33  and  C2_82 
REMARK       I    between atoms: N_33  and  S1_75 
REMARK       I    between atoms: C6_35  and  O6_59 
REMARK       I    between atoms: S1_36  and  N_37 
REMARK       I    between atoms: S1_36  and  O1S_89 
REMARK       I    between atoms: S1_36  and  O3S_97 
REMARK       I    between atoms: N_37  and  C2_78 
REMARK       I    between atoms: C3_38  and  O3_81 
REMARK       I    between atoms: O4_39  and  C1_85 
REMARK       I    between atoms: O4_39  and  C4_69 
REMARK       I    between atoms: O3_40  and  C3_47 
REMARK       I    between atoms: O4_41  and  C1_76 
REMARK       I    between atoms: O4_41  and  C4_43 
REMARK       I    between atoms: S2_44  and  O6_80 
REMARK       I    between atoms: S_46  and  O2_57 
REMARK       I    between atoms: O3S_49  and  S1_75 
REMARK       I    between atoms: C1_54  and  O4_96 
REMARK       I    between atoms: O2_57  and  C2_66 
REMARK       I    between atoms: O6_58  and  C6_64 
REMARK       I    between atoms: O6_58  and  S2_101 
REMARK       I    between atoms: O6_59  and  S2_73 
REMARK       I    between atoms: O3_61  and  C3_77 
REMARK       I    between atoms: O2_63  and  S_104 
REMARK       I    between atoms: S1_75  and  O1S_92 
REMARK       I    between atoms: O6_80  and  C6_88 
REMARK       I    between atoms: C5_83  and  C6_88 
REMARK       I    between atoms: O3S_84  and  S1_100 
REMARK       I    between atoms: C5_87  and  C6_103 
REMARK       I    between atoms: O1S_91  and  S1_100 
REMARK       I    between atoms: O4_96  and  C4_99 
ROOT
ATOM      1  N   SGN d 304      23.403   9.718  13.831  0.00  0.00    -0.210 NA
ATOM      2  O2S SGN d 304      22.845  12.135  13.622  0.00  0.00    -0.296 OA
ATOM      3  C5  SGN d 304      20.811   8.658  10.728  0.00  0.00     0.091 C 
ATOM      4  O5S SGN d 304      17.383   8.614   8.510  0.00  0.00    -0.572 OA
ATOM      5  O3  SGN d 304      21.442   7.589  14.271  0.00  0.00    -0.391 OA
ATOM      6  C3  SGN d 304      21.771   8.050  12.974  0.00  0.00     0.083 C 
ATOM      7  O4  SGN d 304      19.864   6.815  12.073  0.00  0.00    -0.348 OA
ATOM      8  O5  SGN d 304      21.426   9.929  10.803  0.00  0.00    -0.349 OA
ATOM      9  C4  SGN d 304      20.481   8.135  12.145  0.00  0.00     0.095 C 
ATOM     10  O4S SGN d 304      18.495   9.745   6.561  0.00  0.00    -0.572 OA
ATOM     11  O6S SGN d 304      17.694  10.971   8.452  0.00  0.00    -0.572 OA
ATOM     12  O6  SGN d 304      19.665   9.380   8.616  0.00  0.00    -0.254 OA
ATOM     13  C6  SGN d 304      19.483   8.869   9.928  0.00  0.00     0.067 C 
ATOM     14  C2  SGN d 304      22.249   9.528  13.023  0.00  0.00     0.081 C 
ATOM     15  O3S SGN d 304      22.019  10.958  15.577  0.00  0.00    -0.296 OA
ATOM     16  C1  SGN d 304      22.650   9.975  11.616  0.00  0.00     0.150 C 
ATOM     17  O1S SGN d 304      24.402  11.286  15.461  0.00  0.00    -0.296 OA
ATOM     18  S1  SGN d 304      23.230  11.139  14.648  0.00  0.00     0.156 S 
ATOM     19  S2  SGN d 304      18.256   9.629   7.973  0.00  0.00     0.251 S 
ATOM     20  H   SGN d 304      24.235   9.758  13.242  0.00  0.00     0.140 HD
ATOM     21  H   SGN d 304      22.027  11.851  13.186  0.00  0.00     0.231 HD
ATOM     22  H   SGN d 304      21.455   7.944  10.257  0.00  0.00     0.090 H 
ATOM     23  H   SGN d 304      22.248   7.530  14.808  0.00  0.00     0.210 HD
ATOM     24  H   SGN d 304      22.513   7.388  12.577  0.00  0.00     0.089 H 
ATOM     25  H   SGN d 304      19.795   8.812  12.609  0.00  0.00     0.091 H 
ATOM     26  H   SGN d 304      18.869   9.556  10.474  0.00  0.00     0.080 H 
ATOM     27  H   SGN d 304      19.035   7.904   9.821  0.00  0.00     0.080 H 
ATOM     28  H   SGN d 304      21.434  10.087  13.431  0.00  0.00     0.076 H 
ATOM     29  H   SGN d 304      21.214  10.857  15.044  0.00  0.00     0.231 HD
ATOM     30  H   SGN d 304      23.032  10.969  11.519  0.00  0.00     0.131 H 
ATOM     31  H   SGN d 304      25.178  11.402  14.891  0.00  0.00     0.231 HD
ATOM     32  O6S SGN d 306      27.303   3.150   9.131  0.00  0.00    -0.572 OA
ATOM     33  O5S SGN d 306      29.527   3.256  10.094  0.00  0.00    -0.572 OA
ATOM     34  O2S SGN d 306      26.859   9.364   3.871  0.00  0.00    -0.296 OA
ATOM     35  C1  SGN d 306      28.960   7.665   5.853  0.00  0.00     0.038 C 
ATOM     36  N   SGN d 306      28.696   9.987   5.352  0.00  0.00    -0.212 NA
ATOM     37  O3  SGN d 306      27.920  10.606   7.889  0.00  0.00    -0.391 OA
ATOM     38  S2  SGN d 306      28.811   3.253   8.818  0.00  0.00     0.251 S 
ATOM     39  C3  SGN d 306      28.574   9.358   7.624  0.00  0.00     0.081 C 
ATOM     40  O3S SGN d 306      26.410  11.167   5.451  0.00  0.00    -0.296 OA
ATOM     41  O4S SGN d 306      29.113   2.317   7.764  0.00  0.00    -0.572 OA
ATOM     42  O5  SGN d 306      28.531   6.602   6.715  0.00  0.00    -0.379 OA
ATOM     43  S1  SGN d 306      27.467  10.586   4.456  0.00  0.00     0.156 S 
ATOM     44  O6  SGN d 306      29.127   4.626   8.224  0.00  0.00    -0.254 OA
ATOM     45  C2  SGN d 306      28.270   8.959   6.221  0.00  0.00     0.054 C 
ATOM     46  C5  SGN d 306      28.793   6.923   8.099  0.00  0.00     0.087 C 
ATOM     47  C6  SGN d 306      28.347   5.681   8.863  0.00  0.00     0.067 C 
ATOM     48  O1S SGN d 306      28.063  11.650   3.634  0.00  0.00    -0.296 OA
ATOM     49  O4  SGN d 306      28.303   8.619   9.958  0.00  0.00    -0.348 OA
ATOM     50  C4  SGN d 306      28.056   8.234   8.531  0.00  0.00     0.095 C 
ATOM     51  H   SGN d 306      26.526   8.796   4.583  0.00  0.00     0.231 HD
ATOM     52  H   SGN d 306      30.018   7.791   5.950  0.00  0.00     0.077 H 
ATOM     53  H   SGN d 306      28.708   7.414   4.844  0.00  0.00     0.077 H 
ATOM     54  H   SGN d 306      29.408   9.613   4.724  0.00  0.00     0.140 HD
ATOM     55  H   SGN d 306      28.274  11.288   7.297  0.00  0.00     0.210 HD
ATOM     56  H   SGN d 306      29.621   9.494   7.797  0.00  0.00     0.089 H 
ATOM     57  H   SGN d 306      26.033  10.446   5.979  0.00  0.00     0.231 HD
ATOM     58  H   SGN d 306      27.215   8.805   6.130  0.00  0.00     0.072 H 
ATOM     59  H   SGN d 306      29.823   7.139   8.295  0.00  0.00     0.090 H 
ATOM     60  H   SGN d 306      28.583   5.761   9.903  0.00  0.00     0.080 H 
ATOM     61  H   SGN d 306      27.291   5.514   8.829  0.00  0.00     0.080 H 
ATOM     62  H   SGN d 306      28.714  11.263   3.027  0.00  0.00     0.231 HD
ATOM     63  H   SGN d 306      27.002   8.071   8.440  0.00  0.00     0.091 H 
ATOM     64  O6S SGN d 302      14.583   3.608  20.736  0.00  0.00    -0.572 OA
ATOM     65  O2S SGN d 302      15.895   2.240  12.638  0.00  0.00    -0.296 OA
ATOM     66  O5S SGN d 302      14.047   5.972  20.868  0.00  0.00    -0.572 OA
ATOM     67  C5  SGN d 302      14.187   5.164  16.794  0.00  0.00     0.091 C 
ATOM     68  O4  SGN d 302      11.837   5.774  16.884  0.00  0.00    -0.348 OA
ATOM     69  O3  SGN d 302      11.609   4.830  14.061  0.00  0.00    -0.391 OA
ATOM     70  C6  SGN d 302      14.139   5.016  18.326  0.00  0.00     0.067 C 
ATOM     71  S1  SGN d 302      14.697   2.612  11.933  0.00  0.00     0.156 S 
ATOM     72  N   SGN d 302      14.045   3.979  12.696  0.00  0.00    -0.210 NA
ATOM     73  O4S SGN d 302      16.419   5.059  21.104  0.00  0.00    -0.572 OA
ATOM     74  O6  SGN d 302      15.365   5.264  18.964  0.00  0.00    -0.254 OA
ATOM     75  O5  SGN d 302      15.187   4.225  16.232  0.00  0.00    -0.349 OA
ATOM     76  C4  SGN d 302      12.796   4.878  16.223  0.00  0.00     0.095 C 
ATOM     77  S2  SGN d 302      15.118   5.030  20.497  0.00  0.00     0.251 S 
ATOM     78  C1  SGN d 302      15.264   4.178  14.746  0.00  0.00     0.150 C 
ATOM     79  C2  SGN d 302      13.866   3.994  14.146  0.00  0.00     0.081 C 
ATOM     80  O1S SGN d 302      14.721   2.979  10.543  0.00  0.00    -0.296 OA
ATOM     81  C3  SGN d 302      12.877   5.065  14.663  0.00  0.00     0.083 C 
ATOM     82  O3S SGN d 302      13.803   1.396  12.117  0.00  0.00    -0.296 OA
ATOM     83  H   SGN d 302      16.541   2.961  12.580  0.00  0.00     0.231 HD
ATOM     84  H   SGN d 302      14.477   6.160  16.530  0.00  0.00     0.090 H 
ATOM     85  H   SGN d 302      10.975   5.494  14.374  0.00  0.00     0.210 HD
ATOM     86  H   SGN d 302      13.836   4.016  18.558  0.00  0.00     0.080 H 
ATOM     87  H   SGN d 302      13.449   5.750  18.686  0.00  0.00     0.080 H 
ATOM     88  H   SGN d 302      13.125   4.135  12.284  0.00  0.00     0.140 HD
ATOM     89  H   SGN d 302      12.459   3.879  16.409  0.00  0.00     0.091 H 
ATOM     90  H   SGN d 302      15.891   3.335  14.546  0.00  0.00     0.131 H 
ATOM     91  H   SGN d 302      13.412   3.074  14.452  0.00  0.00     0.076 H 
ATOM     92  H   SGN d 302      15.291   3.754  10.424  0.00  0.00     0.231 HD
ATOM     93  H   SGN d 302      13.187   6.061  14.424  0.00  0.00     0.089 H 
ATOM     94  H   SGN d 302      13.786   1.146  13.054  0.00  0.00     0.231 HD
ATOM     95  O5  IDS d 303      17.696   7.368  13.077  0.00  0.00    -0.340 OA
ATOM     96  O2S IDS d 303      18.011   5.991   8.913  0.00  0.00    -0.572 OA
ATOM     97  O4  IDS d 303      15.923   5.283  14.105  0.00  0.00    -0.348 OA
ATOM     98  O1S IDS d 303      15.531   5.621   8.775  0.00  0.00    -0.572 OA
ATOM     99  C4  IDS d 303      17.346   5.200  14.205  0.00  0.00     0.103 C 
ATOM    100  S   IDS d 303      16.801   5.311   9.329  0.00  0.00     0.252 S 
ATOM    101  O2  IDS d 303      16.673   5.546  10.934  0.00  0.00    -0.244 OA
ATOM    102  O3  IDS d 303      19.444   4.423  13.374  0.00  0.00    -0.390 OA
ATOM    103  O61 IDS d 303      16.397   8.316  15.361  0.00  0.00    -0.646 OA
ATOM    104  C2  IDS d 303      17.994   5.342  11.612  0.00  0.00     0.134 C 
ATOM    105  C1  IDS d 303      18.443   6.777  11.929  0.00  0.00     0.161 C 
ATOM    106  O3S IDS d 303      17.031   3.824   9.029  0.00  0.00    -0.572 OA
ATOM    107  C3  IDS d 303      18.057   4.488  12.997  0.00  0.00     0.094 C 
ATOM    108  C5  IDS d 303      17.870   6.635  14.353  0.00  0.00     0.152 C 
ATOM    109  O62 IDS d 303      17.116   6.743  16.741  0.00  0.00    -0.646 OA
ATOM    110  C6  IDS d 303      17.079   7.303  15.529  0.00  0.00     0.206 C 
ATOM    111  H   IDS d 303      17.576   4.585  15.050  0.00  0.00     0.092 H 
ATOM    112  H   IDS d 303      19.531   3.920  14.199  0.00  0.00     0.210 HD
ATOM    113  H   IDS d 303      18.594   4.748  10.954  0.00  0.00     0.097 H 
ATOM    114  H   IDS d 303      18.193   7.411  11.105  0.00  0.00     0.133 H 
ATOM    115  H   IDS d 303      17.579   3.547  12.816  0.00  0.00     0.091 H 
ATOM    116  H   IDS d 303      18.916   6.650  14.577  0.00  0.00     0.104 H 
ATOM    117  C1  UAP d 301      11.758   7.179  16.729  0.00  0.00     0.167 C 
ATOM    118  C5  UAP d 301      10.301   8.806  15.784  0.00  0.00     0.147 C 
ATOM    119  O61 UAP d 301       9.059  10.336  14.399  0.00  0.00    -0.642 OA
ATOM    120  C2  UAP d 301      11.426   7.781  18.169  0.00  0.00     0.135 C 
ATOM    121  O62 UAP d 301       9.225   8.232  13.609  0.00  0.00    -0.642 OA
ATOM    122  O3  UAP d 301      12.745   9.870  17.907  0.00  0.00    -0.389 OA
ATOM    123  O5  UAP d 301      10.691   7.500  15.802  0.00  0.00    -0.311 OA
ATOM    124  C6  UAP d 301       9.492   9.188  14.560  0.00  0.00     0.233 C 
ATOM    125  O2  UAP d 301      10.088   7.303  18.696  0.00  0.00    -0.244 OA
ATOM    126  C3  UAP d 301      11.389   9.359  18.015  0.00  0.00     0.086 C 
ATOM    127  O2S UAP d 301      11.157   5.190  19.358  0.00  0.00    -0.572 OA
ATOM    128  C4  UAP d 301      10.577   9.734  16.744  0.00  0.00    -0.034 C 
ATOM    129  O3S UAP d 301      10.980   6.896  21.108  0.00  0.00    -0.572 OA
ATOM    130  O1S UAP d 301       8.915   5.853  20.366  0.00  0.00    -0.572 OA
ATOM    131  S   UAP d 301      10.251   6.223  19.902  0.00  0.00     0.252 S 
ATOM    132  H   UAP d 301      12.671   7.583  16.345  0.00  0.00     0.134 H 
ATOM    133  H   UAP d 301      12.173   7.458  18.865  0.00  0.00     0.097 H 
ATOM    134  H   UAP d 301      13.245   9.631  18.703  0.00  0.00     0.210 HD
ATOM    135  H   UAP d 301      10.921   9.792  18.874  0.00  0.00     0.093 H 
ATOM    136  H   UAP d 301      10.240  10.702  16.625  0.00  0.00     0.085 H 
ATOM    137  C5  IDS d 305      25.382   8.258   9.569  0.00  0.00     0.152 C 
ATOM    138  O2  IDS d 305      26.189   9.131  13.018  0.00  0.00    -0.244 OA
ATOM    139  C6  IDS d 305      24.309   7.351   9.005  0.00  0.00     0.206 C 
ATOM    140  O61 IDS d 305      24.203   6.180   9.387  0.00  0.00    -0.646 OA
ATOM    141  O2S IDS d 305      28.409   8.611  13.940  0.00  0.00    -0.572 OA
ATOM    142  O62 IDS d 305      23.487   7.840   8.064  0.00  0.00    -0.646 OA
ATOM    143  O5  IDS d 305      26.185   7.512  10.555  0.00  0.00    -0.340 OA
ATOM    144  C3  IDS d 305      25.876  10.434  10.873  0.00  0.00     0.094 C 
ATOM    145  O4  IDS d 305      23.744   9.037  11.205  0.00  0.00    -0.348 OA
ATOM    146  O1S IDS d 305      26.436   8.863  15.435  0.00  0.00    -0.572 OA
ATOM    147  C2  IDS d 305      26.851   9.595  11.804  0.00  0.00     0.134 C 
ATOM    148  C1  IDS d 305      27.329   8.311  11.039  0.00  0.00     0.161 C 
ATOM    149  C4  IDS d 305      24.720   9.516  10.239  0.00  0.00     0.103 C 
ATOM    150  O3  IDS d 305      26.673  10.895   9.800  0.00  0.00    -0.390 OA
ATOM    151  S   IDS d 305      27.171   9.299  14.276  0.00  0.00     0.252 S 
ATOM    152  O3S IDS d 305      27.487  10.804  14.423  0.00  0.00    -0.572 OA
ATOM    153  H   IDS d 305      26.022   8.592   8.779  0.00  0.00     0.104 H 
ATOM    154  H   IDS d 305      25.415  11.213  11.444  0.00  0.00     0.091 H 
ATOM    155  H   IDS d 305      27.663  10.243  12.060  0.00  0.00     0.097 H 
ATOM    156  H   IDS d 305      27.858   7.708  11.747  0.00  0.00     0.133 H 
ATOM    157  H   IDS d 305      24.200  10.135   9.539  0.00  0.00     0.092 H 
ATOM    158  H   IDS d 305      27.054  10.136   9.332  0.00  0.00     0.210 HD
ENDROOT
TORSDOF 49
ENDMDL
MODEL 46
REMARK VINA RESULT:      -4.8      3.422     15.145
REMARK  0 active torsions:
REMARK  status: ('A' for Active; 'I' for Inactive)
REMARK       I    between atoms: N_1  and  C2_65 
REMARK       I    between atoms: N_1  and  S1_100 
REMARK       I    between atoms: O2S_4  and  S1_36 
REMARK       I    between atoms: O2S_5  and  S1_100 
REMARK       I    between atoms: C5_7  and  C6_64 
REMARK       I    between atoms: O3_11  and  C3_17 
REMARK       I    between atoms: C1_12  and  O4_28 
REMARK       I    between atoms: C5_13  and  C6_35 
REMARK       I    between atoms: C5_14  and  C6_52 
REMARK       I    between atoms: O2S_16  and  S1_75 
REMARK       I    between atoms: C2_18  and  O2_63 
REMARK       I    between atoms: C5_19  and  C6_22 
REMARK       I    between atoms: O2_20  and  C2_53 
REMARK       I    between atoms: O2_20  and  S_86 
REMARK       I    between atoms: O4_21  and  C1_67 
REMARK       I    between atoms: O4_21  and  C4_48 
REMARK       I    between atoms: O3_26  and  C3_72 
REMARK       I    between atoms: O4_28  and  C4_71 
REMARK       I    between atoms: O3_30  and  C3_94 
REMARK       I    between atoms: N_33  and  C2_82 
REMARK       I    between atoms: N_33  and  S1_75 
REMARK       I    between atoms: C6_35  and  O6_59 
REMARK       I    between atoms: S1_36  and  N_37 
REMARK       I    between atoms: S1_36  and  O1S_89 
REMARK       I    between atoms: S1_36  and  O3S_97 
REMARK       I    between atoms: N_37  and  C2_78 
REMARK       I    between atoms: C3_38  and  O3_81 
REMARK       I    between atoms: O4_39  and  C1_85 
REMARK       I    between atoms: O4_39  and  C4_69 
REMARK       I    between atoms: O3_40  and  C3_47 
REMARK       I    between atoms: O4_41  and  C1_76 
REMARK       I    between atoms: O4_41  and  C4_43 
REMARK       I    between atoms: S2_44  and  O6_80 
REMARK       I    between atoms: S_46  and  O2_57 
REMARK       I    between atoms: O3S_49  and  S1_75 
REMARK       I    between atoms: C1_54  and  O4_96 
REMARK       I    between atoms: O2_57  and  C2_66 
REMARK       I    between atoms: O6_58  and  C6_64 
REMARK       I    between atoms: O6_58  and  S2_101 
REMARK       I    between atoms: O6_59  and  S2_73 
REMARK       I    between atoms: O3_61  and  C3_77 
REMARK       I    between atoms: O2_63  and  S_104 
REMARK       I    between atoms: S1_75  and  O1S_92 
REMARK       I    between atoms: O6_80  and  C6_88 
REMARK       I    between atoms: C5_83  and  C6_88 
REMARK       I    between atoms: O3S_84  and  S1_100 
REMARK       I    between atoms: C5_87  and  C6_103 
REMARK       I    between atoms: O1S_91  and  S1_100 
REMARK       I    between atoms: O4_96  and  C4_99 
ROOT
ATOM      1  N   SGN d 304      15.958  10.550  14.765  0.00  0.00    -0.210 NA
ATOM      2  O2S SGN d 304      17.035  11.722  16.679  0.00  0.00    -0.296 OA
ATOM      3  C5  SGN d 304      19.553   8.779  13.579  0.00  0.00     0.091 C 
ATOM      4  O5S SGN d 304      23.529   8.520  12.686  0.00  0.00    -0.572 OA
ATOM      5  O3  SGN d 304      16.814  10.784  11.975  0.00  0.00    -0.391 OA
ATOM      6  C3  SGN d 304      17.386   9.838  12.859  0.00  0.00     0.083 C 
ATOM      7  O4  SGN d 304      19.151   9.407  11.225  0.00  0.00    -0.348 OA
ATOM      8  O5  SGN d 304      19.292   9.145  14.921  0.00  0.00    -0.349 OA
ATOM      9  C4  SGN d 304      18.901   9.791  12.609  0.00  0.00     0.095 C 
ATOM     10  O4S SGN d 304      23.991   7.029  14.655  0.00  0.00    -0.572 OA
ATOM     11  O6S SGN d 304      23.816   9.404  14.875  0.00  0.00    -0.572 OA
ATOM     12  O6  SGN d 304      21.817   7.957  14.285  0.00  0.00    -0.254 OA
ATOM     13  C6  SGN d 304      21.108   8.828  13.415  0.00  0.00     0.067 C 
ATOM     14  C2  SGN d 304      17.293  10.336  14.328  0.00  0.00     0.081 C 
ATOM     15  O3S SGN d 304      16.334  13.072  14.789  0.00  0.00    -0.296 OA
ATOM     16  C1  SGN d 304      17.867   9.267  15.260  0.00  0.00     0.150 C 
ATOM     17  O1S SGN d 304      14.572  12.095  16.110  0.00  0.00    -0.296 OA
ATOM     18  S1  SGN d 304      15.935  11.904  15.704  0.00  0.00     0.156 S 
ATOM     19  S2  SGN d 304      23.355   8.181  14.077  0.00  0.00     0.251 S 
ATOM     20  H   SGN d 304      15.638   9.748  15.307  0.00  0.00     0.140 HD
ATOM     21  H   SGN d 304      17.873  11.609  16.203  0.00  0.00     0.231 HD
ATOM     22  H   SGN d 304      19.155   7.811  13.358  0.00  0.00     0.090 H 
ATOM     23  H   SGN d 304      15.857  10.826  12.121  0.00  0.00     0.210 HD
ATOM     24  H   SGN d 304      16.880   8.908  12.705  0.00  0.00     0.089 H 
ATOM     25  H   SGN d 304      19.328  10.756  12.782  0.00  0.00     0.091 H 
ATOM     26  H   SGN d 304      21.434   9.830  13.606  0.00  0.00     0.080 H 
ATOM     27  H   SGN d 304      21.320   8.503  12.418  0.00  0.00     0.080 H 
ATOM     28  H   SGN d 304      17.830  11.260  14.360  0.00  0.00     0.076 H 
ATOM     29  H   SGN d 304      17.254  12.961  14.504  0.00  0.00     0.231 HD
ATOM     30  H   SGN d 304      17.830   9.475  16.309  0.00  0.00     0.131 H 
ATOM     31  H   SGN d 304      14.303  11.366  16.690  0.00  0.00     0.231 HD
ATOM     32  O6S SGN d 306      14.119   2.228  11.973  0.00  0.00    -0.572 OA
ATOM     33  O5S SGN d 306      11.826   2.060  12.748  0.00  0.00    -0.572 OA
ATOM     34  O2S SGN d 306      18.779   1.127  18.573  0.00  0.00    -0.296 OA
ATOM     35  C1  SGN d 306      15.622   0.992  17.459  0.00  0.00     0.038 C 
ATOM     36  N   SGN d 306      16.610   1.764  19.493  0.00  0.00    -0.212 NA
ATOM     37  O3  SGN d 306      15.921   4.358  19.025  0.00  0.00    -0.391 OA
ATOM     38  S2  SGN d 306      13.119   1.376  12.782  0.00  0.00     0.251 S 
ATOM     39  C3  SGN d 306      15.285   3.304  18.290  0.00  0.00     0.081 C 
ATOM     40  O3S SGN d 306      18.624   3.367  19.524  0.00  0.00    -0.296 OA
ATOM     41  O4S SGN d 306      13.276   0.000  12.380  0.00  0.00    -0.572 OA
ATOM     42  O5  SGN d 306      15.247   1.370  16.127  0.00  0.00    -0.379 OA
ATOM     43  S1  SGN d 306      18.224   1.871  19.732  0.00  0.00     0.156 S 
ATOM     44  O6  SGN d 306      13.497   1.394  14.264  0.00  0.00    -0.254 OA
ATOM     45  C2  SGN d 306      16.238   2.162  18.190  0.00  0.00     0.054 C 
ATOM     46  C5  SGN d 306      14.322   2.479  16.146  0.00  0.00     0.087 C 
ATOM     47  C6  SGN d 306      13.980   2.708  14.679  0.00  0.00     0.067 C 
ATOM     48  O1S SGN d 306      18.442   1.451  21.125  0.00  0.00    -0.296 OA
ATOM     49  O4  SGN d 306      14.020   4.908  16.913  0.00  0.00    -0.348 OA
ATOM     50  C4  SGN d 306      14.944   3.729  16.856  0.00  0.00     0.095 C 
ATOM     51  H   SGN d 306      18.519   1.569  17.750  0.00  0.00     0.231 HD
ATOM     52  H   SGN d 306      14.752   0.664  17.989  0.00  0.00     0.077 H 
ATOM     53  H   SGN d 306      16.340   0.201  17.404  0.00  0.00     0.077 H 
ATOM     54  H   SGN d 306      16.320   0.797  19.636  0.00  0.00     0.140 HD
ATOM     55  H   SGN d 306      16.120   4.051  19.923  0.00  0.00     0.210 HD
ATOM     56  H   SGN d 306      14.383   3.046  18.804  0.00  0.00     0.089 H 
ATOM     57  H   SGN d 306      18.471   3.617  18.599  0.00  0.00     0.231 HD
ATOM     58  H   SGN d 306      17.096   2.480  17.636  0.00  0.00     0.072 H 
ATOM     59  H   SGN d 306      13.438   2.283  16.716  0.00  0.00     0.090 H 
ATOM     60  H   SGN d 306      13.219   3.452  14.570  0.00  0.00     0.080 H 
ATOM     61  H   SGN d 306      14.803   3.065  14.097  0.00  0.00     0.080 H 
ATOM     62  H   SGN d 306      18.186   0.521  21.226  0.00  0.00     0.231 HD
ATOM     63  H   SGN d 306      15.799   4.041  16.294  0.00  0.00     0.091 H 
ATOM     64  O6S SGN d 302      17.759  17.005   3.906  0.00  0.00    -0.572 OA
ATOM     65  O2S SGN d 302      21.014   9.506   5.434  0.00  0.00    -0.296 OA
ATOM     66  O5S SGN d 302      18.614  18.407   5.693  0.00  0.00    -0.572 OA
ATOM     67  C5  SGN d 302      20.640  14.806   6.139  0.00  0.00     0.091 C 
ATOM     68  O4  SGN d 302      22.589  16.173   5.651  0.00  0.00    -0.348 OA
ATOM     69  O3  SGN d 302      24.170  13.646   5.490  0.00  0.00    -0.391 OA
ATOM     70  C6  SGN d 302      19.778  15.955   5.581  0.00  0.00     0.067 C 
ATOM     71  S1  SGN d 302      22.446   9.644   5.439  0.00  0.00     0.156 S 
ATOM     72  N   SGN d 302      22.824  11.140   6.145  0.00  0.00    -0.210 NA
ATOM     73  O4S SGN d 302      16.398  17.149   5.841  0.00  0.00    -0.572 OA
ATOM     74  O6  SGN d 302      18.494  16.032   6.144  0.00  0.00    -0.254 OA
ATOM     75  O5  SGN d 302      19.963  13.511   5.897  0.00  0.00    -0.349 OA
ATOM     76  C4  SGN d 302      22.010  14.837   5.455  0.00  0.00     0.095 C 
ATOM     77  S2  SGN d 302      17.771  17.228   5.428  0.00  0.00     0.251 S 
ATOM     78  C1  SGN d 302      20.735  12.298   6.285  0.00  0.00     0.150 C 
ATOM     79  C2  SGN d 302      22.148  12.354   5.695  0.00  0.00     0.081 C 
ATOM     80  O1S SGN d 302      23.293   8.716   6.138  0.00  0.00    -0.296 OA
ATOM     81  C3  SGN d 302      22.870  13.670   6.068  0.00  0.00     0.083 C 
ATOM     82  O3S SGN d 302      22.794   9.627   3.959  0.00  0.00    -0.296 OA
ATOM     83  H   SGN d 302      20.687   9.506   6.347  0.00  0.00     0.231 HD
ATOM     84  H   SGN d 302      20.772  14.925   7.194  0.00  0.00     0.090 H 
ATOM     85  H   SGN d 302      24.639  14.465   5.714  0.00  0.00     0.210 HD
ATOM     86  H   SGN d 302      19.675  15.815   4.525  0.00  0.00     0.080 H 
ATOM     87  H   SGN d 302      20.280  16.867   5.830  0.00  0.00     0.080 H 
ATOM     88  H   SGN d 302      23.823  11.289   6.001  0.00  0.00     0.140 HD
ATOM     89  H   SGN d 302      21.959  14.677   4.398  0.00  0.00     0.091 H 
ATOM     90  H   SGN d 302      20.169  11.489   5.872  0.00  0.00     0.131 H 
ATOM     91  H   SGN d 302      22.139  12.374   4.625  0.00  0.00     0.076 H 
ATOM     92  H   SGN d 302      23.073   8.726   7.082  0.00  0.00     0.231 HD
ATOM     93  H   SGN d 302      22.971  13.800   7.126  0.00  0.00     0.089 H 
ATOM     94  H   SGN d 302      22.223  10.252   3.485  0.00  0.00     0.231 HD
ATOM     95  O5  IDS d 303      20.425  11.381  10.520  0.00  0.00    -0.340 OA
ATOM     96  O2S IDS d 303      22.242   7.376  10.571  0.00  0.00    -0.572 OA
ATOM     97  O4  IDS d 303      20.809  12.011   7.691  0.00  0.00    -0.348 OA
ATOM     98  O1S IDS d 303      24.215   8.180   9.241  0.00  0.00    -0.572 OA
ATOM     99  C4  IDS d 303      19.602  11.433   8.193  0.00  0.00     0.103 C 
ATOM    100  S   IDS d 303      22.824   7.920   9.360  0.00  0.00     0.252 S 
ATOM    101  O2  IDS d 303      22.066   9.333   9.082  0.00  0.00    -0.244 OA
ATOM    102  O3  IDS d 303      18.238   9.523   8.627  0.00  0.00    -0.390 OA
ATOM    103  O61 IDS d 303      20.366  14.154  10.184  0.00  0.00    -0.646 OA
ATOM    104  C2  IDS d 303      20.586   9.195   9.282  0.00  0.00     0.134 C 
ATOM    105  C1  IDS d 303      20.355   9.895  10.630  0.00  0.00     0.161 C 
ATOM    106  O3S IDS d 303      22.494   6.914   8.248  0.00  0.00    -0.572 OA
ATOM    107  C3  IDS d 303      19.569   9.861   8.199  0.00  0.00     0.094 C 
ATOM    108  C5  IDS d 303      19.407  11.968   9.619  0.00  0.00     0.152 C 
ATOM    109  O62 IDS d 303      18.676  14.207   8.757  0.00  0.00    -0.646 OA
ATOM    110  C6  IDS d 303      19.512  13.530   9.550  0.00  0.00     0.206 C 
ATOM    111  H   IDS d 303      18.809  11.714   7.532  0.00  0.00     0.092 H 
ATOM    112  H   IDS d 303      17.594   9.901   8.008  0.00  0.00     0.210 HD
ATOM    113  H   IDS d 303      20.356   8.153   9.196  0.00  0.00     0.097 H 
ATOM    114  H   IDS d 303      21.157   9.647  11.293  0.00  0.00     0.133 H 
ATOM    115  H   IDS d 303      19.852   9.503   7.231  0.00  0.00     0.091 H 
ATOM    116  H   IDS d 303      18.451  11.696  10.013  0.00  0.00     0.104 H 
ATOM    117  C1  UAP d 301      23.040  16.721   6.876  0.00  0.00     0.167 C 
ATOM    118  C5  UAP d 301      25.081  17.352   7.923  0.00  0.00     0.147 C 
ATOM    119  O61 UAP d 301      27.181  17.502   9.094  0.00  0.00    -0.642 OA
ATOM    120  C2  UAP d 301      22.615  18.259   6.874  0.00  0.00     0.135 C 
ATOM    121  O62 UAP d 301      27.048  15.866   7.552  0.00  0.00    -0.642 OA
ATOM    122  O3  UAP d 301      22.160  18.425   9.310  0.00  0.00    -0.389 OA
ATOM    123  O5  UAP d 301      24.482  16.607   6.952  0.00  0.00    -0.311 OA
ATOM    124  C6  UAP d 301      26.500  16.922   8.239  0.00  0.00     0.233 C 
ATOM    125  O2  UAP d 301      23.279  19.036   5.755  0.00  0.00    -0.244 OA
ATOM    126  C3  UAP d 301      23.068  18.868   8.266  0.00  0.00     0.086 C 
ATOM    127  O2S UAP d 301      21.603  18.133   4.198  0.00  0.00    -0.572 OA
ATOM    128  C4  UAP d 301      24.515  18.400   8.588  0.00  0.00    -0.034 C 
ATOM    129  O3S UAP d 301      21.116  20.344   5.135  0.00  0.00    -0.572 OA
ATOM    130  O1S UAP d 301      22.957  20.192   3.557  0.00  0.00    -0.572 OA
ATOM    131  S   UAP d 301      22.235  19.418   4.566  0.00  0.00     0.252 S 
ATOM    132  H   UAP d 301      22.617  16.208   7.714  0.00  0.00     0.134 H 
ATOM    133  H   UAP d 301      21.558  18.331   6.723  0.00  0.00     0.097 H 
ATOM    134  H   UAP d 301      21.259  18.720   9.103  0.00  0.00     0.210 HD
ATOM    135  H   UAP d 301      23.046  19.936   8.216  0.00  0.00     0.093 H 
ATOM    136  H   UAP d 301      25.057  18.890   9.316  0.00  0.00     0.085 H 
ATOM    137  C5  IDS d 305      16.488   5.710  15.472  0.00  0.00     0.152 C 
ATOM    138  O2  IDS d 305      14.076   8.441  15.648  0.00  0.00    -0.244 OA
ATOM    139  C6  IDS d 305      17.469   5.327  14.383  0.00  0.00     0.206 C 
ATOM    140  O61 IDS d 305      17.086   5.142  13.222  0.00  0.00    -0.646 OA
ATOM    141  O2S IDS d 305      11.676   7.961  15.889  0.00  0.00    -0.572 OA
ATOM    142  O62 IDS d 305      18.760   5.172  14.711  0.00  0.00    -0.646 OA
ATOM    143  O5  IDS d 305      15.131   5.793  14.901  0.00  0.00    -0.340 OA
ATOM    144  C3  IDS d 305      15.819   7.494  17.217  0.00  0.00     0.094 C 
ATOM    145  O4  IDS d 305      17.029   8.048  15.018  0.00  0.00    -0.348 OA
ATOM    146  O1S IDS d 305      12.452  10.098  14.876  0.00  0.00    -0.572 OA
ATOM    147  C2  IDS d 305      14.337   7.417  16.654  0.00  0.00     0.134 C 
ATOM    148  C1  IDS d 305      14.116   6.034  15.947  0.00  0.00     0.161 C 
ATOM    149  C4  IDS d 305      16.903   7.088  16.103  0.00  0.00     0.103 C 
ATOM    150  O3  IDS d 305      15.892   6.520  18.239  0.00  0.00    -0.390 OA
ATOM    151  S   IDS d 305      12.618   9.071  15.874  0.00  0.00     0.252 S 
ATOM    152  O3S IDS d 305      12.603   9.728  17.271  0.00  0.00    -0.572 OA
ATOM    153  H   IDS d 305      16.498   4.967  16.241  0.00  0.00     0.104 H 
ATOM    154  H   IDS d 305      16.028   8.491  17.545  0.00  0.00     0.091 H 
ATOM    155  H   IDS d 305      13.683   7.557  17.490  0.00  0.00     0.097 H 
ATOM    156  H   IDS d 305      13.166   6.084  15.459  0.00  0.00     0.133 H 
ATOM    157  H   IDS d 305      17.846   7.047  16.607  0.00  0.00     0.092 H 
ATOM    158  H   IDS d 305      15.692   5.647  17.868  0.00  0.00     0.210 HD
ENDROOT
TORSDOF 49
ENDMDL
MODEL 47
REMARK VINA RESULT:      -4.7      4.002     15.444
REMARK  0 active torsions:
REMARK  status: ('A' for Active; 'I' for Inactive)
REMARK       I    between atoms: N_1  and  C2_65 
REMARK       I    between atoms: N_1  and  S1_100 
REMARK       I    between atoms: O2S_4  and  S1_36 
REMARK       I    between atoms: O2S_5  and  S1_100 
REMARK       I    between atoms: C5_7  and  C6_64 
REMARK       I    between atoms: O3_11  and  C3_17 
REMARK       I    between atoms: C1_12  and  O4_28 
REMARK       I    between atoms: C5_13  and  C6_35 
REMARK       I    between atoms: C5_14  and  C6_52 
REMARK       I    between atoms: O2S_16  and  S1_75 
REMARK       I    between atoms: C2_18  and  O2_63 
REMARK       I    between atoms: C5_19  and  C6_22 
REMARK       I    between atoms: O2_20  and  C2_53 
REMARK       I    between atoms: O2_20  and  S_86 
REMARK       I    between atoms: O4_21  and  C1_67 
REMARK       I    between atoms: O4_21  and  C4_48 
REMARK       I    between atoms: O3_26  and  C3_72 
REMARK       I    between atoms: O4_28  and  C4_71 
REMARK       I    between atoms: O3_30  and  C3_94 
REMARK       I    between atoms: N_33  and  C2_82 
REMARK       I    between atoms: N_33  and  S1_75 
REMARK       I    between atoms: C6_35  and  O6_59 
REMARK       I    between atoms: S1_36  and  N_37 
REMARK       I    between atoms: S1_36  and  O1S_89 
REMARK       I    between atoms: S1_36  and  O3S_97 
REMARK       I    between atoms: N_37  and  C2_78 
REMARK       I    between atoms: C3_38  and  O3_81 
REMARK       I    between atoms: O4_39  and  C1_85 
REMARK       I    between atoms: O4_39  and  C4_69 
REMARK       I    between atoms: O3_40  and  C3_47 
REMARK       I    between atoms: O4_41  and  C1_76 
REMARK       I    between atoms: O4_41  and  C4_43 
REMARK       I    between atoms: S2_44  and  O6_80 
REMARK       I    between atoms: S_46  and  O2_57 
REMARK       I    between atoms: O3S_49  and  S1_75 
REMARK       I    between atoms: C1_54  and  O4_96 
REMARK       I    between atoms: O2_57  and  C2_66 
REMARK       I    between atoms: O6_58  and  C6_64 
REMARK       I    between atoms: O6_58  and  S2_101 
REMARK       I    between atoms: O6_59  and  S2_73 
REMARK       I    between atoms: O3_61  and  C3_77 
REMARK       I    between atoms: O2_63  and  S_104 
REMARK       I    between atoms: S1_75  and  O1S_92 
REMARK       I    between atoms: O6_80  and  C6_88 
REMARK       I    between atoms: C5_83  and  C6_88 
REMARK       I    between atoms: O3S_84  and  S1_100 
REMARK       I    between atoms: C5_87  and  C6_103 
REMARK       I    between atoms: O1S_91  and  S1_100 
REMARK       I    between atoms: O4_96  and  C4_99 
ROOT
ATOM      1  N   SGN d 304      18.680  10.011  14.572  0.00  0.00    -0.210 NA
ATOM      2  O2S SGN d 304      20.054  10.917  16.441  0.00  0.00    -0.296 OA
ATOM      3  C5  SGN d 304      21.937   7.985  12.910  0.00  0.00     0.091 C 
ATOM      4  O5S SGN d 304      25.760   7.399  11.601  0.00  0.00    -0.572 OA
ATOM      5  O3  SGN d 304      19.290  10.373  11.732  0.00  0.00    -0.391 OA
ATOM      6  C3  SGN d 304      19.838   9.309  12.487  0.00  0.00     0.083 C 
ATOM      7  O4  SGN d 304      21.384   8.831  10.657  0.00  0.00    -0.348 OA
ATOM      8  O5  SGN d 304      21.844   8.270  14.293  0.00  0.00    -0.349 OA
ATOM      9  C4  SGN d 304      21.308   9.130  12.082  0.00  0.00     0.095 C 
ATOM     10  O4S SGN d 304      26.242   5.720  13.407  0.00  0.00    -0.572 OA
ATOM     11  O6S SGN d 304      26.346   8.077  13.803  0.00  0.00    -0.572 OA
ATOM     12  O6  SGN d 304      24.155   6.888  13.324  0.00  0.00    -0.254 OA
ATOM     13  C6  SGN d 304      23.465   7.891  12.592  0.00  0.00     0.067 C 
ATOM     14  C2  SGN d 304      19.938   9.698  13.989  0.00  0.00     0.081 C 
ATOM     15  O3S SGN d 304      19.326  12.473  14.728  0.00  0.00    -0.296 OA
ATOM     16  C1  SGN d 304      20.479   8.509  14.783  0.00  0.00     0.150 C 
ATOM     17  O1S SGN d 304      17.603  11.578  16.153  0.00  0.00    -0.296 OA
ATOM     18  S1  SGN d 304      18.892  11.283  15.599  0.00  0.00     0.156 S 
ATOM     19  S2  SGN d 304      25.682   6.972  12.976  0.00  0.00     0.251 S 
ATOM     20  H   SGN d 304      18.329   9.205  15.090  0.00  0.00     0.140 HD
ATOM     21  H   SGN d 304      20.825  10.757  15.876  0.00  0.00     0.231 HD
ATOM     22  H   SGN d 304      21.418   7.082  12.666  0.00  0.00     0.090 H 
ATOM     23  H   SGN d 304      18.360  10.499  11.977  0.00  0.00     0.210 HD
ATOM     24  H   SGN d 304      19.222   8.449  12.324  0.00  0.00     0.089 H 
ATOM     25  H   SGN d 304      21.851  10.031  12.275  0.00  0.00     0.091 H 
ATOM     26  H   SGN d 304      23.913   8.837  12.816  0.00  0.00     0.080 H 
ATOM     27  H   SGN d 304      23.546   7.625  11.559  0.00  0.00     0.080 H 
ATOM     28  H   SGN d 304      20.571  10.559  14.028  0.00  0.00     0.076 H 
ATOM     29  H   SGN d 304      20.198  12.292  14.343  0.00  0.00     0.231 HD
ATOM     30  H   SGN d 304      20.563   8.637  15.842  0.00  0.00     0.131 H 
ATOM     31  H   SGN d 304      17.312  10.837  16.707  0.00  0.00     0.231 HD
ATOM     32  O6S SGN d 306      15.702   2.157  11.430  0.00  0.00    -0.572 OA
ATOM     33  O5S SGN d 306      13.488   2.160  12.421  0.00  0.00    -0.572 OA
ATOM     34  O2S SGN d 306      20.819   0.086  17.431  0.00  0.00    -0.296 OA
ATOM     35  C1  SGN d 306      17.575   0.355  16.638  0.00  0.00     0.038 C 
ATOM     36  N   SGN d 306      18.828   0.864  18.608  0.00  0.00    -0.212 NA
ATOM     37  O3  SGN d 306      18.381   3.542  18.389  0.00  0.00    -0.391 OA
ATOM     38  S2  SGN d 306      14.697   1.349  12.278  0.00  0.00     0.251 S 
ATOM     39  C3  SGN d 306      17.569   2.617  17.653  0.00  0.00     0.081 C 
ATOM     40  O3S SGN d 306      20.997   2.249  18.541  0.00  0.00    -0.296 OA
ATOM     41  O4S SGN d 306      14.667   0.000  11.770  0.00  0.00    -0.572 OA
ATOM     42  O5  SGN d 306      17.119   0.871  15.380  0.00  0.00    -0.379 OA
ATOM     43  S1  SGN d 306      20.459   0.789  18.688  0.00  0.00     0.156 S 
ATOM     44  O6  SGN d 306      15.213   1.215  13.711  0.00  0.00    -0.254 OA
ATOM     45  C2  SGN d 306      18.379   1.397  17.380  0.00  0.00     0.054 C 
ATOM     46  C5  SGN d 306      16.325   2.062  15.568  0.00  0.00     0.087 C 
ATOM     47  C6  SGN d 306      15.871   2.437  14.162  0.00  0.00     0.067 C 
ATOM     48  O1S SGN d 306      20.762   0.244  20.020  0.00  0.00    -0.296 OA
ATOM     49  O4  SGN d 306      16.359   4.442  16.523  0.00  0.00    -0.348 OA
ATOM     50  C4  SGN d 306      17.141   3.185  16.293  0.00  0.00     0.095 C 
ATOM     51  H   SGN d 306      20.531   0.614  16.670  0.00  0.00     0.231 HD
ATOM     52  H   SGN d 306      16.728   0.076  17.231  0.00  0.00     0.077 H 
ATOM     53  H   SGN d 306      18.196  -0.498  16.457  0.00  0.00     0.077 H 
ATOM     54  H   SGN d 306      18.450  -0.077  18.715  0.00  0.00     0.140 HD
ATOM     55  H   SGN d 306      18.630   3.148  19.239  0.00  0.00     0.210 HD
ATOM     56  H   SGN d 306      16.697   2.412  18.238  0.00  0.00     0.089 H 
ATOM     57  H   SGN d 306      20.785   2.584  17.656  0.00  0.00     0.231 HD
ATOM     58  H   SGN d 306      19.210   1.670  16.764  0.00  0.00     0.072 H 
ATOM     59  H   SGN d 306      15.482   1.912  16.211  0.00  0.00     0.090 H 
ATOM     60  H   SGN d 306      15.188   3.261  14.182  0.00  0.00     0.080 H 
ATOM     61  H   SGN d 306      16.670   2.754  13.525  0.00  0.00     0.080 H 
ATOM     62  H   SGN d 306      20.418  -0.662  20.084  0.00  0.00     0.231 HD
ATOM     63  H   SGN d 306      17.968   3.452  15.669  0.00  0.00     0.091 H 
ATOM     64  O6S SGN d 302      20.132  17.075   4.046  0.00  0.00    -0.572 OA
ATOM     65  O2S SGN d 302      22.692   9.191   4.726  0.00  0.00    -0.296 OA
ATOM     66  O5S SGN d 302      21.297  18.241   5.826  0.00  0.00    -0.572 OA
ATOM     67  C5  SGN d 302      22.958  14.432   5.820  0.00  0.00     0.091 C 
ATOM     68  O4  SGN d 302      24.987  15.629   5.229  0.00  0.00    -0.348 OA
ATOM     69  O3  SGN d 302      26.265  12.976   4.738  0.00  0.00    -0.391 OA
ATOM     70  C6  SGN d 302      22.175  15.701   5.431  0.00  0.00     0.067 C 
ATOM     71  S1  SGN d 302      24.124   9.184   4.594  0.00  0.00     0.156 S 
ATOM     72  N   SGN d 302      24.726  10.575   5.357  0.00  0.00    -0.210 NA
ATOM     73  O4S SGN d 302      18.983  17.204   6.114  0.00  0.00    -0.572 OA
ATOM     74  O6  SGN d 302      20.966  15.862   6.126  0.00  0.00    -0.254 OA
ATOM     75  O5  SGN d 302      22.126  13.233   5.561  0.00  0.00    -0.349 OA
ATOM     76  C4  SGN d 302      24.252  14.378   5.004  0.00  0.00     0.095 C 
ATOM     77  S2  SGN d 302      20.312  17.176   5.569  0.00  0.00     0.251 S 
ATOM     78  C1  SGN d 302      22.795  11.922   5.787  0.00  0.00     0.150 C 
ATOM     79  C2  SGN d 302      24.144  11.882   5.061  0.00  0.00     0.081 C 
ATOM     80  O1S SGN d 302      24.929   8.124   5.139  0.00  0.00    -0.296 OA
ATOM     81  C3  SGN d 302      25.035  13.086   5.446  0.00  0.00     0.083 C 
ATOM     82  O3S SGN d 302      24.327   9.246   3.088  0.00  0.00    -0.296 OA
ATOM     83  H   SGN d 302      22.454   9.153   5.666  0.00  0.00     0.231 HD
ATOM     84  H   SGN d 302      23.200  14.454   6.861  0.00  0.00     0.090 H 
ATOM     85  H   SGN d 302      26.838  13.725   4.967  0.00  0.00     0.210 HD
ATOM     86  H   SGN d 302      21.958  15.654   4.384  0.00  0.00     0.080 H 
ATOM     87  H   SGN d 302      22.794  16.535   5.688  0.00  0.00     0.080 H 
ATOM     88  H   SGN d 302      25.717  10.634   5.122  0.00  0.00     0.140 HD
ATOM     89  H   SGN d 302      24.085  14.305   3.949  0.00  0.00     0.091 H 
ATOM     90  H   SGN d 302      22.109  11.208   5.380  0.00  0.00     0.131 H 
ATOM     91  H   SGN d 302      24.037  11.986   4.001  0.00  0.00     0.076 H 
ATOM     92  H   SGN d 302      24.801   8.083   6.099  0.00  0.00     0.231 HD
ATOM     93  H   SGN d 302      25.249  13.122   6.494  0.00  0.00     0.089 H 
ATOM     94  H   SGN d 302      23.784   9.961   2.718  0.00  0.00     0.231 HD
ATOM     95  O5  IDS d 303      22.790  10.716   9.960  0.00  0.00    -0.340 OA
ATOM     96  O2S IDS d 303      24.163   6.557   9.556  0.00  0.00    -0.572 OA
ATOM     97  O4  IDS d 303      22.971  11.521   7.156  0.00  0.00    -0.348 OA
ATOM     98  O1S IDS d 303      26.076   7.259   8.088  0.00  0.00    -0.572 OA
ATOM     99  C4  IDS d 303      21.762  11.031   7.738  0.00  0.00     0.103 C 
ATOM    100  S   IDS d 303      24.682   7.132   8.331  0.00  0.00     0.252 S 
ATOM    101  O2  IDS d 303      24.058   8.631   8.227  0.00  0.00    -0.244 OA
ATOM    102  O3  IDS d 303      20.247   9.239   8.179  0.00  0.00    -0.390 OA
ATOM    103  O61 IDS d 303      22.998  13.498   9.819  0.00  0.00    -0.646 OA
ATOM    104  C2  IDS d 303      22.598   8.627   8.567  0.00  0.00     0.134 C 
ATOM    105  C1  IDS d 303      22.572   9.240   9.976  0.00  0.00     0.161 C 
ATOM    106  O3S IDS d 303      24.144   6.254   7.194  0.00  0.00    -0.572 OA
ATOM    107  C3  IDS d 303      21.561   9.474   7.641  0.00  0.00     0.094 C 
ATOM    108  C5  IDS d 303      21.761  11.471   9.209  0.00  0.00     0.152 C 
ATOM    109  O62 IDS d 303      21.197  13.831   8.578  0.00  0.00    -0.646 OA
ATOM    110  C6  IDS d 303      22.026  13.015   9.234  0.00  0.00     0.206 C 
ATOM    111  H   IDS d 303      20.945  11.440   7.182  0.00  0.00     0.092 H 
ATOM    112  H   IDS d 303      19.592   9.727   7.656  0.00  0.00     0.210 HD
ATOM    113  H   IDS d 303      22.250   7.623   8.435  0.00  0.00     0.097 H 
ATOM    114  H   IDS d 303      23.402   8.862  10.536  0.00  0.00     0.133 H 
ATOM    115  H   IDS d 303      21.710   9.165   6.627  0.00  0.00     0.091 H 
ATOM    116  H   IDS d 303      20.822  11.266   9.679  0.00  0.00     0.104 H 
ATOM    117  C1  UAP d 301      25.608  16.033   6.435  0.00  0.00     0.167 C 
ATOM    118  C5  UAP d 301      27.795  16.373   7.309  0.00  0.00     0.147 C 
ATOM    119  O61 UAP d 301      30.000  16.220   8.267  0.00  0.00    -0.642 OA
ATOM    120  C2  UAP d 301      25.353  17.601   6.580  0.00  0.00     0.135 C 
ATOM    121  O62 UAP d 301      29.547  14.730   6.640  0.00  0.00    -0.642 OA
ATOM    122  O3  UAP d 301      25.151  17.623   9.056  0.00  0.00    -0.389 OA
ATOM    123  O5  UAP d 301      27.031  15.769   6.356  0.00  0.00    -0.311 OA
ATOM    124  C6  UAP d 301      29.183  15.779   7.449  0.00  0.00     0.233 C 
ATOM    125  O2  UAP d 301      25.988  18.392   5.454  0.00  0.00    -0.244 OA
ATOM    126  C3  UAP d 301      25.998  18.052   7.957  0.00  0.00     0.086 C 
ATOM    127  O2S UAP d 301      24.085  17.785   4.019  0.00  0.00    -0.572 OA
ATOM    128  C4  UAP d 301      27.411  17.417   8.097  0.00  0.00    -0.034 C 
ATOM    129  O3S UAP d 301      23.929  19.955   5.147  0.00  0.00    -0.572 OA
ATOM    130  O1S UAP d 301      25.586  19.741   3.383  0.00  0.00    -0.572 OA
ATOM    131  S   UAP d 301      24.884  18.967   4.406  0.00  0.00     0.252 S 
ATOM    132  H   UAP d 301      25.213  15.502   7.276  0.00  0.00     0.134 H 
ATOM    133  H   UAP d 301      24.300  17.791   6.543  0.00  0.00     0.097 H 
ATOM    134  H   UAP d 301      24.271  18.022   8.961  0.00  0.00     0.210 HD
ATOM    135  H   UAP d 301      26.087  19.118   7.980  0.00  0.00     0.093 H 
ATOM    136  H   UAP d 301      28.069  17.793   8.797  0.00  0.00     0.085 H 
ATOM    137  C5  IDS d 305      18.752   5.102  14.895  0.00  0.00     0.152 C 
ATOM    138  O2  IDS d 305      16.675   8.039  15.500  0.00  0.00    -0.244 OA
ATOM    139  C6  IDS d 305      19.578   4.708  13.689  0.00  0.00     0.206 C 
ATOM    140  O61 IDS d 305      19.070   4.652  12.563  0.00  0.00    -0.646 OA
ATOM    141  O2S IDS d 305      14.271   7.785  15.951  0.00  0.00    -0.572 OA
ATOM    142  O62 IDS d 305      20.871   4.399  13.872  0.00  0.00    -0.646 OA
ATOM    143  O5  IDS d 305      17.364   5.364  14.472  0.00  0.00    -0.340 OA
ATOM    144  C3  IDS d 305      18.447   6.804  16.816  0.00  0.00     0.094 C 
ATOM    145  O4  IDS d 305      19.496   7.402  14.547  0.00  0.00    -0.348 OA
ATOM    146  O1S IDS d 305      15.173   9.905  15.010  0.00  0.00    -0.572 OA
ATOM    147  C2  IDS d 305      16.918   6.920  16.402  0.00  0.00     0.134 C 
ATOM    148  C1  IDS d 305      16.484   5.625  15.630  0.00  0.00     0.161 C 
ATOM    149  C4  IDS d 305      19.370   6.378  15.572  0.00  0.00     0.103 C 
ATOM    150  O3  IDS d 305      18.510   5.750  17.757  0.00  0.00    -0.390 OA
ATOM    151  S   IDS d 305      15.321   8.793  15.914  0.00  0.00     0.252 S 
ATOM    152  O3S IDS d 305      15.508   9.338  17.347  0.00  0.00    -0.572 OA
ATOM    153  H   IDS d 305      18.754   4.305  15.608  0.00  0.00     0.104 H 
ATOM    154  H   IDS d 305      18.792   7.746  17.187  0.00  0.00     0.091 H 
ATOM    155  H   IDS d 305      16.365   7.059  17.308  0.00  0.00     0.097 H 
ATOM    156  H   IDS d 305      15.503   5.807  15.246  0.00  0.00     0.133 H 
ATOM    157  H   IDS d 305      20.346   6.204  15.973  0.00  0.00     0.092 H 
ATOM    158  H   IDS d 305      18.183   4.933  17.350  0.00  0.00     0.210 HD
ENDROOT
TORSDOF 49
ENDMDL
MODEL 48
REMARK VINA RESULT:      -4.6      3.853     14.643
REMARK  0 active torsions:
REMARK  status: ('A' for Active; 'I' for Inactive)
REMARK       I    between atoms: N_1  and  C2_65 
REMARK       I    between atoms: N_1  and  S1_100 
REMARK       I    between atoms: O2S_4  and  S1_36 
REMARK       I    between atoms: O2S_5  and  S1_100 
REMARK       I    between atoms: C5_7  and  C6_64 
REMARK       I    between atoms: O3_11  and  C3_17 
REMARK       I    between atoms: C1_12  and  O4_28 
REMARK       I    between atoms: C5_13  and  C6_35 
REMARK       I    between atoms: C5_14  and  C6_52 
REMARK       I    between atoms: O2S_16  and  S1_75 
REMARK       I    between atoms: C2_18  and  O2_63 
REMARK       I    between atoms: C5_19  and  C6_22 
REMARK       I    between atoms: O2_20  and  C2_53 
REMARK       I    between atoms: O2_20  and  S_86 
REMARK       I    between atoms: O4_21  and  C1_67 
REMARK       I    between atoms: O4_21  and  C4_48 
REMARK       I    between atoms: O3_26  and  C3_72 
REMARK       I    between atoms: O4_28  and  C4_71 
REMARK       I    between atoms: O3_30  and  C3_94 
REMARK       I    between atoms: N_33  and  C2_82 
REMARK       I    between atoms: N_33  and  S1_75 
REMARK       I    between atoms: C6_35  and  O6_59 
REMARK       I    between atoms: S1_36  and  N_37 
REMARK       I    between atoms: S1_36  and  O1S_89 
REMARK       I    between atoms: S1_36  and  O3S_97 
REMARK       I    between atoms: N_37  and  C2_78 
REMARK       I    between atoms: C3_38  and  O3_81 
REMARK       I    between atoms: O4_39  and  C1_85 
REMARK       I    between atoms: O4_39  and  C4_69 
REMARK       I    between atoms: O3_40  and  C3_47 
REMARK       I    between atoms: O4_41  and  C1_76 
REMARK       I    between atoms: O4_41  and  C4_43 
REMARK       I    between atoms: S2_44  and  O6_80 
REMARK       I    between atoms: S_46  and  O2_57 
REMARK       I    between atoms: O3S_49  and  S1_75 
REMARK       I    between atoms: C1_54  and  O4_96 
REMARK       I    between atoms: O2_57  and  C2_66 
REMARK       I    between atoms: O6_58  and  C6_64 
REMARK       I    between atoms: O6_58  and  S2_101 
REMARK       I    between atoms: O6_59  and  S2_73 
REMARK       I    between atoms: O3_61  and  C3_77 
REMARK       I    between atoms: O2_63  and  S_104 
REMARK       I    between atoms: S1_75  and  O1S_92 
REMARK       I    between atoms: O6_80  and  C6_88 
REMARK       I    between atoms: C5_83  and  C6_88 
REMARK       I    between atoms: O3S_84  and  S1_100 
REMARK       I    between atoms: C5_87  and  C6_103 
REMARK       I    between atoms: O1S_91  and  S1_100 
REMARK       I    between atoms: O4_96  and  C4_99 
ROOT
ATOM      1  N   SGN d 304      18.042  11.593  14.195  0.00  0.00    -0.210 NA
ATOM      2  O2S SGN d 304      19.919  12.550  15.522  0.00  0.00    -0.296 OA
ATOM      3  C5  SGN d 304      20.625  10.085  11.276  0.00  0.00     0.091 C 
ATOM      4  O5S SGN d 304      23.729  10.051   8.622  0.00  0.00    -0.572 OA
ATOM      5  O3  SGN d 304      17.521  12.194  11.378  0.00  0.00    -0.391 OA
ATOM      6  C3  SGN d 304      18.405  11.163  11.774  0.00  0.00     0.083 C 
ATOM      7  O4  SGN d 304      19.201  10.987   9.470  0.00  0.00    -0.348 OA
ATOM      8  O5  SGN d 304      21.025  10.275  12.620  0.00  0.00    -0.349 OA
ATOM      9  C4  SGN d 304      19.631  11.190  10.849  0.00  0.00     0.095 C 
ATOM     10  O4S SGN d 304      24.999   8.342   9.956  0.00  0.00    -0.572 OA
ATOM     11  O6S SGN d 304      25.022  10.666  10.520  0.00  0.00    -0.572 OA
ATOM     12  O6  SGN d 304      22.931   9.247  10.749  0.00  0.00    -0.254 OA
ATOM     13  C6  SGN d 304      21.929  10.198  10.419  0.00  0.00     0.067 C 
ATOM     14  C2  SGN d 304      19.017  11.473  13.169  0.00  0.00     0.081 C 
ATOM     15  O3S SGN d 304      18.468  14.103  14.352  0.00  0.00    -0.296 OA
ATOM     16  C1  SGN d 304      19.922  10.314  13.591  0.00  0.00     0.150 C 
ATOM     17  O1S SGN d 304      17.485  12.920  16.207  0.00  0.00    -0.296 OA
ATOM     18  S1  SGN d 304      18.499  12.819  15.197  0.00  0.00     0.156 S 
ATOM     19  S2  SGN d 304      24.206   9.538   9.883  0.00  0.00     0.251 S 
ATOM     20  H   SGN d 304      17.984  10.721  14.721  0.00  0.00     0.140 HD
ATOM     21  H   SGN d 304      20.438  12.520  14.704  0.00  0.00     0.231 HD
ATOM     22  H   SGN d 304      20.139   9.140  11.147  0.00  0.00     0.090 H 
ATOM     23  H   SGN d 304      16.740  12.190  11.953  0.00  0.00     0.210 HD
ATOM     24  H   SGN d 304      17.855  10.245  11.759  0.00  0.00     0.089 H 
ATOM     25  H   SGN d 304      20.121  12.138  10.922  0.00  0.00     0.091 H 
ATOM     26  H   SGN d 304      22.338  11.178  10.559  0.00  0.00     0.080 H 
ATOM     27  H   SGN d 304      21.646  10.005   9.406  0.00  0.00     0.080 H 
ATOM     28  H   SGN d 304      19.537  12.401  13.062  0.00  0.00     0.076 H 
ATOM     29  H   SGN d 304      19.148  14.053  13.662  0.00  0.00     0.231 HD
ATOM     30  H   SGN d 304      20.380  10.389  14.555  0.00  0.00     0.131 H 
ATOM     31  H   SGN d 304      17.491  12.118  16.751  0.00  0.00     0.231 HD
ATOM     32  O6S SGN d 306      14.857   3.630  11.574  0.00  0.00    -0.572 OA
ATOM     33  O5S SGN d 306      13.176   3.303  13.293  0.00  0.00    -0.572 OA
ATOM     34  O2S SGN d 306      22.000   1.856  15.082  0.00  0.00    -0.296 OA
ATOM     35  C1  SGN d 306      18.682   1.770  15.546  0.00  0.00     0.038 C 
ATOM     36  N   SGN d 306      20.523   2.313  16.970  0.00  0.00    -0.212 NA
ATOM     37  O3  SGN d 306      19.779   4.924  17.196  0.00  0.00    -0.391 OA
ATOM     38  S2  SGN d 306      14.316   2.657  12.642  0.00  0.00     0.251 S 
ATOM     39  C3  SGN d 306      18.842   3.951  16.715  0.00  0.00     0.081 C 
ATOM     40  O3S SGN d 306      22.374   3.956  16.263  0.00  0.00    -0.296 OA
ATOM     41  O4S SGN d 306      14.226   1.346  12.048  0.00  0.00    -0.572 OA
ATOM     42  O5  SGN d 306      17.748   2.299  14.595  0.00  0.00    -0.379 OA
ATOM     43  S1  SGN d 306      22.067   2.435  16.448  0.00  0.00     0.156 S 
ATOM     44  O6  SGN d 306      15.336   2.503  13.771  0.00  0.00    -0.254 OA
ATOM     45  C2  SGN d 306      19.604   2.858  16.047  0.00  0.00     0.054 C 
ATOM     46  C5  SGN d 306      16.972   3.370  15.176  0.00  0.00     0.087 C 
ATOM     47  C6  SGN d 306      15.998   3.769  14.073  0.00  0.00     0.067 C 
ATOM     48  O1S SGN d 306      22.890   1.854  17.519  0.00  0.00    -0.296 OA
ATOM     49  O4  SGN d 306      17.136   5.676  16.286  0.00  0.00    -0.348 OA
ATOM     50  C4  SGN d 306      17.891   4.540  15.665  0.00  0.00     0.095 C 
ATOM     51  H   SGN d 306      21.403   2.389  14.534  0.00  0.00     0.231 HD
ATOM     52  H   SGN d 306      18.145   1.355  16.374  0.00  0.00     0.077 H 
ATOM     53  H   SGN d 306      19.269   1.012  15.069  0.00  0.00     0.077 H 
ATOM     54  H   SGN d 306      20.301   1.328  17.112  0.00  0.00     0.140 HD
ATOM     55  H   SGN d 306      20.361   4.514  17.855  0.00  0.00     0.210 HD
ATOM     56  H   SGN d 306      18.272   3.606  17.552  0.00  0.00     0.089 H 
ATOM     57  H   SGN d 306      21.819   4.314  15.553  0.00  0.00     0.231 HD
ATOM     58  H   SGN d 306      20.118   3.266  15.203  0.00  0.00     0.072 H 
ATOM     59  H   SGN d 306      16.445   3.080  16.061  0.00  0.00     0.090 H 
ATOM     60  H   SGN d 306      15.297   4.499  14.421  0.00  0.00     0.080 H 
ATOM     61  H   SGN d 306      16.471   4.218  13.226  0.00  0.00     0.080 H 
ATOM     62  H   SGN d 306      22.680   0.911  17.613  0.00  0.00     0.231 HD
ATOM     63  H   SGN d 306      18.399   4.944  14.815  0.00  0.00     0.091 H 
ATOM     64  O6S SGN d 302      14.831  19.387   4.616  0.00  0.00    -0.572 OA
ATOM     65  O2S SGN d 302      18.182  11.852   3.536  0.00  0.00    -0.296 OA
ATOM     66  O5S SGN d 302      16.459  20.582   5.963  0.00  0.00    -0.572 OA
ATOM     67  C5  SGN d 302      18.345  17.013   4.977  0.00  0.00     0.091 C 
ATOM     68  O4  SGN d 302      19.891  18.484   3.815  0.00  0.00    -0.348 OA
ATOM     69  O3  SGN d 302      21.137  16.042   2.634  0.00  0.00    -0.391 OA
ATOM     70  C6  SGN d 302      17.360  18.196   5.026  0.00  0.00     0.067 C 
ATOM     71  S1  SGN d 302      19.458  12.030   2.895  0.00  0.00     0.156 S 
ATOM     72  N   SGN d 302      20.167  13.437   3.524  0.00  0.00    -0.210 NA
ATOM     73  O4S SGN d 302      14.523  19.253   6.962  0.00  0.00    -0.572 OA
ATOM     74  O6  SGN d 302      16.485  18.167   6.123  0.00  0.00    -0.254 OA
ATOM     75  O5  SGN d 302      17.592  15.738   4.918  0.00  0.00    -0.349 OA
ATOM     76  C4  SGN d 302      19.245  17.166   3.747  0.00  0.00     0.095 C 
ATOM     77  S2  SGN d 302      15.552  19.421   5.974  0.00  0.00     0.251 S 
ATOM     78  C1  SGN d 302      18.416  14.509   4.754  0.00  0.00     0.150 C 
ATOM     79  C2  SGN d 302      19.398  14.678   3.590  0.00  0.00     0.081 C 
ATOM     80  O1S SGN d 302      20.501  11.047   3.004  0.00  0.00    -0.296 OA
ATOM     81  C3  SGN d 302      20.252  15.958   3.745  0.00  0.00     0.083 C 
ATOM     82  O3S SGN d 302      19.082  12.205   1.432  0.00  0.00    -0.296 OA
ATOM     83  H   SGN d 302      18.313  11.730   4.489  0.00  0.00     0.231 HD
ATOM     84  H   SGN d 302      18.953  17.004   5.857  0.00  0.00     0.090 H 
ATOM     85  H   SGN d 302      21.682  16.840   2.714  0.00  0.00     0.210 HD
ATOM     86  H   SGN d 302      16.777  18.185   4.129  0.00  0.00     0.080 H 
ATOM     87  H   SGN d 302      17.949  19.084   5.124  0.00  0.00     0.080 H 
ATOM     88  H   SGN d 302      20.990  13.631   2.954  0.00  0.00     0.140 HD
ATOM     89  H   SGN d 302      18.707  17.136   2.822  0.00  0.00     0.091 H 
ATOM     90  H   SGN d 302      17.698  13.741   4.554  0.00  0.00     0.131 H 
ATOM     91  H   SGN d 302      18.897  14.830   2.657  0.00  0.00     0.076 H 
ATOM     92  H   SGN d 302      20.742  10.934   3.936  0.00  0.00     0.231 HD
ATOM     93  H   SGN d 302      20.835  15.959   4.643  0.00  0.00     0.089 H 
ATOM     94  H   SGN d 302      18.377  12.868   1.356  0.00  0.00     0.231 HD
ATOM     95  O5  IDS d 303      20.068  13.068   8.505  0.00  0.00    -0.340 OA
ATOM     96  O2S IDS d 303      21.574   9.141   7.219  0.00  0.00    -0.572 OA
ATOM     97  O4  IDS d 303      19.122  14.053   5.920  0.00  0.00    -0.348 OA
ATOM     98  O1S IDS d 303      22.734  10.158   5.237  0.00  0.00    -0.572 OA
ATOM     99  C4  IDS d 303      18.266  13.384   6.847  0.00  0.00     0.103 C 
ATOM    100  S   IDS d 303      21.548   9.846   5.954  0.00  0.00     0.252 S 
ATOM    101  O2  IDS d 303      20.793  11.260   6.232  0.00  0.00    -0.244 OA
ATOM    102  O3  IDS d 303      17.196  11.397   7.625  0.00  0.00    -0.390 OA
ATOM    103  O61 IDS d 303      19.950  15.858   8.577  0.00  0.00    -0.646 OA
ATOM    104  C2  IDS d 303      19.569  11.057   7.075  0.00  0.00     0.134 C 
ATOM    105  C1  IDS d 303      20.009  11.578   8.451  0.00  0.00     0.161 C 
ATOM    106  O3S IDS d 303      20.710   8.977   5.006  0.00  0.00    -0.572 OA
ATOM    107  C3  IDS d 303      18.189  11.823   6.675  0.00  0.00     0.094 C 
ATOM    108  C5  IDS d 303      18.769  13.733   8.255  0.00  0.00     0.152 C 
ATOM    109  O62 IDS d 303      17.794  16.039   8.110  0.00  0.00    -0.646 OA
ATOM    110  C6  IDS d 303      18.880  15.294   8.338  0.00  0.00     0.206 C 
ATOM    111  H   IDS d 303      17.267  13.721   6.668  0.00  0.00     0.092 H 
ATOM    112  H   IDS d 303      16.351  11.830   7.425  0.00  0.00     0.210 HD
ATOM    113  H   IDS d 303      19.292  10.027   6.978  0.00  0.00     0.097 H 
ATOM    114  H   IDS d 303      21.019  11.274   8.633  0.00  0.00     0.133 H 
ATOM    115  H   IDS d 303      17.981  11.595   5.650  0.00  0.00     0.091 H 
ATOM    116  H   IDS d 303      18.094  13.387   9.010  0.00  0.00     0.104 H 
ATOM    117  C1  UAP d 301      20.874  18.889   4.750  0.00  0.00     0.167 C 
ATOM    118  C5  UAP d 301      23.187  19.444   4.804  0.00  0.00     0.147 C 
ATOM    119  O61 UAP d 301      25.594  19.508   4.880  0.00  0.00    -0.642 OA
ATOM    120  C2  UAP d 301      20.546  20.403   5.133  0.00  0.00     0.135 C 
ATOM    121  O62 UAP d 301      24.712  18.071   3.387  0.00  0.00    -0.642 OA
ATOM    122  O3  UAP d 301      21.273  20.254   7.503  0.00  0.00    -0.389 OA
ATOM    123  O5  UAP d 301      22.184  18.807   4.136  0.00  0.00    -0.311 OA
ATOM    124  C6  UAP d 301      24.577  19.019   4.373  0.00  0.00     0.233 C 
ATOM    125  O2  UAP d 301      20.643  21.331   3.938  0.00  0.00    -0.244 OA
ATOM    126  C3  UAP d 301      21.610  20.848   6.221  0.00  0.00     0.086 C 
ATOM    127  O2S UAP d 301      18.409  20.579   3.235  0.00  0.00    -0.572 OA
ATOM    128  C4  UAP d 301      23.026  20.385   5.777  0.00  0.00    -0.034 C 
ATOM    129  O3S UAP d 301      18.481  22.643   4.554  0.00  0.00    -0.572 OA
ATOM    130  O1S UAP d 301      19.380  22.739   2.298  0.00  0.00    -0.572 OA
ATOM    131  S   UAP d 301      19.181  21.826   3.423  0.00  0.00     0.252 S 
ATOM    132  H   UAP d 301      20.870  18.265   5.619  0.00  0.00     0.134 H 
ATOM    133  H   UAP d 301      19.542  20.463   5.498  0.00  0.00     0.097 H 
ATOM    134  H   UAP d 301      20.388  20.547   7.773  0.00  0.00     0.210 HD
ATOM    135  H   UAP d 301      21.601  21.913   6.317  0.00  0.00     0.093 H 
ATOM    136  H   UAP d 301      23.859  20.797   6.227  0.00  0.00     0.085 H 
ATOM    137  C5  IDS d 305      18.684   6.720  13.978  0.00  0.00     0.152 C 
ATOM    138  O2  IDS d 305      16.715   9.338  15.582  0.00  0.00    -0.244 OA
ATOM    139  C6  IDS d 305      19.038   6.502  12.522  0.00  0.00     0.206 C 
ATOM    140  O61 IDS d 305      18.157   6.451  11.656  0.00  0.00    -0.646 OA
ATOM    141  O2S IDS d 305      14.683   8.764  16.844  0.00  0.00    -0.572 OA
ATOM    142  O62 IDS d 305      20.329   6.344  12.194  0.00  0.00    -0.646 OA
ATOM    143  O5  IDS d 305      17.220   6.834  14.114  0.00  0.00    -0.340 OA
ATOM    144  C3  IDS d 305      18.954   8.255  16.039  0.00  0.00     0.094 C 
ATOM    145  O4  IDS d 305      19.029   9.110  13.616  0.00  0.00    -0.348 OA
ATOM    146  O1S IDS d 305      14.972  11.031  15.857  0.00  0.00    -0.572 OA
ATOM    147  C2  IDS d 305      17.378   8.207  16.220  0.00  0.00     0.134 C 
ATOM    148  C1  IDS d 305      16.812   6.915  15.532  0.00  0.00     0.161 C 
ATOM    149  C4  IDS d 305      19.387   8.020  14.510  0.00  0.00     0.103 C 
ATOM    150  O3  IDS d 305      19.460   7.165  16.784  0.00  0.00    -0.390 OA
ATOM    151  S   IDS d 305      15.547   9.894  16.531  0.00  0.00     0.252 S 
ATOM    152  O3S IDS d 305      16.200  10.373  17.846  0.00  0.00    -0.572 OA
ATOM    153  H   IDS d 305      19.024   5.888  14.559  0.00  0.00     0.104 H 
ATOM    154  H   IDS d 305      19.323   9.210  16.353  0.00  0.00     0.091 H 
ATOM    155  H   IDS d 305      17.189   8.223  17.273  0.00  0.00     0.097 H 
ATOM    156  H   IDS d 305      15.745   6.998  15.548  0.00  0.00     0.133 H 
ATOM    157  H   IDS d 305      20.454   7.945  14.512  0.00  0.00     0.092 H 
ATOM    158  H   IDS d 305      19.083   6.339  16.443  0.00  0.00     0.210 HD
ENDROOT
TORSDOF 49
ENDMDL
MODEL 49
REMARK VINA RESULT:      -4.5      2.991     15.238
REMARK  0 active torsions:
REMARK  status: ('A' for Active; 'I' for Inactive)
REMARK       I    between atoms: N_1  and  C2_65 
REMARK       I    between atoms: N_1  and  S1_100 
REMARK       I    between atoms: O2S_4  and  S1_36 
REMARK       I    between atoms: O2S_5  and  S1_100 
REMARK       I    between atoms: C5_7  and  C6_64 
REMARK       I    between atoms: O3_11  and  C3_17 
REMARK       I    between atoms: C1_12  and  O4_28 
REMARK       I    between atoms: C5_13  and  C6_35 
REMARK       I    between atoms: C5_14  and  C6_52 
REMARK       I    between atoms: O2S_16  and  S1_75 
REMARK       I    between atoms: C2_18  and  O2_63 
REMARK       I    between atoms: C5_19  and  C6_22 
REMARK       I    between atoms: O2_20  and  C2_53 
REMARK       I    between atoms: O2_20  and  S_86 
REMARK       I    between atoms: O4_21  and  C1_67 
REMARK       I    between atoms: O4_21  and  C4_48 
REMARK       I    between atoms: O3_26  and  C3_72 
REMARK       I    between atoms: O4_28  and  C4_71 
REMARK       I    between atoms: O3_30  and  C3_94 
REMARK       I    between atoms: N_33  and  C2_82 
REMARK       I    between atoms: N_33  and  S1_75 
REMARK       I    between atoms: C6_35  and  O6_59 
REMARK       I    between atoms: S1_36  and  N_37 
REMARK       I    between atoms: S1_36  and  O1S_89 
REMARK       I    between atoms: S1_36  and  O3S_97 
REMARK       I    between atoms: N_37  and  C2_78 
REMARK       I    between atoms: C3_38  and  O3_81 
REMARK       I    between atoms: O4_39  and  C1_85 
REMARK       I    between atoms: O4_39  and  C4_69 
REMARK       I    between atoms: O3_40  and  C3_47 
REMARK       I    between atoms: O4_41  and  C1_76 
REMARK       I    between atoms: O4_41  and  C4_43 
REMARK       I    between atoms: S2_44  and  O6_80 
REMARK       I    between atoms: S_46  and  O2_57 
REMARK       I    between atoms: O3S_49  and  S1_75 
REMARK       I    between atoms: C1_54  and  O4_96 
REMARK       I    between atoms: O2_57  and  C2_66 
REMARK       I    between atoms: O6_58  and  C6_64 
REMARK       I    between atoms: O6_58  and  S2_101 
REMARK       I    between atoms: O6_59  and  S2_73 
REMARK       I    between atoms: O3_61  and  C3_77 
REMARK       I    between atoms: O2_63  and  S_104 
REMARK       I    between atoms: S1_75  and  O1S_92 
REMARK       I    between atoms: O6_80  and  C6_88 
REMARK       I    between atoms: C5_83  and  C6_88 
REMARK       I    between atoms: O3S_84  and  S1_100 
REMARK       I    between atoms: C5_87  and  C6_103 
REMARK       I    between atoms: O1S_91  and  S1_100 
REMARK       I    between atoms: O4_96  and  C4_99 
ROOT
ATOM      1  N   SGN d 304      16.631   9.862   8.910  0.00  0.00    -0.210 NA
ATOM      2  O2S SGN d 304      14.707  11.163   9.807  0.00  0.00    -0.296 OA
ATOM      3  C5  SGN d 304      19.286  11.517  11.681  0.00  0.00     0.091 C 
ATOM      4  O5S SGN d 304      21.105  14.408  13.918  0.00  0.00    -0.572 OA
ATOM      5  O3  SGN d 304      19.137  11.038   7.960  0.00  0.00    -0.391 OA
ATOM      6  C3  SGN d 304      18.929  10.714   9.322  0.00  0.00     0.083 C 
ATOM      7  O4  SGN d 304      20.947  11.962   9.908  0.00  0.00    -0.348 OA
ATOM      8  O5  SGN d 304      17.903  11.378  11.944  0.00  0.00    -0.349 OA
ATOM      9  C4  SGN d 304      19.521  11.837  10.187  0.00  0.00     0.095 C 
ATOM     10  O4S SGN d 304      20.177  13.491  16.065  0.00  0.00    -0.572 OA
ATOM     11  O6S SGN d 304      18.888  14.898  14.623  0.00  0.00    -0.572 OA
ATOM     12  O6  SGN d 304      19.574  12.549  13.951  0.00  0.00    -0.254 OA
ATOM     13  C6  SGN d 304      19.771  12.721  12.554  0.00  0.00     0.067 C 
ATOM     14  C2  SGN d 304      17.416  10.768   9.673  0.00  0.00     0.081 C 
ATOM     15  O3S SGN d 304      15.573  11.799   7.632  0.00  0.00    -0.296 OA
ATOM     16  C1  SGN d 304      17.222  10.358  11.133  0.00  0.00     0.150 C 
ATOM     17  O1S SGN d 304      14.455   9.669   7.751  0.00  0.00    -0.296 OA
ATOM     18  S1  SGN d 304      15.210  10.606   8.530  0.00  0.00     0.156 S 
ATOM     19  S2  SGN d 304      20.014  13.862  14.686  0.00  0.00     0.251 S 
ATOM     20  H   SGN d 304      16.444   9.021   9.457  0.00  0.00     0.140 HD
ATOM     21  H   SGN d 304      15.365  11.774  10.175  0.00  0.00     0.231 HD
ATOM     22  H   SGN d 304      19.816  10.615  11.910  0.00  0.00     0.090 H 
ATOM     23  H   SGN d 304      18.769  10.338   7.401  0.00  0.00     0.210 HD
ATOM     24  H   SGN d 304      19.358   9.748   9.491  0.00  0.00     0.089 H 
ATOM     25  H   SGN d 304      19.042  12.765   9.956  0.00  0.00     0.091 H 
ATOM     26  H   SGN d 304      19.236  13.595  12.246  0.00  0.00     0.080 H 
ATOM     27  H   SGN d 304      20.827  12.802  12.403  0.00  0.00     0.080 H 
ATOM     28  H   SGN d 304      17.102  11.770   9.467  0.00  0.00     0.076 H 
ATOM     29  H   SGN d 304      16.086  12.445   8.143  0.00  0.00     0.231 HD
ATOM     30  H   SGN d 304      16.214  10.321  11.491  0.00  0.00     0.131 H 
ATOM     31  H   SGN d 304      14.215   8.908   8.302  0.00  0.00     0.231 HD
ATOM     32  O6S SGN d 306      22.319   3.406  11.440  0.00  0.00    -0.572 OA
ATOM     33  O5S SGN d 306      21.188   1.493  10.467  0.00  0.00    -0.572 OA
ATOM     34  O2S SGN d 306      18.200   5.204  18.243  0.00  0.00    -0.296 OA
ATOM     35  C1  SGN d 306      18.482   2.937  15.791  0.00  0.00     0.038 C 
ATOM     36  N   SGN d 306      16.612   3.893  16.932  0.00  0.00    -0.212 NA
ATOM     37  O3  SGN d 306      15.699   5.159  14.699  0.00  0.00    -0.391 OA
ATOM     38  S2  SGN d 306      21.765   1.993  11.715  0.00  0.00     0.251 S 
ATOM     39  C3  SGN d 306      16.655   4.097  14.581  0.00  0.00     0.081 C 
ATOM     40  O3S SGN d 306      16.344   6.433  17.249  0.00  0.00    -0.296 OA
ATOM     41  O4S SGN d 306      22.763   1.258  12.454  0.00  0.00    -0.572 OA
ATOM     42  O5  SGN d 306      19.377   3.095  14.681  0.00  0.00    -0.379 OA
ATOM     43  S1  SGN d 306      16.736   5.122  18.002  0.00  0.00     0.156 S 
ATOM     44  O6  SGN d 306      20.566   2.078  12.659  0.00  0.00    -0.254 OA
ATOM     45  C2  SGN d 306      17.473   4.062  15.825  0.00  0.00     0.054 C 
ATOM     46  C5  SGN d 306      18.649   3.140  13.435  0.00  0.00     0.087 C 
ATOM     47  C6  SGN d 306      19.735   3.243  12.370  0.00  0.00     0.067 C 
ATOM     48  O1S SGN d 306      15.771   4.812  19.068  0.00  0.00    -0.296 OA
ATOM     49  O4  SGN d 306      16.834   4.411  12.144  0.00  0.00    -0.348 OA
ATOM     50  C4  SGN d 306      17.625   4.324  13.413  0.00  0.00     0.095 C 
ATOM     51  H   SGN d 306      18.652   5.417  17.412  0.00  0.00     0.231 HD
ATOM     52  H   SGN d 306      17.966   2.004  15.696  0.00  0.00     0.077 H 
ATOM     53  H   SGN d 306      19.051   2.954  16.698  0.00  0.00     0.077 H 
ATOM     54  H   SGN d 306      16.851   3.021  17.404  0.00  0.00     0.140 HD
ATOM     55  H   SGN d 306      15.107   4.978  15.446  0.00  0.00     0.210 HD
ATOM     56  H   SGN d 306      16.115   3.188  14.415  0.00  0.00     0.089 H 
ATOM     57  H   SGN d 306      16.995   6.614  16.553  0.00  0.00     0.231 HD
ATOM     58  H   SGN d 306      18.011   4.982  15.906  0.00  0.00     0.072 H 
ATOM     59  H   SGN d 306      18.037   2.277  13.270  0.00  0.00     0.090 H 
ATOM     60  H   SGN d 306      19.319   3.186  11.386  0.00  0.00     0.080 H 
ATOM     61  H   SGN d 306      20.271   4.168  12.392  0.00  0.00     0.080 H 
ATOM     62  H   SGN d 306      16.038   3.996  19.519  0.00  0.00     0.231 HD
ATOM     63  H   SGN d 306      18.172   5.240  13.493  0.00  0.00     0.091 H 
ATOM     64  O6S SGN d 302      23.559  16.963   0.886  0.00  0.00    -0.572 OA
ATOM     65  O2S SGN d 302      26.343  14.211   8.224  0.00  0.00    -0.296 OA
ATOM     66  O5S SGN d 302      21.591  18.270   1.441  0.00  0.00    -0.572 OA
ATOM     67  C5  SGN d 302      23.285  17.331   5.118  0.00  0.00     0.091 C 
ATOM     68  O4  SGN d 302      23.554  19.740   5.286  0.00  0.00    -0.348 OA
ATOM     69  O3  SGN d 302      25.189  19.264   7.737  0.00  0.00    -0.391 OA
ATOM     70  C6  SGN d 302      23.053  17.529   3.608  0.00  0.00     0.067 C 
ATOM     71  S1  SGN d 302      26.613  15.360   9.047  0.00  0.00     0.156 S 
ATOM     72  N   SGN d 302      25.425  16.527   8.722  0.00  0.00    -0.210 NA
ATOM     73  O4S SGN d 302      21.504  15.783   0.875  0.00  0.00    -0.572 OA
ATOM     74  O6  SGN d 302      22.231  16.553   3.022  0.00  0.00    -0.254 OA
ATOM     75  O5  SGN d 302      23.912  16.010   5.358  0.00  0.00    -0.349 OA
ATOM     76  C4  SGN d 302      24.182  18.458   5.634  0.00  0.00     0.095 C 
ATOM     77  S2  SGN d 302      22.148  16.906   1.495  0.00  0.00     0.251 S 
ATOM     78  C1  SGN d 302      24.298  15.726   6.768  0.00  0.00     0.150 C 
ATOM     79  C2  SGN d 302      25.114  16.890   7.341  0.00  0.00     0.081 C 
ATOM     80  O1S SGN d 302      26.621  15.277  10.483  0.00  0.00    -0.296 OA
ATOM     81  C3  SGN d 302      24.374  18.239   7.180  0.00  0.00     0.083 C 
ATOM     82  O3S SGN d 302      27.981  15.812   8.562  0.00  0.00    -0.296 OA
ATOM     83  H   SGN d 302      25.477  13.842   8.459  0.00  0.00     0.231 HD
ATOM     84  H   SGN d 302      22.351  17.359   5.640  0.00  0.00     0.090 H 
ATOM     85  H   SGN d 302      24.741  20.120   7.645  0.00  0.00     0.210 HD
ATOM     86  H   SGN d 302      24.003  17.508   3.116  0.00  0.00     0.080 H 
ATOM     87  H   SGN d 302      22.549  18.466   3.493  0.00  0.00     0.080 H 
ATOM     88  H   SGN d 302      25.717  17.383   9.193  0.00  0.00     0.140 HD
ATOM     89  H   SGN d 302      25.156  18.463   5.188  0.00  0.00     0.091 H 
ATOM     90  H   SGN d 302      24.883  14.833   6.701  0.00  0.00     0.131 H 
ATOM     91  H   SGN d 302      26.027  17.047   6.806  0.00  0.00     0.076 H 
ATOM     92  H   SGN d 302      25.749  14.988  10.794  0.00  0.00     0.231 HD
ATOM     93  H   SGN d 302      23.427  18.252   7.678  0.00  0.00     0.089 H 
ATOM     94  H   SGN d 302      27.978  15.869   7.593  0.00  0.00     0.231 HD
ATOM     95  O5  IDS d 303      20.975  14.302   9.176  0.00  0.00    -0.340 OA
ATOM     96  O2S IDS d 303      23.141  12.998  12.774  0.00  0.00    -0.572 OA
ATOM     97  O4  IDS d 303      23.228  15.396   7.669  0.00  0.00    -0.348 OA
ATOM     98  O1S IDS d 303      24.395  15.171  12.891  0.00  0.00    -0.572 OA
ATOM     99  C4  IDS d 303      22.769  14.054   7.499  0.00  0.00     0.103 C 
ATOM    100  S   IDS d 303      24.081  13.955  12.227  0.00  0.00     0.252 S 
ATOM    101  O2  IDS d 303      23.515  14.365  10.758  0.00  0.00    -0.244 OA
ATOM    102  O3  IDS d 303      22.926  11.726   8.004  0.00  0.00    -0.390 OA
ATOM    103  O61 IDS d 303      20.016  16.134   7.297  0.00  0.00    -0.646 OA
ATOM    104  C2  IDS d 303      23.057  13.153  10.004  0.00  0.00     0.134 C 
ATOM    105  C1  IDS d 303      21.526  13.256  10.086  0.00  0.00     0.161 C 
ATOM    106  O3S IDS d 303      25.413  13.204  12.090  0.00  0.00    -0.572 OA
ATOM    107  C3  IDS d 303      23.457  12.992   8.433  0.00  0.00     0.094 C 
ATOM    108  C5  IDS d 303      21.253  14.063   7.741  0.00  0.00     0.152 C 
ATOM    109  O62 IDS d 303      20.829  15.119   5.507  0.00  0.00    -0.646 OA
ATOM    110  C6  IDS d 303      20.642  15.180   6.828  0.00  0.00     0.206 C 
ATOM    111  H   IDS d 303      23.029  13.745   6.508  0.00  0.00     0.092 H 
ATOM    112  H   IDS d 303      23.141  11.586   7.069  0.00  0.00     0.210 HD
ATOM    113  H   IDS d 303      23.541  12.308  10.447  0.00  0.00     0.097 H 
ATOM    114  H   IDS d 303      21.251  13.593  11.063  0.00  0.00     0.133 H 
ATOM    115  H   IDS d 303      24.519  13.100   8.361  0.00  0.00     0.091 H 
ATOM    116  H   IDS d 303      20.810  13.122   7.493  0.00  0.00     0.104 H 
ATOM    117  C1  UAP d 301      22.357  20.263   5.831  0.00  0.00     0.167 C 
ATOM    118  C5  UAP d 301      21.649  22.041   7.244  0.00  0.00     0.147 C 
ATOM    119  O61 UAP d 301      21.063  23.529   9.046  0.00  0.00    -0.642 OA
ATOM    120  C2  UAP d 301      21.574  20.964   4.630  0.00  0.00     0.135 C 
ATOM    121  O62 UAP d 301      23.093  22.567   9.208  0.00  0.00    -0.642 OA
ATOM    122  O3  UAP d 301      19.288  20.397   5.420  0.00  0.00    -0.389 OA
ATOM    123  O5  UAP d 301      22.681  21.243   6.848  0.00  0.00    -0.311 OA
ATOM    124  C6  UAP d 301      21.901  22.762   8.554  0.00  0.00     0.233 C 
ATOM    125  O2  UAP d 301      22.351  22.122   4.037  0.00  0.00    -0.244 OA
ATOM    126  C3  UAP d 301      20.206  21.505   5.221  0.00  0.00     0.086 C 
ATOM    127  O2S UAP d 301      23.705  20.506   2.773  0.00  0.00    -0.572 OA
ATOM    128  C4  UAP d 301      20.476  22.221   6.574  0.00  0.00    -0.034 C 
ATOM    129  O3S UAP d 301      21.796  21.473   1.579  0.00  0.00    -0.572 OA
ATOM    130  O1S UAP d 301      23.659  22.953   2.071  0.00  0.00    -0.572 OA
ATOM    131  S   UAP d 301      22.963  21.769   2.572  0.00  0.00     0.252 S 
ATOM    132  H   UAP d 301      21.762  19.496   6.280  0.00  0.00     0.134 H 
ATOM    133  H   UAP d 301      21.424  20.251   3.845  0.00  0.00     0.097 H 
ATOM    134  H   UAP d 301      19.125  19.955   4.572  0.00  0.00     0.210 HD
ATOM    135  H   UAP d 301      19.769  22.201   4.535  0.00  0.00     0.093 H 
ATOM    136  H   UAP d 301      19.755  22.844   6.972  0.00  0.00     0.085 H 
ATOM    137  C5  IDS d 305      18.300   6.965  12.519  0.00  0.00     0.152 C 
ATOM    138  O2  IDS d 305      16.366   6.958   9.427  0.00  0.00    -0.244 OA
ATOM    139  C6  IDS d 305      19.641   7.588  12.844  0.00  0.00     0.206 C 
ATOM    140  O61 IDS d 305      20.638   7.345  12.153  0.00  0.00    -0.646 OA
ATOM    141  O2S IDS d 305      15.809   4.834   8.318  0.00  0.00    -0.572 OA
ATOM    142  O62 IDS d 305      19.730   8.395  13.913  0.00  0.00    -0.646 OA
ATOM    143  O5  IDS d 305      18.439   6.096  11.336  0.00  0.00    -0.340 OA
ATOM    144  C3  IDS d 305      15.840   7.403  11.861  0.00  0.00     0.094 C 
ATOM    145  O4  IDS d 305      17.777   8.969  11.226  0.00  0.00    -0.348 OA
ATOM    146  O1S IDS d 305      15.914   6.958   7.024  0.00  0.00    -0.572 OA
ATOM    147  C2  IDS d 305      16.014   6.336  10.698  0.00  0.00     0.134 C 
ATOM    148  C1  IDS d 305      17.189   5.360  11.055  0.00  0.00     0.161 C 
ATOM    149  C4  IDS d 305      17.238   8.091  12.252  0.00  0.00     0.103 C 
ATOM    150  O3  IDS d 305      15.408   6.672  12.991  0.00  0.00    -0.390 OA
ATOM    151  S   IDS d 305      15.548   6.264   8.233  0.00  0.00     0.252 S 
ATOM    152  O3S IDS d 305      14.045   6.492   8.501  0.00  0.00    -0.572 OA
ATOM    153  H   IDS d 305      17.968   6.375  13.348  0.00  0.00     0.104 H 
ATOM    154  H   IDS d 305      15.162   8.169  11.547  0.00  0.00     0.091 H 
ATOM    155  H   IDS d 305      15.076   5.828  10.605  0.00  0.00     0.097 H 
ATOM    156  H   IDS d 305      17.366   4.758  10.188  0.00  0.00     0.133 H 
ATOM    157  H   IDS d 305      17.042   8.691  13.116  0.00  0.00     0.092 H 
ATOM    158  H   IDS d 305      16.071   6.000  13.214  0.00  0.00     0.210 HD
ENDROOT
TORSDOF 49
ENDMDL
MODEL 50
REMARK VINA RESULT:      -4.5      4.292     15.042
REMARK  0 active torsions:
REMARK  status: ('A' for Active; 'I' for Inactive)
REMARK       I    between atoms: N_1  and  C2_65 
REMARK       I    between atoms: N_1  and  S1_100 
REMARK       I    between atoms: O2S_4  and  S1_36 
REMARK       I    between atoms: O2S_5  and  S1_100 
REMARK       I    between atoms: C5_7  and  C6_64 
REMARK       I    between atoms: O3_11  and  C3_17 
REMARK       I    between atoms: C1_12  and  O4_28 
REMARK       I    between atoms: C5_13  and  C6_35 
REMARK       I    between atoms: C5_14  and  C6_52 
REMARK       I    between atoms: O2S_16  and  S1_75 
REMARK       I    between atoms: C2_18  and  O2_63 
REMARK       I    between atoms: C5_19  and  C6_22 
REMARK       I    between atoms: O2_20  and  C2_53 
REMARK       I    between atoms: O2_20  and  S_86 
REMARK       I    between atoms: O4_21  and  C1_67 
REMARK       I    between atoms: O4_21  and  C4_48 
REMARK       I    between atoms: O3_26  and  C3_72 
REMARK       I    between atoms: O4_28  and  C4_71 
REMARK       I    between atoms: O3_30  and  C3_94 
REMARK       I    between atoms: N_33  and  C2_82 
REMARK       I    between atoms: N_33  and  S1_75 
REMARK       I    between atoms: C6_35  and  O6_59 
REMARK       I    between atoms: S1_36  and  N_37 
REMARK       I    between atoms: S1_36  and  O1S_89 
REMARK       I    between atoms: S1_36  and  O3S_97 
REMARK       I    between atoms: N_37  and  C2_78 
REMARK       I    between atoms: C3_38  and  O3_81 
REMARK       I    between atoms: O4_39  and  C1_85 
REMARK       I    between atoms: O4_39  and  C4_69 
REMARK       I    between atoms: O3_40  and  C3_47 
REMARK       I    between atoms: O4_41  and  C1_76 
REMARK       I    between atoms: O4_41  and  C4_43 
REMARK       I    between atoms: S2_44  and  O6_80 
REMARK       I    between atoms: S_46  and  O2_57 
REMARK       I    between atoms: O3S_49  and  S1_75 
REMARK       I    between atoms: C1_54  and  O4_96 
REMARK       I    between atoms: O2_57  and  C2_66 
REMARK       I    between atoms: O6_58  and  C6_64 
REMARK       I    between atoms: O6_58  and  S2_101 
REMARK       I    between atoms: O6_59  and  S2_73 
REMARK       I    between atoms: O3_61  and  C3_77 
REMARK       I    between atoms: O2_63  and  S_104 
REMARK       I    between atoms: S1_75  and  O1S_92 
REMARK       I    between atoms: O6_80  and  C6_88 
REMARK       I    between atoms: C5_83  and  C6_88 
REMARK       I    between atoms: O3S_84  and  S1_100 
REMARK       I    between atoms: C5_87  and  C6_103 
REMARK       I    between atoms: O1S_91  and  S1_100 
REMARK       I    between atoms: O4_96  and  C4_99 
ROOT
ATOM      1  N   SGN d 304      22.322   6.184   9.945  0.00  0.00    -0.210 NA
ATOM      2  O2S SGN d 304      20.251   5.460   8.769  0.00  0.00    -0.296 OA
ATOM      3  C5  SGN d 304      20.324   9.239  11.981  0.00  0.00     0.091 C 
ATOM      4  O5S SGN d 304      17.811  12.412  12.523  0.00  0.00    -0.572 OA
ATOM      5  O3  SGN d 304      23.413   8.900   9.874  0.00  0.00    -0.391 OA
ATOM      6  C3  SGN d 304      22.434   8.509  10.819  0.00  0.00     0.083 C 
ATOM      7  O4  SGN d 304      22.107  10.854  11.422  0.00  0.00    -0.348 OA
ATOM      8  O5  SGN d 304      19.672   8.061  11.548  0.00  0.00    -0.349 OA
ATOM      9  C4  SGN d 304      21.419   9.651  10.970  0.00  0.00     0.095 C 
ATOM     10  O4S SGN d 304      16.247  11.072  13.962  0.00  0.00    -0.572 OA
ATOM     11  O6S SGN d 304      16.186  10.958  11.574  0.00  0.00    -0.572 OA
ATOM     12  O6  SGN d 304      18.144  10.058  12.915  0.00  0.00    -0.254 OA
ATOM     13  C6  SGN d 304      19.221  10.346  12.036  0.00  0.00     0.067 C 
ATOM     14  C2  SGN d 304      21.567   7.346  10.259  0.00  0.00     0.081 C 
ATOM     15  O3S SGN d 304      21.955   6.577   7.452  0.00  0.00    -0.296 OA
ATOM     16  C1  SGN d 304      20.560   6.911  11.324  0.00  0.00     0.150 C 
ATOM     17  O1S SGN d 304      22.510   4.379   8.265  0.00  0.00    -0.296 OA
ATOM     18  S1  SGN d 304      21.715   5.536   8.557  0.00  0.00     0.156 S 
ATOM     19  S2  SGN d 304      17.077  11.201  12.796  0.00  0.00     0.251 S 
ATOM     20  H   SGN d 304      22.247   5.507  10.704  0.00  0.00     0.140 HD
ATOM     21  H   SGN d 304      19.904   6.347   8.952  0.00  0.00     0.231 HD
ATOM     22  H   SGN d 304      20.795   9.093  12.931  0.00  0.00     0.090 H 
ATOM     23  H   SGN d 304      24.063   8.188   9.767  0.00  0.00     0.210 HD
ATOM     24  H   SGN d 304      22.946   8.245  11.720  0.00  0.00     0.089 H 
ATOM     25  H   SGN d 304      20.955   9.853  10.027  0.00  0.00     0.091 H 
ATOM     26  H   SGN d 304      18.825  10.473  11.050  0.00  0.00     0.080 H 
ATOM     27  H   SGN d 304      19.694  11.230  12.412  0.00  0.00     0.080 H 
ATOM     28  H   SGN d 304      21.109   7.724   9.369  0.00  0.00     0.076 H 
ATOM     29  H   SGN d 304      21.424   7.369   7.632  0.00  0.00     0.231 HD
ATOM     30  H   SGN d 304      19.922   6.090  11.074  0.00  0.00     0.131 H 
ATOM     31  H   SGN d 304      22.371   3.709   8.953  0.00  0.00     0.231 HD
ATOM     32  O6S SGN d 306      25.707   6.612  18.239  0.00  0.00    -0.572 OA
ATOM     33  O5S SGN d 306      27.001   4.559  18.233  0.00  0.00    -0.572 OA
ATOM     34  O2S SGN d 306      17.955   4.351  19.370  0.00  0.00    -0.296 OA
ATOM     35  C1  SGN d 306      21.110   3.220  19.351  0.00  0.00     0.038 C 
ATOM     36  N   SGN d 306      19.041   2.320  18.563  0.00  0.00    -0.212 NA
ATOM     37  O3  SGN d 306      19.809   2.429  15.952  0.00  0.00    -0.391 OA
ATOM     38  S2  SGN d 306      25.993   5.297  18.994  0.00  0.00     0.251 S 
ATOM     39  C3  SGN d 306      20.791   2.526  16.992  0.00  0.00     0.081 C 
ATOM     40  O3S SGN d 306      17.422   3.673  17.090  0.00  0.00    -0.296 OA
ATOM     41  O4S SGN d 306      26.157   5.612  20.392  0.00  0.00    -0.572 OA
ATOM     42  O5  SGN d 306      22.232   4.043  19.002  0.00  0.00    -0.379 OA
ATOM     43  S1  SGN d 306      17.637   3.156  18.548  0.00  0.00     0.156 S 
ATOM     44  O6  SGN d 306      24.764   4.388  18.942  0.00  0.00    -0.254 OA
ATOM     45  C2  SGN d 306      20.143   3.122  18.194  0.00  0.00     0.054 C 
ATOM     46  C5  SGN d 306      22.910   3.524  17.838  0.00  0.00     0.087 C 
ATOM     47  C6  SGN d 306      24.097   4.461  17.646  0.00  0.00     0.067 C 
ATOM     48  O1S SGN d 306      16.598   2.184  18.925  0.00  0.00    -0.296 OA
ATOM     49  O4  SGN d 306      22.603   2.909  15.367  0.00  0.00    -0.348 OA
ATOM     50  C4  SGN d 306      21.951   3.452  16.602  0.00  0.00     0.095 C 
ATOM     51  H   SGN d 306      18.666   4.855  18.944  0.00  0.00     0.231 HD
ATOM     52  H   SGN d 306      21.458   2.240  19.603  0.00  0.00     0.077 H 
ATOM     53  H   SGN d 306      20.606   3.659  20.187  0.00  0.00     0.077 H 
ATOM     54  H   SGN d 306      19.199   1.958  19.504  0.00  0.00     0.140 HD
ATOM     55  H   SGN d 306      19.095   1.837  16.236  0.00  0.00     0.210 HD
ATOM     56  H   SGN d 306      21.172   1.543  17.173  0.00  0.00     0.089 H 
ATOM     57  H   SGN d 306      18.118   4.310  16.866  0.00  0.00     0.231 HD
ATOM     58  H   SGN d 306      19.820   4.113  17.952  0.00  0.00     0.072 H 
ATOM     59  H   SGN d 306      23.241   2.513  17.957  0.00  0.00     0.090 H 
ATOM     60  H   SGN d 306      24.737   4.119  16.860  0.00  0.00     0.080 H 
ATOM     61  H   SGN d 306      23.816   5.455  17.364  0.00  0.00     0.080 H 
ATOM     62  H   SGN d 306      16.755   1.880  19.834  0.00  0.00     0.231 HD
ATOM     63  H   SGN d 306      21.635   4.446  16.366  0.00  0.00     0.091 H 
ATOM     64  O6S SGN d 302      27.624  16.178   4.044  0.00  0.00    -0.572 OA
ATOM     65  O2S SGN d 302      24.315  16.518  11.666  0.00  0.00    -0.296 OA
ATOM     66  O5S SGN d 302      25.801  15.429   2.629  0.00  0.00    -0.572 OA
ATOM     67  C5  SGN d 302      24.034  16.106   6.329  0.00  0.00     0.091 C 
ATOM     68  O4  SGN d 302      22.798  17.803   5.107  0.00  0.00    -0.348 OA
ATOM     69  O3  SGN d 302      21.734  18.746   7.732  0.00  0.00    -0.391 OA
ATOM     70  C6  SGN d 302      25.027  16.076   5.151  0.00  0.00     0.067 C 
ATOM     71  S1  SGN d 302      23.198  17.424  11.617  0.00  0.00     0.156 S 
ATOM     72  N   SGN d 302      22.424  17.219  10.121  0.00  0.00    -0.210 NA
ATOM     73  O4S SGN d 302      27.455  13.834   3.739  0.00  0.00    -0.572 OA
ATOM     74  O6  SGN d 302      25.666  14.839   4.972  0.00  0.00    -0.254 OA
ATOM     75  O5  SGN d 302      24.742  15.778   7.588  0.00  0.00    -0.349 OA
ATOM     76  C4  SGN d 302      23.403  17.498   6.410  0.00  0.00     0.095 C 
ATOM     77  S2  SGN d 302      26.649  15.023   3.763  0.00  0.00     0.251 S 
ATOM     78  C1  SGN d 302      23.928  15.877   8.831  0.00  0.00     0.150 C 
ATOM     79  C2  SGN d 302      23.203  17.226   8.885  0.00  0.00     0.081 C 
ATOM     80  O1S SGN d 302      22.122  17.350  12.568  0.00  0.00    -0.296 OA
ATOM     81  C3  SGN d 302      22.377  17.483   7.604  0.00  0.00     0.083 C 
ATOM     82  O3S SGN d 302      23.863  18.788  11.714  0.00  0.00    -0.296 OA
ATOM     83  H   SGN d 302      23.993  15.604  11.610  0.00  0.00     0.231 HD
ATOM     84  H   SGN d 302      23.263  15.380   6.178  0.00  0.00     0.090 H 
ATOM     85  H   SGN d 302      21.210  18.924   6.935  0.00  0.00     0.210 HD
ATOM     86  H   SGN d 302      25.777  16.820   5.326  0.00  0.00     0.080 H 
ATOM     87  H   SGN d 302      24.459  16.263   4.264  0.00  0.00     0.080 H 
ATOM     88  H   SGN d 302      21.737  17.968  10.041  0.00  0.00     0.140 HD
ATOM     89  H   SGN d 302      24.113  18.275   6.609  0.00  0.00     0.091 H 
ATOM     90  H   SGN d 302      24.647  15.785   9.619  0.00  0.00     0.131 H 
ATOM     91  H   SGN d 302      23.885  18.051   8.907  0.00  0.00     0.076 H 
ATOM     92  H   SGN d 302      21.697  16.480  12.508  0.00  0.00     0.231 HD
ATOM     93  H   SGN d 302      21.628  16.736   7.440  0.00  0.00     0.089 H 
ATOM     94  H   SGN d 302      24.590  18.840  11.073  0.00  0.00     0.231 HD
ATOM     95  O5  IDS d 303      21.517  12.338   9.561  0.00  0.00    -0.340 OA
ATOM     96  O2S IDS d 303      20.172  13.162  13.666  0.00  0.00    -0.572 OA
ATOM     97  O4  IDS d 303      22.990  14.814   9.067  0.00  0.00    -0.348 OA
ATOM     98  O1S IDS d 303      19.462  15.488  13.039  0.00  0.00    -0.572 OA
ATOM     99  C4  IDS d 303      23.622  13.627   9.548  0.00  0.00     0.103 C 
ATOM    100  S   IDS d 303      20.472  14.503  13.207  0.00  0.00     0.252 S 
ATOM    101  O2  IDS d 303      21.202  14.341  11.762  0.00  0.00    -0.244 OA
ATOM    102  O3  IDS d 303      24.452  12.301  11.351  0.00  0.00    -0.390 OA
ATOM    103  O61 IDS d 303      21.709  12.754   6.805  0.00  0.00    -0.646 OA
ATOM    104  C2  IDS d 303      22.226  13.247  11.799  0.00  0.00     0.134 C 
ATOM    105  C1  IDS d 303      21.538  12.106  11.034  0.00  0.00     0.161 C 
ATOM    106  O3S IDS d 303      21.453  15.087  14.233  0.00  0.00    -0.572 OA
ATOM    107  C3  IDS d 303      23.682  13.493  11.113  0.00  0.00     0.094 C 
ATOM    108  C5  IDS d 303      22.861  12.437   8.946  0.00  0.00     0.152 C 
ATOM    109  O62 IDS d 303      23.919  12.801   6.702  0.00  0.00    -0.646 OA
ATOM    110  C6  IDS d 303      22.786  12.666   7.398  0.00  0.00     0.206 C 
ATOM    111  H   IDS d 303      24.648  13.660   9.244  0.00  0.00     0.092 H 
ATOM    112  H   IDS d 303      25.333  12.402  10.958  0.00  0.00     0.210 HD
ATOM    113  H   IDS d 303      22.484  13.096  12.827  0.00  0.00     0.097 H 
ATOM    114  H   IDS d 303      20.503  12.079  11.305  0.00  0.00     0.133 H 
ATOM    115  H   IDS d 303      24.083  14.395  11.526  0.00  0.00     0.091 H 
ATOM    116  H   IDS d 303      23.360  11.512   9.143  0.00  0.00     0.104 H 
ATOM    117  C1  UAP d 301      21.663  17.176   4.540  0.00  0.00     0.167 C 
ATOM    118  C5  UAP d 301      19.404  17.691   3.997  0.00  0.00     0.147 C 
ATOM    119  O61 UAP d 301      17.034  18.115   3.933  0.00  0.00    -0.642 OA
ATOM    120  C2  UAP d 301      21.957  17.018   2.980  0.00  0.00     0.135 C 
ATOM    121  O62 UAP d 301      18.149  19.112   5.617  0.00  0.00    -0.642 OA
ATOM    122  O3  UAP d 301      20.768  14.856   2.691  0.00  0.00    -0.389 OA
ATOM    123  O5  UAP d 301      20.499  18.016   4.742  0.00  0.00    -0.311 OA
ATOM    124  C6  UAP d 301      18.115  18.309   4.503  0.00  0.00     0.233 C 
ATOM    125  O2  UAP d 301      22.130  18.356   2.290  0.00  0.00    -0.244 OA
ATOM    126  C3  UAP d 301      20.712  16.266   2.347  0.00  0.00     0.086 C 
ATOM    127  O2S UAP d 301      24.433  18.446   3.147  0.00  0.00    -0.572 OA
ATOM    128  C4  UAP d 301      19.398  16.894   2.891  0.00  0.00    -0.034 C 
ATOM    129  O3S UAP d 301      24.167  17.568   0.875  0.00  0.00    -0.572 OA
ATOM    130  O1S UAP d 301      23.738  19.937   1.203  0.00  0.00    -0.572 OA
ATOM    131  S   UAP d 301      23.680  18.648   1.891  0.00  0.00     0.252 S 
ATOM    132  H   UAP d 301      21.474  16.225   4.993  0.00  0.00     0.134 H 
ATOM    133  H   UAP d 301      22.870  16.475   2.848  0.00  0.00     0.097 H 
ATOM    134  H   UAP d 301      21.590  14.472   2.348  0.00  0.00     0.210 HD
ATOM    135  H   UAP d 301      20.736  16.366   1.282  0.00  0.00     0.093 H 
ATOM    136  H   UAP d 301      18.507  16.705   2.408  0.00  0.00     0.085 H 
ATOM    137  C5  IDS d 305      21.580   5.633  14.777  0.00  0.00     0.152 C 
ATOM    138  O2  IDS d 305      23.273   4.170  11.896  0.00  0.00    -0.244 OA
ATOM    139  C6  IDS d 305      21.516   7.066  15.263  0.00  0.00     0.206 C 
ATOM    140  O61 IDS d 305      22.550   7.712  15.469  0.00  0.00    -0.646 OA
ATOM    141  O2S IDS d 305      24.994   2.442  12.216  0.00  0.00    -0.572 OA
ATOM    142  O62 IDS d 305      20.311   7.613  15.486  0.00  0.00    -0.646 OA
ATOM    143  O5  IDS d 305      22.990   5.228  14.633  0.00  0.00    -0.340 OA
ATOM    144  C3  IDS d 305      20.954   3.984  12.888  0.00  0.00     0.094 C 
ATOM    145  O4  IDS d 305      21.390   6.487  12.497  0.00  0.00    -0.348 OA
ATOM    146  O1S IDS d 305      24.980   3.863  10.173  0.00  0.00    -0.572 OA
ATOM    147  C2  IDS d 305      22.461   3.484  12.894  0.00  0.00     0.134 C 
ATOM    148  C1  IDS d 305      23.111   3.797  14.287  0.00  0.00     0.161 C 
ATOM    149  C4  IDS d 305      20.827   5.500  13.405  0.00  0.00     0.103 C 
ATOM    150  O3  IDS d 305      20.276   3.170  13.825  0.00  0.00    -0.390 OA
ATOM    151  S   IDS d 305      24.247   3.123  11.168  0.00  0.00     0.252 S 
ATOM    152  O3S IDS d 305      23.361   2.077  10.457  0.00  0.00    -0.572 OA
ATOM    153  H   IDS d 305      21.104   4.991  15.489  0.00  0.00     0.104 H 
ATOM    154  H   IDS d 305      20.561   3.931  11.894  0.00  0.00     0.091 H 
ATOM    155  H   IDS d 305      22.437   2.435  12.682  0.00  0.00     0.097 H 
ATOM    156  H   IDS d 305      24.155   3.581  14.198  0.00  0.00     0.133 H 
ATOM    157  H   IDS d 305      19.779   5.700  13.484  0.00  0.00     0.092 H 
ATOM    158  H   IDS d 305      20.686   3.272  14.697  0.00  0.00     0.210 HD
ENDROOT
TORSDOF 49
ENDMDL
MODEL 51
REMARK VINA RESULT:      -4.1      5.072      9.543
REMARK  0 active torsions:
REMARK  status: ('A' for Active; 'I' for Inactive)
REMARK       I    between atoms: N_1  and  C2_65 
REMARK       I    between atoms: N_1  and  S1_100 
REMARK       I    between atoms: O2S_4  and  S1_36 
REMARK       I    between atoms: O2S_5  and  S1_100 
REMARK       I    between atoms: C5_7  and  C6_64 
REMARK       I    between atoms: O3_11  and  C3_17 
REMARK       I    between atoms: C1_12  and  O4_28 
REMARK       I    between atoms: C5_13  and  C6_35 
REMARK       I    between atoms: C5_14  and  C6_52 
REMARK       I    between atoms: O2S_16  and  S1_75 
REMARK       I    between atoms: C2_18  and  O2_63 
REMARK       I    between atoms: C5_19  and  C6_22 
REMARK       I    between atoms: O2_20  and  C2_53 
REMARK       I    between atoms: O2_20  and  S_86 
REMARK       I    between atoms: O4_21  and  C1_67 
REMARK       I    between atoms: O4_21  and  C4_48 
REMARK       I    between atoms: O3_26  and  C3_72 
REMARK       I    between atoms: O4_28  and  C4_71 
REMARK       I    between atoms: O3_30  and  C3_94 
REMARK       I    between atoms: N_33  and  C2_82 
REMARK       I    between atoms: N_33  and  S1_75 
REMARK       I    between atoms: C6_35  and  O6_59 
REMARK       I    between atoms: S1_36  and  N_37 
REMARK       I    between atoms: S1_36  and  O1S_89 
REMARK       I    between atoms: S1_36  and  O3S_97 
REMARK       I    between atoms: N_37  and  C2_78 
REMARK       I    between atoms: C3_38  and  O3_81 
REMARK       I    between atoms: O4_39  and  C1_85 
REMARK       I    between atoms: O4_39  and  C4_69 
REMARK       I    between atoms: O3_40  and  C3_47 
REMARK       I    between atoms: O4_41  and  C1_76 
REMARK       I    between atoms: O4_41  and  C4_43 
REMARK       I    between atoms: S2_44  and  O6_80 
REMARK       I    between atoms: S_46  and  O2_57 
REMARK       I    between atoms: O3S_49  and  S1_75 
REMARK       I    between atoms: C1_54  and  O4_96 
REMARK       I    between atoms: O2_57  and  C2_66 
REMARK       I    between atoms: O6_58  and  C6_64 
REMARK       I    between atoms: O6_58  and  S2_101 
REMARK       I    between atoms: O6_59  and  S2_73 
REMARK       I    between atoms: O3_61  and  C3_77 
REMARK       I    between atoms: O2_63  and  S_104 
REMARK       I    between atoms: S1_75  and  O1S_92 
REMARK       I    between atoms: O6_80  and  C6_88 
REMARK       I    between atoms: C5_83  and  C6_88 
REMARK       I    between atoms: O3S_84  and  S1_100 
REMARK       I    between atoms: C5_87  and  C6_103 
REMARK       I    between atoms: O1S_91  and  S1_100 
REMARK       I    between atoms: O4_96  and  C4_99 
ROOT
ATOM      1  N   SGN d 304      20.137  14.576   6.298  0.00  0.00    -0.210 NA
ATOM      2  O2S SGN d 304      19.025  13.491   4.352  0.00  0.00    -0.296 OA
ATOM      3  C5  SGN d 304      19.098  11.453   8.874  0.00  0.00     0.091 C 
ATOM      4  O5S SGN d 304      16.733   8.628  10.634  0.00  0.00    -0.572 OA
ATOM      5  O3  SGN d 304      18.816  15.197   8.836  0.00  0.00    -0.391 OA
ATOM      6  C3  SGN d 304      19.406  13.935   8.586  0.00  0.00     0.083 C 
ATOM      7  O4  SGN d 304      18.320  13.052  10.588  0.00  0.00    -0.348 OA
ATOM      8  O5  SGN d 304      19.275  11.264   7.483  0.00  0.00    -0.349 OA
ATOM      9  C4  SGN d 304      18.486  12.845   9.155  0.00  0.00     0.095 C 
ATOM     10  O4S SGN d 304      18.055   6.737   9.639  0.00  0.00    -0.572 OA
ATOM     11  O6S SGN d 304      16.376   7.903   8.398  0.00  0.00    -0.572 OA
ATOM     12  O6  SGN d 304      18.547   9.015   9.096  0.00  0.00    -0.254 OA
ATOM     13  C6  SGN d 304      18.099  10.342   9.336  0.00  0.00     0.067 C 
ATOM     14  C2  SGN d 304      19.410  13.625   7.063  0.00  0.00     0.081 C 
ATOM     15  O3S SGN d 304      17.972  15.468   5.285  0.00  0.00    -0.296 OA
ATOM     16  C1  SGN d 304      20.104  12.283   6.824  0.00  0.00     0.150 C 
ATOM     17  O1S SGN d 304      20.072  15.813   4.157  0.00  0.00    -0.296 OA
ATOM     18  S1  SGN d 304      19.318  14.839   4.891  0.00  0.00     0.156 S 
ATOM     19  S2  SGN d 304      17.413   8.017   9.518  0.00  0.00     0.251 S 
ATOM     20  H   SGN d 304      21.069  14.216   6.093  0.00  0.00     0.140 HD
ATOM     21  H   SGN d 304      18.507  12.989   5.000  0.00  0.00     0.231 HD
ATOM     22  H   SGN d 304      20.032  11.396   9.394  0.00  0.00     0.090 H 
ATOM     23  H   SGN d 304      19.386  15.897   8.482  0.00  0.00     0.210 HD
ATOM     24  H   SGN d 304      20.390  13.952   9.006  0.00  0.00     0.089 H 
ATOM     25  H   SGN d 304      17.526  12.898   8.685  0.00  0.00     0.091 H 
ATOM     26  H   SGN d 304      17.176  10.483   8.813  0.00  0.00     0.080 H 
ATOM     27  H   SGN d 304      17.998  10.443  10.396  0.00  0.00     0.080 H 
ATOM     28  H   SGN d 304      18.385  13.633   6.758  0.00  0.00     0.076 H 
ATOM     29  H   SGN d 304      17.447  14.822   5.784  0.00  0.00     0.231 HD
ATOM     30  H   SGN d 304      20.203  11.969   5.805  0.00  0.00     0.131 H 
ATOM     31  H   SGN d 304      20.927  15.433   3.899  0.00  0.00     0.231 HD
ATOM     32  O6S SGN d 306      27.021  13.237  11.888  0.00  0.00    -0.572 OA
ATOM     33  O5S SGN d 306      28.688  14.608  10.780  0.00  0.00    -0.572 OA
ATOM     34  O2S SGN d 306      26.594   6.333   7.572  0.00  0.00    -0.296 OA
ATOM     35  C1  SGN d 306      28.323   9.182   7.921  0.00  0.00     0.038 C 
ATOM     36  N   SGN d 306      27.599   7.927   6.021  0.00  0.00    -0.212 NA
ATOM     37  O3  SGN d 306      25.901   9.884   5.179  0.00  0.00    -0.391 OA
ATOM     38  S2  SGN d 306      28.456  13.269  11.322  0.00  0.00     0.251 S 
ATOM     39  C3  SGN d 306      26.926  10.187   6.134  0.00  0.00     0.081 C 
ATOM     40  O3S SGN d 306      25.172   7.112   5.750  0.00  0.00    -0.296 OA
ATOM     41  O4S SGN d 306      29.333  12.665  12.294  0.00  0.00    -0.572 OA
ATOM     42  O5  SGN d 306      27.952  10.211   8.849  0.00  0.00    -0.379 OA
ATOM     43  S1  SGN d 306      26.612   6.627   6.116  0.00  0.00     0.156 S 
ATOM     44  O6  SGN d 306      28.552  12.362  10.095  0.00  0.00    -0.254 OA
ATOM     45  C2  SGN d 306      27.218   8.951   6.915  0.00  0.00     0.054 C 
ATOM     46  C5  SGN d 306      27.650  11.444   8.159  0.00  0.00     0.087 C 
ATOM     47  C6  SGN d 306      27.345  12.435   9.276  0.00  0.00     0.067 C 
ATOM     48  O1S SGN d 306      27.121   5.674   5.118  0.00  0.00    -0.296 OA
ATOM     49  O4  SGN d 306      26.129  12.504   6.387  0.00  0.00    -0.348 OA
ATOM     50  C4  SGN d 306      26.477  11.256   7.139  0.00  0.00     0.095 C 
ATOM     51  H   SGN d 306      26.221   7.090   8.050  0.00  0.00     0.231 HD
ATOM     52  H   SGN d 306      29.212   9.478   7.405  0.00  0.00     0.077 H 
ATOM     53  H   SGN d 306      28.493   8.275   8.462  0.00  0.00     0.077 H 
ATOM     54  H   SGN d 306      28.550   7.634   6.242  0.00  0.00     0.140 HD
ATOM     55  H   SGN d 306      26.223   9.206   4.564  0.00  0.00     0.210 HD
ATOM     56  H   SGN d 306      27.778  10.547   5.596  0.00  0.00     0.089 H 
ATOM     57  H   SGN d 306      24.861   7.738   6.423  0.00  0.00     0.231 HD
ATOM     58  H   SGN d 306      26.338   8.671   7.453  0.00  0.00     0.072 H 
ATOM     59  H   SGN d 306      28.456  11.796   7.549  0.00  0.00     0.090 H 
ATOM     60  H   SGN d 306      27.198  13.421   8.890  0.00  0.00     0.080 H 
ATOM     61  H   SGN d 306      26.448  12.210   9.815  0.00  0.00     0.080 H 
ATOM     62  H   SGN d 306      28.014   5.390   5.369  0.00  0.00     0.231 HD
ATOM     63  H   SGN d 306      25.600  10.977   7.686  0.00  0.00     0.091 H 
ATOM     64  O6S SGN d 302      11.628  20.801  13.486  0.00  0.00    -0.572 OA
ATOM     65  O2S SGN d 302      15.826  14.091  16.039  0.00  0.00    -0.296 OA
ATOM     66  O5S SGN d 302      10.442  20.051  11.506  0.00  0.00    -0.572 OA
ATOM     67  C5  SGN d 302      12.118  16.592  13.086  0.00  0.00     0.091 C 
ATOM     68  O4  SGN d 302       9.795  15.934  13.357  0.00  0.00    -0.348 OA
ATOM     69  O3  SGN d 302      10.769  13.583  14.917  0.00  0.00    -0.391 OA
ATOM     70  C6  SGN d 302      11.617  18.037  12.900  0.00  0.00     0.067 C 
ATOM     71  S1  SGN d 302      14.869  13.046  16.288  0.00  0.00     0.156 S 
ATOM     72  N   SGN d 302      13.650  13.164  15.114  0.00  0.00    -0.210 NA
ATOM     73  O4S SGN d 302      12.763  21.109  11.429  0.00  0.00    -0.572 OA
ATOM     74  O6  SGN d 302      12.448  18.831  12.093  0.00  0.00    -0.254 OA
ATOM     75  O5  SGN d 302      13.465  16.604  13.702  0.00  0.00    -0.349 OA
ATOM     76  C4  SGN d 302      11.125  15.833  13.971  0.00  0.00     0.095 C 
ATOM     77  S2  SGN d 302      11.793  20.257  12.057  0.00  0.00     0.251 S 
ATOM     78  C1  SGN d 302      14.031  15.270  14.044  0.00  0.00     0.150 C 
ATOM     79  C2  SGN d 302      13.013  14.451  14.846  0.00  0.00     0.081 C 
ATOM     80  O1S SGN d 302      15.241  11.657  16.253  0.00  0.00    -0.296 OA
ATOM     81  C3  SGN d 302      11.653  14.358  14.116  0.00  0.00     0.083 C 
ATOM     82  O3S SGN d 302      14.342  13.391  17.671  0.00  0.00    -0.296 OA
ATOM     83  H   SGN d 302      16.228  13.961  15.166  0.00  0.00     0.231 HD
ATOM     84  H   SGN d 302      12.187  16.102  12.137  0.00  0.00     0.090 H 
ATOM     85  H   SGN d 302       9.908  13.513  14.474  0.00  0.00     0.210 HD
ATOM     86  H   SGN d 302      11.548  18.495  13.864  0.00  0.00     0.080 H 
ATOM     87  H   SGN d 302      10.672  17.975  12.403  0.00  0.00     0.080 H 
ATOM     88  H   SGN d 302      12.909  12.522  15.395  0.00  0.00     0.140 HD
ATOM     89  H   SGN d 302      11.040  16.241  14.957  0.00  0.00     0.091 H 
ATOM     90  H   SGN d 302      14.898  15.499  14.628  0.00  0.00     0.131 H 
ATOM     91  H   SGN d 302      12.761  14.917  15.775  0.00  0.00     0.076 H 
ATOM     92  H   SGN d 302      15.578  11.435  15.371  0.00  0.00     0.231 HD
ATOM     93  H   SGN d 302      11.733  13.896  13.154  0.00  0.00     0.089 H 
ATOM     94  H   SGN d 302      14.091  14.328  17.698  0.00  0.00     0.231 HD
ATOM     95  O5  IDS d 303      15.880  13.295  10.646  0.00  0.00    -0.340 OA
ATOM     96  O2S IDS d 303      17.902   9.973  12.699  0.00  0.00    -0.572 OA
ATOM     97  O4  IDS d 303      14.526  14.486  12.947  0.00  0.00    -0.348 OA
ATOM     98  O1S IDS d 303      15.809   9.385  13.955  0.00  0.00    -0.572 OA
ATOM     99  C4  IDS d 303      15.802  14.936  12.489  0.00  0.00     0.103 C 
ATOM    100  S   IDS d 303      16.863  10.289  13.658  0.00  0.00     0.252 S 
ATOM    101  O2  IDS d 303      16.160  11.661  13.137  0.00  0.00    -0.244 OA
ATOM    102  O3  IDS d 303      18.185  14.906  12.623  0.00  0.00    -0.390 OA
ATOM    103  O61 IDS d 303      13.699  14.794   9.749  0.00  0.00    -0.646 OA
ATOM    104  C2  IDS d 303      17.191  12.657  12.698  0.00  0.00     0.134 C 
ATOM    105  C1  IDS d 303      17.094  12.600  11.166  0.00  0.00     0.161 C 
ATOM    106  O3S IDS d 303      17.583  10.536  14.991  0.00  0.00    -0.572 OA
ATOM    107  C3  IDS d 303      17.036  14.216  13.145  0.00  0.00     0.094 C 
ATOM    108  C5  IDS d 303      15.828  14.740  10.966  0.00  0.00     0.152 C 
ATOM    109  O62 IDS d 303      14.340  16.727  10.613  0.00  0.00    -0.646 OA
ATOM    110  C6  IDS d 303      14.544  15.427  10.386  0.00  0.00     0.206 C 
ATOM    111  H   IDS d 303      15.908  15.961  12.778  0.00  0.00     0.092 H 
ATOM    112  H   IDS d 303      18.136  15.844  12.866  0.00  0.00     0.210 HD
ATOM    113  H   IDS d 303      18.113  12.379  13.166  0.00  0.00     0.097 H 
ATOM    114  H   IDS d 303      16.958  11.583  10.863  0.00  0.00     0.133 H 
ATOM    115  H   IDS d 303      16.926  14.235  14.209  0.00  0.00     0.091 H 
ATOM    116  H   IDS d 303      16.696  15.186  10.527  0.00  0.00     0.104 H 
ATOM    117  C1  UAP d 301       9.381  15.329  12.146  0.00  0.00     0.167 C 
ATOM    118  C5  UAP d 301       7.917  13.607  11.402  0.00  0.00     0.147 C 
ATOM    119  O61 UAP d 301       6.818  11.560  10.766  0.00  0.00    -0.642 OA
ATOM    120  C2  UAP d 301       8.445  16.387  11.402  0.00  0.00     0.135 C 
ATOM    121  O62 UAP d 301       7.811  11.537  12.788  0.00  0.00    -0.642 OA
ATOM    122  O3  UAP d 301       9.139  15.793   9.091  0.00  0.00    -0.389 OA
ATOM    123  O5  UAP d 301       8.629  14.126  12.442  0.00  0.00    -0.311 OA
ATOM    124  C6  UAP d 301       7.477  12.172  11.616  0.00  0.00     0.233 C 
ATOM    125  O2  UAP d 301       7.198  16.710  12.199  0.00  0.00    -0.244 OA
ATOM    126  C3  UAP d 301       8.022  15.738  10.018  0.00  0.00     0.086 C 
ATOM    127  O2S UAP d 301       8.539  18.236  13.586  0.00  0.00    -0.572 OA
ATOM    128  C4  UAP d 301       7.595  14.261  10.249  0.00  0.00    -0.034 C 
ATOM    129  O3S UAP d 301       7.334  19.265  11.717  0.00  0.00    -0.572 OA
ATOM    130  O1S UAP d 301       6.000  18.430  13.568  0.00  0.00    -0.572 OA
ATOM    131  S   UAP d 301       7.255  18.199  12.854  0.00  0.00     0.252 S 
ATOM    132  H   UAP d 301      10.217  15.062  11.536  0.00  0.00     0.134 H 
ATOM    133  H   UAP d 301       8.984  17.302  11.273  0.00  0.00     0.097 H 
ATOM    134  H   UAP d 301       9.399  16.717   8.952  0.00  0.00     0.210 HD
ATOM    135  H   UAP d 301       7.199  16.282   9.604  0.00  0.00     0.093 H 
ATOM    136  H   UAP d 301       7.060  13.767   9.519  0.00  0.00     0.085 H 
ATOM    137  C5  IDS d 305      23.717  11.579   7.849  0.00  0.00     0.152 C 
ATOM    138  O2  IDS d 305      23.083  14.663   6.008  0.00  0.00    -0.244 OA
ATOM    139  C6  IDS d 305      23.183  11.096   9.182  0.00  0.00     0.206 C 
ATOM    140  O61 IDS d 305      23.291  11.793  10.198  0.00  0.00    -0.646 OA
ATOM    141  O2S IDS d 305      24.934  16.193   5.479  0.00  0.00    -0.572 OA
ATOM    142  O62 IDS d 305      22.610   9.885   9.241  0.00  0.00    -0.646 OA
ATOM    143  O5  IDS d 305      24.330  12.908   8.020  0.00  0.00    -0.340 OA
ATOM    144  C3  IDS d 305      23.132  12.206   5.412  0.00  0.00     0.094 C 
ATOM    145  O4  IDS d 305      21.488  12.456   7.372  0.00  0.00    -0.348 OA
ATOM    146  O1S IDS d 305      22.595  17.029   5.630  0.00  0.00    -0.572 OA
ATOM    147  C2  IDS d 305      23.945  13.554   5.617  0.00  0.00     0.134 C 
ATOM    148  C1  IDS d 305      24.984  13.368   6.778  0.00  0.00     0.161 C 
ATOM    149  C4  IDS d 305      22.550  11.644   6.799  0.00  0.00     0.103 C 
ATOM    150  O3  IDS d 305      24.072  11.259   4.944  0.00  0.00    -0.390 OA
ATOM    151  S   IDS d 305      23.514  15.996   5.225  0.00  0.00     0.252 S 
ATOM    152  O3S IDS d 305      23.332  15.731   3.715  0.00  0.00    -0.572 OA
ATOM    153  H   IDS d 305      24.458  10.896   7.491  0.00  0.00     0.104 H 
ATOM    154  H   IDS d 305      22.313  12.378   4.745  0.00  0.00     0.091 H 
ATOM    155  H   IDS d 305      24.415  13.775   4.681  0.00  0.00     0.097 H 
ATOM    156  H   IDS d 305      25.400  14.333   6.979  0.00  0.00     0.133 H 
ATOM    157  H   IDS d 305      22.135  10.683   6.579  0.00  0.00     0.092 H 
ATOM    158  H   IDS d 305      24.781  11.157   5.598  0.00  0.00     0.210 HD
ENDROOT
TORSDOF 49
ENDMDL
MODEL 52
REMARK VINA RESULT:      -4.0      5.856     12.768
REMARK  0 active torsions:
REMARK  status: ('A' for Active; 'I' for Inactive)
REMARK       I    between atoms: N_1  and  C2_65 
REMARK       I    between atoms: N_1  and  S1_100 
REMARK       I    between atoms: O2S_4  and  S1_36 
REMARK       I    between atoms: O2S_5  and  S1_100 
REMARK       I    between atoms: C5_7  and  C6_64 
REMARK       I    between atoms: O3_11  and  C3_17 
REMARK       I    between atoms: C1_12  and  O4_28 
REMARK       I    between atoms: C5_13  and  C6_35 
REMARK       I    between atoms: C5_14  and  C6_52 
REMARK       I    between atoms: O2S_16  and  S1_75 
REMARK       I    between atoms: C2_18  and  O2_63 
REMARK       I    between atoms: C5_19  and  C6_22 
REMARK       I    between atoms: O2_20  and  C2_53 
REMARK       I    between atoms: O2_20  and  S_86 
REMARK       I    between atoms: O4_21  and  C1_67 
REMARK       I    between atoms: O4_21  and  C4_48 
REMARK       I    between atoms: O3_26  and  C3_72 
REMARK       I    between atoms: O4_28  and  C4_71 
REMARK       I    between atoms: O3_30  and  C3_94 
REMARK       I    between atoms: N_33  and  C2_82 
REMARK       I    between atoms: N_33  and  S1_75 
REMARK       I    between atoms: C6_35  and  O6_59 
REMARK       I    between atoms: S1_36  and  N_37 
REMARK       I    between atoms: S1_36  and  O1S_89 
REMARK       I    between atoms: S1_36  and  O3S_97 
REMARK       I    between atoms: N_37  and  C2_78 
REMARK       I    between atoms: C3_38  and  O3_81 
REMARK       I    between atoms: O4_39  and  C1_85 
REMARK       I    between atoms: O4_39  and  C4_69 
REMARK       I    between atoms: O3_40  and  C3_47 
REMARK       I    between atoms: O4_41  and  C1_76 
REMARK       I    between atoms: O4_41  and  C4_43 
REMARK       I    between atoms: S2_44  and  O6_80 
REMARK       I    between atoms: S_46  and  O2_57 
REMARK       I    between atoms: O3S_49  and  S1_75 
REMARK       I    between atoms: C1_54  and  O4_96 
REMARK       I    between atoms: O2_57  and  C2_66 
REMARK       I    between atoms: O6_58  and  C6_64 
REMARK       I    between atoms: O6_58  and  S2_101 
REMARK       I    between atoms: O6_59  and  S2_73 
REMARK       I    between atoms: O3_61  and  C3_77 
REMARK       I    between atoms: O2_63  and  S_104 
REMARK       I    between atoms: S1_75  and  O1S_92 
REMARK       I    between atoms: O6_80  and  C6_88 
REMARK       I    between atoms: C5_83  and  C6_88 
REMARK       I    between atoms: O3S_84  and  S1_100 
REMARK       I    between atoms: C5_87  and  C6_103 
REMARK       I    between atoms: O1S_91  and  S1_100 
REMARK       I    between atoms: O4_96  and  C4_99 
ROOT
ATOM      1  N   SGN d 304      17.210  13.645  10.539  0.00  0.00    -0.210 NA
ATOM      2  O2S SGN d 304      18.778  15.485  11.134  0.00  0.00    -0.296 OA
ATOM      3  C5  SGN d 304      18.039  11.546  14.057  0.00  0.00     0.091 C 
ATOM      4  O5S SGN d 304      20.290   9.898  17.039  0.00  0.00    -0.572 OA
ATOM      5  O3  SGN d 304      17.950  10.817  10.375  0.00  0.00    -0.391 OA
ATOM      6  C3  SGN d 304      17.547  11.418  11.592  0.00  0.00     0.083 C 
ATOM      7  O4  SGN d 304      18.310   9.437  12.801  0.00  0.00    -0.348 OA
ATOM      8  O5  SGN d 304      18.153  12.953  13.967  0.00  0.00    -0.349 OA
ATOM      9  C4  SGN d 304      18.444  10.886  12.719  0.00  0.00     0.095 C 
ATOM     10  O4S SGN d 304      19.378  11.486  18.760  0.00  0.00    -0.572 OA
ATOM     11  O6S SGN d 304      21.141  12.107  17.268  0.00  0.00    -0.572 OA
ATOM     12  O6  SGN d 304      18.776  11.679  16.452  0.00  0.00    -0.254 OA
ATOM     13  C6  SGN d 304      19.035  11.105  15.179  0.00  0.00     0.067 C 
ATOM     14  C2  SGN d 304      17.867  12.939  11.583  0.00  0.00     0.081 C 
ATOM     15  O3S SGN d 304      19.430  13.997   9.333  0.00  0.00    -0.296 OA
ATOM     16  C1  SGN d 304      17.369  13.566  12.885  0.00  0.00     0.150 C 
ATOM     17  O1S SGN d 304      17.562  15.452   8.887  0.00  0.00    -0.296 OA
ATOM     18  S1  SGN d 304      18.254  14.774   9.945  0.00  0.00     0.156 S 
ATOM     19  S2  SGN d 304      19.901  11.226  17.447  0.00  0.00     0.251 S 
ATOM     20  H   SGN d 304      16.376  14.104  10.904  0.00  0.00     0.140 HD
ATOM     21  H   SGN d 304      19.209  14.850  11.727  0.00  0.00     0.231 HD
ATOM     22  H   SGN d 304      17.032  11.253  14.275  0.00  0.00     0.090 H 
ATOM     23  H   SGN d 304      17.392  11.143   9.653  0.00  0.00     0.210 HD
ATOM     24  H   SGN d 304      16.504  11.216  11.719  0.00  0.00     0.089 H 
ATOM     25  H   SGN d 304      19.466  11.127  12.514  0.00  0.00     0.091 H 
ATOM     26  H   SGN d 304      20.024  11.387  14.879  0.00  0.00     0.080 H 
ATOM     27  H   SGN d 304      18.920  10.047  15.292  0.00  0.00     0.080 H 
ATOM     28  H   SGN d 304      18.926  13.016  11.452  0.00  0.00     0.076 H 
ATOM     29  H   SGN d 304      19.911  13.530  10.034  0.00  0.00     0.231 HD
ATOM     30  H   SGN d 304      17.499  14.624  12.989  0.00  0.00     0.131 H 
ATOM     31  H   SGN d 304      16.816  15.949   9.256  0.00  0.00     0.231 HD
ATOM     32  O6S SGN d 306       9.547   9.968  13.399  0.00  0.00    -0.572 OA
ATOM     33  O5S SGN d 306       7.996  11.119  11.931  0.00  0.00    -0.572 OA
ATOM     34  O2S SGN d 306      11.480  15.325  19.234  0.00  0.00    -0.296 OA
ATOM     35  C1  SGN d 306       9.442  14.812  16.624  0.00  0.00     0.038 C 
ATOM     36  N   SGN d 306      10.639  16.722  17.418  0.00  0.00    -0.212 NA
ATOM     37  O3  SGN d 306      12.264  16.806  15.233  0.00  0.00    -0.391 OA
ATOM     38  S2  SGN d 306       8.252  10.804  13.337  0.00  0.00     0.251 S 
ATOM     39  C3  SGN d 306      11.050  16.046  15.194  0.00  0.00     0.081 C 
ATOM     40  O3S SGN d 306      13.141  16.630  18.015  0.00  0.00    -0.296 OA
ATOM     41  O4S SGN d 306       7.268  10.168  14.178  0.00  0.00    -0.572 OA
ATOM     42  O5  SGN d 306       9.523  13.650  15.787  0.00  0.00    -0.379 OA
ATOM     43  S1  SGN d 306      11.713  16.670  18.649  0.00  0.00     0.156 S 
ATOM     44  O6  SGN d 306       8.484  12.173  13.977  0.00  0.00    -0.254 OA
ATOM     45  C2  SGN d 306      10.737  15.591  16.578  0.00  0.00     0.054 C 
ATOM     46  C5  SGN d 306       9.828  14.016  14.423  0.00  0.00     0.087 C 
ATOM     47  C6  SGN d 306       9.813  12.693  13.667  0.00  0.00     0.067 C 
ATOM     48  O1S SGN d 306      11.503  17.914  19.405  0.00  0.00    -0.296 OA
ATOM     49  O4  SGN d 306      11.549  15.199  12.935  0.00  0.00    -0.348 OA
ATOM     50  C4  SGN d 306      11.189  14.786  14.329  0.00  0.00     0.095 C 
ATOM     51  H   SGN d 306      11.677  14.646  18.570  0.00  0.00     0.231 HD
ATOM     52  H   SGN d 306       8.643  15.437  16.281  0.00  0.00     0.077 H 
ATOM     53  H   SGN d 306       9.261  14.500  17.631  0.00  0.00     0.077 H 
ATOM     54  H   SGN d 306       9.696  16.763  17.806  0.00  0.00     0.140 HD
ATOM     55  H   SGN d 306      12.135  17.592  15.788  0.00  0.00     0.210 HD
ATOM     56  H   SGN d 306      10.285  16.671  14.782  0.00  0.00     0.089 H 
ATOM     57  H   SGN d 306      13.253  15.801  17.523  0.00  0.00     0.231 HD
ATOM     58  H   SGN d 306      11.521  14.944  16.911  0.00  0.00     0.072 H 
ATOM     59  H   SGN d 306       9.123  14.703  14.002  0.00  0.00     0.090 H 
ATOM     60  H   SGN d 306       9.932  12.847  12.615  0.00  0.00     0.080 H 
ATOM     61  H   SGN d 306      10.607  12.032  13.944  0.00  0.00     0.080 H 
ATOM     62  H   SGN d 306      10.611  17.913  19.787  0.00  0.00     0.231 HD
ATOM     63  H   SGN d 306      11.967  14.131  14.661  0.00  0.00     0.091 H 
ATOM     64  O6S SGN d 302      23.516   3.798   5.431  0.00  0.00    -0.572 OA
ATOM     65  O2S SGN d 302      19.592   3.490  12.757  0.00  0.00    -0.296 OA
ATOM     66  O5S SGN d 302      25.129   5.592   5.687  0.00  0.00    -0.572 OA
ATOM     67  C5  SGN d 302      23.533   5.079   9.490  0.00  0.00     0.091 C 
ATOM     68  O4  SGN d 302      25.814   4.459  10.051  0.00  0.00    -0.348 OA
ATOM     69  O3  SGN d 302      24.796   3.609  12.726  0.00  0.00    -0.391 OA
ATOM     70  C6  SGN d 302      23.913   4.880   8.010  0.00  0.00     0.067 C 
ATOM     71  S1  SGN d 302      20.582   3.249  13.773  0.00  0.00     0.156 S 
ATOM     72  N   SGN d 302      21.987   4.099  13.345  0.00  0.00    -0.210 NA
ATOM     73  O4S SGN d 302      22.773   5.950   4.775  0.00  0.00    -0.572 OA
ATOM     74  O6  SGN d 302      23.179   5.677   7.118  0.00  0.00    -0.254 OA
ATOM     75  O5  SGN d 302      22.097   4.766   9.683  0.00  0.00    -0.349 OA
ATOM     76  C4  SGN d 302      24.406   4.166  10.354  0.00  0.00     0.095 C 
ATOM     77  S2  SGN d 302      23.684   5.306   5.679  0.00  0.00     0.251 S 
ATOM     78  C1  SGN d 302      21.612   4.808  11.090  0.00  0.00     0.150 C 
ATOM     79  C2  SGN d 302      22.532   3.981  11.995  0.00  0.00     0.081 C 
ATOM     80  O1S SGN d 302      20.364   3.623  15.144  0.00  0.00    -0.296 OA
ATOM     81  C3  SGN d 302      24.010   4.416  11.856  0.00  0.00     0.083 C 
ATOM     82  O3S SGN d 302      20.797   1.746  13.689  0.00  0.00    -0.296 OA
ATOM     83  H   SGN d 302      19.381   4.436  12.729  0.00  0.00     0.231 HD
ATOM     84  H   SGN d 302      23.697   6.096   9.778  0.00  0.00     0.090 H 
ATOM     85  H   SGN d 302      25.728   3.868  12.652  0.00  0.00     0.210 HD
ATOM     86  H   SGN d 302      23.750   3.853   7.757  0.00  0.00     0.080 H 
ATOM     87  H   SGN d 302      24.938   5.171   7.913  0.00  0.00     0.080 H 
ATOM     88  H   SGN d 302      22.720   3.797  13.986  0.00  0.00     0.140 HD
ATOM     89  H   SGN d 302      24.260   3.125  10.153  0.00  0.00     0.091 H 
ATOM     90  H   SGN d 302      20.630   4.385  11.037  0.00  0.00     0.131 H 
ATOM     91  H   SGN d 302      22.553   2.948  11.716  0.00  0.00     0.076 H 
ATOM     92  H   SGN d 302      20.227   4.581  15.200  0.00  0.00     0.231 HD
ATOM     93  H   SGN d 302      24.163   5.443  12.115  0.00  0.00     0.089 H 
ATOM     94  H   SGN d 302      20.944   1.492  12.764  0.00  0.00     0.231 HD
ATOM     95  O5  IDS d 303      20.656   8.827  12.431  0.00  0.00    -0.340 OA
ATOM     96  O2S IDS d 303      18.617   7.906  16.217  0.00  0.00    -0.572 OA
ATOM     97  O4  IDS d 303      21.417   6.112  11.661  0.00  0.00    -0.348 OA
ATOM     98  O1S IDS d 303      20.478   6.375  16.926  0.00  0.00    -0.572 OA
ATOM     99  C4  IDS d 303      20.215   6.732  11.202  0.00  0.00     0.103 C 
ATOM    100  S   IDS d 303      19.415   6.709  16.044  0.00  0.00     0.252 S 
ATOM    101  O2  IDS d 303      20.066   6.804  14.555  0.00  0.00    -0.244 OA
ATOM    102  O3  IDS d 303      17.866   7.106  11.399  0.00  0.00    -0.390 OA
ATOM    103  O61 IDS d 303      22.809   8.950  10.655  0.00  0.00    -0.646 OA
ATOM    104  C2  IDS d 303      19.045   7.251  13.553  0.00  0.00     0.134 C 
ATOM    105  C1  IDS d 303      19.441   8.712  13.289  0.00  0.00     0.161 C 
ATOM    106  O3S IDS d 303      18.431   5.534  16.119  0.00  0.00    -0.572 OA
ATOM    107  C3  IDS d 303      18.955   6.496  12.113  0.00  0.00     0.094 C 
ATOM    108  C5  IDS d 303      20.502   8.236  11.082  0.00  0.00     0.152 C 
ATOM    109  O62 IDS d 303      21.826   7.889   8.981  0.00  0.00    -0.646 OA
ATOM    110  C6  IDS d 303      21.799   8.396  10.217  0.00  0.00     0.206 C 
ATOM    111  H   IDS d 303      19.954   6.283  10.267  0.00  0.00     0.092 H 
ATOM    112  H   IDS d 303      17.773   6.685  10.530  0.00  0.00     0.210 HD
ATOM    113  H   IDS d 303      18.082   7.047  13.975  0.00  0.00     0.097 H 
ATOM    114  H   IDS d 303      19.732   9.167  14.212  0.00  0.00     0.133 H 
ATOM    115  H   IDS d 303      18.856   5.448  12.307  0.00  0.00     0.091 H 
ATOM    116  H   IDS d 303      19.695   8.753  10.608  0.00  0.00     0.104 H 
ATOM    117  C1  UAP d 301      26.511   5.649  10.369  0.00  0.00     0.167 C 
ATOM    118  C5  UAP d 301      28.254   6.384  11.813  0.00  0.00     0.147 C 
ATOM    119  O61 UAP d 301      29.653   7.151  13.617  0.00  0.00    -0.642 OA
ATOM    120  C2  UAP d 301      27.462   5.968   9.128  0.00  0.00     0.135 C 
ATOM    121  O62 UAP d 301      28.296   5.422  14.113  0.00  0.00    -0.642 OA
ATOM    122  O3  UAP d 301      27.289   8.442   9.276  0.00  0.00    -0.389 OA
ATOM    123  O5  UAP d 301      27.308   5.435  11.561  0.00  0.00    -0.311 OA
ATOM    124  C6  UAP d 301      28.785   6.357  13.232  0.00  0.00     0.233 C 
ATOM    125  O2  UAP d 301      28.494   4.882   8.902  0.00  0.00    -0.244 OA
ATOM    126  C3  UAP d 301      28.207   7.330   9.453  0.00  0.00     0.086 C 
ATOM    127  O2S UAP d 301      26.767   3.542   7.776  0.00  0.00    -0.572 OA
ATOM    128  C4  UAP d 301      28.725   7.299  10.919  0.00  0.00    -0.034 C 
ATOM    129  O3S UAP d 301      28.201   4.890   6.316  0.00  0.00    -0.572 OA
ATOM    130  O1S UAP d 301      29.230   2.993   7.432  0.00  0.00    -0.572 OA
ATOM    131  S   UAP d 301      28.165   3.984   7.586  0.00  0.00     0.252 S 
ATOM    132  H   UAP d 301      25.838   6.459  10.555  0.00  0.00     0.134 H 
ATOM    133  H   UAP d 301      26.870   6.031   8.239  0.00  0.00     0.097 H 
ATOM    134  H   UAP d 301      26.970   8.455   8.359  0.00  0.00     0.210 HD
ATOM    135  H   UAP d 301      29.036   7.454   8.789  0.00  0.00     0.093 H 
ATOM    136  H   UAP d 301      29.438   7.981  11.220  0.00  0.00     0.085 H 
ATOM    137  C5  IDS d 305      13.715  13.468  13.996  0.00  0.00     0.152 C 
ATOM    138  O2  IDS d 305      14.382  14.520  10.568  0.00  0.00    -0.244 OA
ATOM    139  C6  IDS d 305      14.027  12.169  14.710  0.00  0.00     0.206 C 
ATOM    140  O61 IDS d 305      13.657  11.085  14.244  0.00  0.00    -0.646 OA
ATOM    141  O2S IDS d 305      12.524  15.124   9.074  0.00  0.00    -0.572 OA
ATOM    142  O62 IDS d 305      14.695  12.222  15.871  0.00  0.00    -0.646 OA
ATOM    143  O5  IDS d 305      12.950  13.180  12.769  0.00  0.00    -0.340 OA
ATOM    144  C3  IDS d 305      14.692  15.567  12.849  0.00  0.00     0.094 C 
ATOM    145  O4  IDS d 305      15.895  13.296  12.910  0.00  0.00    -0.348 OA
ATOM    146  O1S IDS d 305      14.696  14.335   8.150  0.00  0.00    -0.572 OA
ATOM    147  C2  IDS d 305      13.725  15.285  11.622  0.00  0.00     0.134 C 
ATOM    148  C1  IDS d 305      12.506  14.422  12.103  0.00  0.00     0.161 C 
ATOM    149  C4  IDS d 305      15.049  14.220  13.649  0.00  0.00     0.103 C 
ATOM    150  O3  IDS d 305      13.958  16.391  13.734  0.00  0.00    -0.390 OA
ATOM    151  S   IDS d 305      13.979  15.109   9.131  0.00  0.00     0.252 S 
ATOM    152  O3S IDS d 305      14.473  16.571   9.069  0.00  0.00    -0.572 OA
ATOM    153  H   IDS d 305      13.127  14.095  14.633  0.00  0.00     0.104 H 
ATOM    154  H   IDS d 305      15.603  16.003  12.496  0.00  0.00     0.091 H 
ATOM    155  H   IDS d 305      13.424  16.239  11.242  0.00  0.00     0.097 H 
ATOM    156  H   IDS d 305      11.965  14.133  11.226  0.00  0.00     0.133 H 
ATOM    157  H   IDS d 305      15.592  14.527  14.518  0.00  0.00     0.092 H 
ATOM    158  H   IDS d 305      13.151  15.930  14.009  0.00  0.00     0.210 HD
ENDROOT
TORSDOF 49
ENDMDL
MODEL 53
REMARK VINA RESULT:      -3.7      5.018      6.696
REMARK  0 active torsions:
REMARK  status: ('A' for Active; 'I' for Inactive)
REMARK       I    between atoms: N_1  and  C2_65 
REMARK       I    between atoms: N_1  and  S1_100 
REMARK       I    between atoms: O2S_4  and  S1_36 
REMARK       I    between atoms: O2S_5  and  S1_100 
REMARK       I    between atoms: C5_7  and  C6_64 
REMARK       I    between atoms: O3_11  and  C3_17 
REMARK       I    between atoms: C1_12  and  O4_28 
REMARK       I    between atoms: C5_13  and  C6_35 
REMARK       I    between atoms: C5_14  and  C6_52 
REMARK       I    between atoms: O2S_16  and  S1_75 
REMARK       I    between atoms: C2_18  and  O2_63 
REMARK       I    between atoms: C5_19  and  C6_22 
REMARK       I    between atoms: O2_20  and  C2_53 
REMARK       I    between atoms: O2_20  and  S_86 
REMARK       I    between atoms: O4_21  and  C1_67 
REMARK       I    between atoms: O4_21  and  C4_48 
REMARK       I    between atoms: O3_26  and  C3_72 
REMARK       I    between atoms: O4_28  and  C4_71 
REMARK       I    between atoms: O3_30  and  C3_94 
REMARK       I    between atoms: N_33  and  C2_82 
REMARK       I    between atoms: N_33  and  S1_75 
REMARK       I    between atoms: C6_35  and  O6_59 
REMARK       I    between atoms: S1_36  and  N_37 
REMARK       I    between atoms: S1_36  and  O1S_89 
REMARK       I    between atoms: S1_36  and  O3S_97 
REMARK       I    between atoms: N_37  and  C2_78 
REMARK       I    between atoms: C3_38  and  O3_81 
REMARK       I    between atoms: O4_39  and  C1_85 
REMARK       I    between atoms: O4_39  and  C4_69 
REMARK       I    between atoms: O3_40  and  C3_47 
REMARK       I    between atoms: O4_41  and  C1_76 
REMARK       I    between atoms: O4_41  and  C4_43 
REMARK       I    between atoms: S2_44  and  O6_80 
REMARK       I    between atoms: S_46  and  O2_57 
REMARK       I    between atoms: O3S_49  and  S1_75 
REMARK       I    between atoms: C1_54  and  O4_96 
REMARK       I    between atoms: O2_57  and  C2_66 
REMARK       I    between atoms: O6_58  and  C6_64 
REMARK       I    between atoms: O6_58  and  S2_101 
REMARK       I    between atoms: O6_59  and  S2_73 
REMARK       I    between atoms: O3_61  and  C3_77 
REMARK       I    between atoms: O2_63  and  S_104 
REMARK       I    between atoms: S1_75  and  O1S_92 
REMARK       I    between atoms: O6_80  and  C6_88 
REMARK       I    between atoms: C5_83  and  C6_88 
REMARK       I    between atoms: O3S_84  and  S1_100 
REMARK       I    between atoms: C5_87  and  C6_103 
REMARK       I    between atoms: O1S_91  and  S1_100 
REMARK       I    between atoms: O4_96  and  C4_99 
ROOT
ATOM      1  N   SGN d 304      25.282   7.340  14.242  0.00  0.00    -0.210 NA
ATOM      2  O2S SGN d 304      25.644   9.204  15.852  0.00  0.00    -0.296 OA
ATOM      3  C5  SGN d 304      22.374   9.476  12.133  0.00  0.00     0.091 C 
ATOM      4  O5S SGN d 304      19.093  11.837  11.549  0.00  0.00    -0.572 OA
ATOM      5  O3  SGN d 304      22.693   6.083  13.708  0.00  0.00    -0.391 OA
ATOM      6  C3  SGN d 304      23.122   7.241  13.016  0.00  0.00     0.083 C 
ATOM      7  O4  SGN d 304      20.864   7.521  12.124  0.00  0.00    -0.348 OA
ATOM      8  O5  SGN d 304      23.415  10.113  12.847  0.00  0.00    -0.349 OA
ATOM      9  C4  SGN d 304      21.925   8.191  12.867  0.00  0.00     0.095 C 
ATOM     10  O4S SGN d 304      20.473  13.721  10.621  0.00  0.00    -0.572 OA
ATOM     11  O6S SGN d 304      20.247  13.351  12.973  0.00  0.00    -0.572 OA
ATOM     12  O6  SGN d 304      21.499  11.734  11.471  0.00  0.00    -0.254 OA
ATOM     13  C6  SGN d 304      21.189  10.497  12.098  0.00  0.00     0.067 C 
ATOM     14  C2  SGN d 304      24.111   8.064  13.887  0.00  0.00     0.081 C 
ATOM     15  O3S SGN d 304      24.513   7.220  16.671  0.00  0.00    -0.296 OA
ATOM     16  C1  SGN d 304      24.598   9.274  13.090  0.00  0.00     0.150 C 
ATOM     17  O1S SGN d 304      26.845   6.965  16.122  0.00  0.00    -0.296 OA
ATOM     18  S1  SGN d 304      25.672   7.725  15.797  0.00  0.00     0.156 S 
ATOM     19  S2  SGN d 304      20.259  12.685  11.594  0.00  0.00     0.251 S 
ATOM     20  H   SGN d 304      26.049   7.597  13.620  0.00  0.00     0.140 HD
ATOM     21  H   SGN d 304      24.764   9.521  15.597  0.00  0.00     0.231 HD
ATOM     22  H   SGN d 304      22.693   9.197  11.150  0.00  0.00     0.090 H 
ATOM     23  H   SGN d 304      23.438   5.472  13.810  0.00  0.00     0.210 HD
ATOM     24  H   SGN d 304      23.554   6.920  12.091  0.00  0.00     0.089 H 
ATOM     25  H   SGN d 304      21.552   8.461  13.833  0.00  0.00     0.091 H 
ATOM     26  H   SGN d 304      20.891  10.698  13.107  0.00  0.00     0.080 H 
ATOM     27  H   SGN d 304      20.414  10.046  11.516  0.00  0.00     0.080 H 
ATOM     28  H   SGN d 304      23.574   8.327  14.774  0.00  0.00     0.076 H 
ATOM     29  H   SGN d 304      23.709   7.723  16.465  0.00  0.00     0.231 HD
ATOM     30  H   SGN d 304      25.316   9.907  13.569  0.00  0.00     0.131 H 
ATOM     31  H   SGN d 304      27.588   7.271  15.579  0.00  0.00     0.231 HD
ATOM     32  O6S SGN d 306      26.326   5.506   5.525  0.00  0.00    -0.572 OA
ATOM     33  O5S SGN d 306      28.466   4.368   5.625  0.00  0.00    -0.572 OA
ATOM     34  O2S SGN d 306      28.011  13.463   6.099  0.00  0.00    -0.296 OA
ATOM     35  C1  SGN d 306      29.409  10.438   5.751  0.00  0.00     0.038 C 
ATOM     36  N   SGN d 306      30.000  12.381   7.010  0.00  0.00    -0.212 NA
ATOM     37  O3  SGN d 306      29.596  11.144   9.403  0.00  0.00    -0.391 OA
ATOM     38  S2  SGN d 306      27.753   5.449   4.943  0.00  0.00     0.251 S 
ATOM     39  C3  SGN d 306      29.735  10.364   8.208  0.00  0.00     0.081 C 
ATOM     40  O3S SGN d 306      28.313  13.614   8.513  0.00  0.00    -0.296 OA
ATOM     41  O4S SGN d 306      27.653   5.523   3.507  0.00  0.00    -0.572 OA
ATOM     42  O5  SGN d 306      28.650   9.221   5.772  0.00  0.00    -0.379 OA
ATOM     43  S1  SGN d 306      29.046  13.702   7.136  0.00  0.00     0.156 S 
ATOM     44  O6  SGN d 306      28.531   6.703   5.344  0.00  0.00    -0.254 OA
ATOM     45  C2  SGN d 306      29.256  11.181   7.057  0.00  0.00     0.054 C 
ATOM     46  C5  SGN d 306      29.061   8.376   6.869  0.00  0.00     0.087 C 
ATOM     47  C6  SGN d 306      28.217   7.116   6.709  0.00  0.00     0.067 C 
ATOM     48  O1S SGN d 306      29.962  14.852   7.096  0.00  0.00    -0.296 OA
ATOM     49  O4  SGN d 306      29.294   8.265   9.420  0.00  0.00    -0.348 OA
ATOM     50  C4  SGN d 306      28.873   9.096   8.246  0.00  0.00     0.095 C 
ATOM     51  H   SGN d 306      27.518  12.656   6.313  0.00  0.00     0.231 HD
ATOM     52  H   SGN d 306      30.442  10.205   5.597  0.00  0.00     0.077 H 
ATOM     53  H   SGN d 306      29.047  11.056   4.956  0.00  0.00     0.077 H 
ATOM     54  H   SGN d 306      30.501  12.421   6.123  0.00  0.00     0.140 HD
ATOM     55  H   SGN d 306      30.155  11.934   9.340  0.00  0.00     0.210 HD
ATOM     56  H   SGN d 306      30.765  10.086   8.117  0.00  0.00     0.089 H 
ATOM     57  H   SGN d 306      27.716  12.849   8.513  0.00  0.00     0.231 HD
ATOM     58  H   SGN d 306      28.216  11.391   7.196  0.00  0.00     0.072 H 
ATOM     59  H   SGN d 306      30.104   8.137   6.852  0.00  0.00     0.090 H 
ATOM     60  H   SGN d 306      28.503   6.366   7.416  0.00  0.00     0.080 H 
ATOM     61  H   SGN d 306      27.173   7.276   6.879  0.00  0.00     0.080 H 
ATOM     62  H   SGN d 306      30.403  14.884   6.232  0.00  0.00     0.231 HD
ATOM     63  H   SGN d 306      27.830   9.299   8.377  0.00  0.00     0.091 H 
ATOM     64  O6S SGN d 302      15.083   0.419  17.543  0.00  0.00    -0.572 OA
ATOM     65  O2S SGN d 302      15.513   5.037  10.639  0.00  0.00    -0.296 OA
ATOM     66  O5S SGN d 302      15.459   1.998  19.347  0.00  0.00    -0.572 OA
ATOM     67  C5  SGN d 302      15.148   4.364  15.944  0.00  0.00     0.091 C 
ATOM     68  O4  SGN d 302      13.192   5.244  17.085  0.00  0.00    -0.348 OA
ATOM     69  O3  SGN d 302      12.533   6.707  14.567  0.00  0.00    -0.391 OA
ATOM     70  C6  SGN d 302      15.103   3.176  16.925  0.00  0.00     0.067 C 
ATOM     71  S1  SGN d 302      14.512   6.065  10.739  0.00  0.00     0.156 S 
ATOM     72  N   SGN d 302      14.435   6.565  12.358  0.00  0.00    -0.210 NA
ATOM     73  O4S SGN d 302      17.336   0.680  18.228  0.00  0.00    -0.572 OA
ATOM     74  O6  SGN d 302      16.356   2.597  17.180  0.00  0.00    -0.254 OA
ATOM     75  O5  SGN d 302      15.712   3.920  14.648  0.00  0.00    -0.349 OA
ATOM     76  C4  SGN d 302      13.730   4.909  15.759  0.00  0.00     0.095 C 
ATOM     77  S2  SGN d 302      16.095   1.399  18.161  0.00  0.00     0.251 S 
ATOM     78  C1  SGN d 302      15.714   4.939  13.563  0.00  0.00     0.150 C 
ATOM     79  C2  SGN d 302      14.325   5.574  13.426  0.00  0.00     0.081 C 
ATOM     80  O1S SGN d 302      14.620   7.299  10.008  0.00  0.00    -0.296 OA
ATOM     81  C3  SGN d 302      13.819   6.134  14.776  0.00  0.00     0.083 C 
ATOM     82  O3S SGN d 302      13.241   5.343  10.321  0.00  0.00    -0.296 OA
ATOM     83  H   SGN d 302      16.377   5.401  10.889  0.00  0.00     0.231 HD
ATOM     84  H   SGN d 302      15.774   5.139  16.335  0.00  0.00     0.090 H 
ATOM     85  H   SGN d 302      12.199   7.064  15.405  0.00  0.00     0.210 HD
ATOM     86  H   SGN d 302      14.462   2.425  16.513  0.00  0.00     0.080 H 
ATOM     87  H   SGN d 302      14.744   3.560  17.857  0.00  0.00     0.080 H 
ATOM     88  H   SGN d 302      13.623   7.176  12.439  0.00  0.00     0.140 HD
ATOM     89  H   SGN d 302      13.056   4.199  15.326  0.00  0.00     0.091 H 
ATOM     90  H   SGN d 302      15.980   4.384  12.687  0.00  0.00     0.131 H 
ATOM     91  H   SGN d 302      13.577   4.856  13.162  0.00  0.00     0.076 H 
ATOM     92  H   SGN d 302      15.431   7.761  10.273  0.00  0.00     0.231 HD
ATOM     93  H   SGN d 302      14.464   6.887  15.178  0.00  0.00     0.089 H 
ATOM     94  H   SGN d 302      13.166   4.510  10.812  0.00  0.00     0.231 HD
ATOM     95  O5  IDS d 303      19.088   7.665  13.809  0.00  0.00    -0.340 OA
ATOM     96  O2S IDS d 303      18.727   9.682   9.917  0.00  0.00    -0.572 OA
ATOM     97  O4  IDS d 303      16.710   5.971  13.657  0.00  0.00    -0.348 OA
ATOM     98  O1S IDS d 303      16.281  10.114  10.291  0.00  0.00    -0.572 OA
ATOM     99  C4  IDS d 303      18.005   5.514  13.263  0.00  0.00     0.103 C 
ATOM    100  S   IDS d 303      17.368   9.217  10.106  0.00  0.00     0.252 S 
ATOM    101  O2  IDS d 303      17.392   8.248  11.413  0.00  0.00    -0.244 OA
ATOM    102  O3  IDS d 303      19.640   5.115  11.570  0.00  0.00    -0.390 OA
ATOM    103  O61 IDS d 303      18.309   6.947  16.394  0.00  0.00    -0.646 OA
ATOM    104  C2  IDS d 303      18.568   7.320  11.369  0.00  0.00     0.134 C 
ATOM    105  C1  IDS d 303      19.524   7.929  12.407  0.00  0.00     0.161 C 
ATOM    106  O3S IDS d 303      17.023   8.405   8.850  0.00  0.00    -0.572 OA
ATOM    107  C3  IDS d 303      18.361   5.750  11.750  0.00  0.00     0.094 C 
ATOM    108  C5  IDS d 303      19.025   6.228  14.161  0.00  0.00     0.152 C 
ATOM    109  O62 IDS d 303      18.448   4.757  16.109  0.00  0.00    -0.646 OA
ATOM    110  C6  IDS d 303      18.577   6.004  15.646  0.00  0.00     0.206 C 
ATOM    111  H   IDS d 303      18.023   4.451  13.378  0.00  0.00     0.092 H 
ATOM    112  H   IDS d 303      19.565   4.172  11.787  0.00  0.00     0.210 HD
ATOM    113  H   IDS d 303      18.884   7.265  10.348  0.00  0.00     0.097 H 
ATOM    114  H   IDS d 303      19.495   8.995  12.324  0.00  0.00     0.133 H 
ATOM    115  H   IDS d 303      17.566   5.375  11.141  0.00  0.00     0.091 H 
ATOM    116  H   IDS d 303      20.011   5.833  14.027  0.00  0.00     0.104 H 
ATOM    117  C1  UAP d 301      13.628   6.295  17.926  0.00  0.00     0.167 C 
ATOM    118  C5  UAP d 301      12.840   8.379  18.762  0.00  0.00     0.147 C 
ATOM    119  O61 UAP d 301      12.199  10.665  19.166  0.00  0.00    -0.642 OA
ATOM    120  C2  UAP d 301      13.593   5.732  19.419  0.00  0.00     0.135 C 
ATOM    121  O62 UAP d 301      11.552   9.815  17.182  0.00  0.00    -0.642 OA
ATOM    122  O3  UAP d 301      15.577   6.984  20.236  0.00  0.00    -0.389 OA
ATOM    123  O5  UAP d 301      12.723   7.419  17.801  0.00  0.00    -0.311 OA
ATOM    124  C6  UAP d 301      12.185   9.696  18.396  0.00  0.00     0.233 C 
ATOM    125  O2  UAP d 301      12.193   5.350  19.855  0.00  0.00    -0.244 OA
ATOM    126  C3  UAP d 301      14.133   6.885  20.363  0.00  0.00     0.086 C 
ATOM    127  O2S UAP d 301      12.433   3.241  18.613  0.00  0.00    -0.572 OA
ATOM    128  C4  UAP d 301      13.471   8.233  19.962  0.00  0.00    -0.034 C 
ATOM    129  O3S UAP d 301      12.956   3.144  21.005  0.00  0.00    -0.572 OA
ATOM    130  O1S UAP d 301      10.628   3.472  20.395  0.00  0.00    -0.572 OA
ATOM    131  S   UAP d 301      11.989   3.738  19.933  0.00  0.00     0.252 S 
ATOM    132  H   UAP d 301      14.612   6.624  17.665  0.00  0.00     0.134 H 
ATOM    133  H   UAP d 301      14.192   4.847  19.475  0.00  0.00     0.097 H 
ATOM    134  H   UAP d 301      15.982   6.139  20.487  0.00  0.00     0.210 HD
ATOM    135  H   UAP d 301      13.888   6.661  21.380  0.00  0.00     0.093 H 
ATOM    136  H   UAP d 301      13.510   9.032  20.614  0.00  0.00     0.085 H 
ATOM    137  C5  IDS d 305      26.434   8.986   9.751  0.00  0.00     0.152 C 
ATOM    138  O2  IDS d 305      27.626   6.893  12.490  0.00  0.00    -0.244 OA
ATOM    139  C6  IDS d 305      25.083   9.046   9.069  0.00  0.00     0.206 C 
ATOM    140  O61 IDS d 305      24.568   8.028   8.592  0.00  0.00    -0.646 OA
ATOM    141  O2S IDS d 305      29.531   5.374  12.149  0.00  0.00    -0.572 OA
ATOM    142  O62 IDS d 305      24.466  10.234   8.975  0.00  0.00    -0.646 OA
ATOM    143  O5  IDS d 305      26.940   7.603   9.713  0.00  0.00    -0.340 OA
ATOM    144  C3  IDS d 305      27.739   9.361  11.950  0.00  0.00     0.094 C 
ATOM    145  O4  IDS d 305      25.256   8.701  11.871  0.00  0.00    -0.348 OA
ATOM    146  O1S IDS d 305      27.843   4.923  13.922  0.00  0.00    -0.572 OA
ATOM    147  C2  IDS d 305      28.369   7.916  11.763  0.00  0.00     0.134 C 
ATOM    148  C1  IDS d 305      28.314   7.513  10.248  0.00  0.00     0.161 C 
ATOM    149  C4  IDS d 305      26.305   9.483  11.236  0.00  0.00     0.103 C 
ATOM    150  O3  IDS d 305      28.610  10.250  11.279  0.00  0.00    -0.390 OA
ATOM    151  S   IDS d 305      28.645   5.872  13.192  0.00  0.00     0.252 S 
ATOM    152  O3S IDS d 305      29.498   6.678  14.197  0.00  0.00    -0.572 OA
ATOM    153  H   IDS d 305      27.123   9.624   9.239  0.00  0.00     0.104 H 
ATOM    154  H   IDS d 305      27.616   9.568  12.993  0.00  0.00     0.091 H 
ATOM    155  H   IDS d 305      29.371   7.968  12.135  0.00  0.00     0.097 H 
ATOM    156  H   IDS d 305      28.609   6.486  10.189  0.00  0.00     0.133 H 
ATOM    157  H   IDS d 305      26.024  10.513  11.307  0.00  0.00     0.092 H 
ATOM    158  H   IDS d 305      28.670  10.000  10.344  0.00  0.00     0.210 HD
ENDROOT
TORSDOF 49
ENDMDL
MODEL 54
REMARK VINA RESULT:      -3.6      5.428      9.938
REMARK  0 active torsions:
REMARK  status: ('A' for Active; 'I' for Inactive)
REMARK       I    between atoms: N_1  and  C2_65 
REMARK       I    between atoms: N_1  and  S1_100 
REMARK       I    between atoms: O2S_4  and  S1_36 
REMARK       I    between atoms: O2S_5  and  S1_100 
REMARK       I    between atoms: C5_7  and  C6_64 
REMARK       I    between atoms: O3_11  and  C3_17 
REMARK       I    between atoms: C1_12  and  O4_28 
REMARK       I    between atoms: C5_13  and  C6_35 
REMARK       I    between atoms: C5_14  and  C6_52 
REMARK       I    between atoms: O2S_16  and  S1_75 
REMARK       I    between atoms: C2_18  and  O2_63 
REMARK       I    between atoms: C5_19  and  C6_22 
REMARK       I    between atoms: O2_20  and  C2_53 
REMARK       I    between atoms: O2_20  and  S_86 
REMARK       I    between atoms: O4_21  and  C1_67 
REMARK       I    between atoms: O4_21  and  C4_48 
REMARK       I    between atoms: O3_26  and  C3_72 
REMARK       I    between atoms: O4_28  and  C4_71 
REMARK       I    between atoms: O3_30  and  C3_94 
REMARK       I    between atoms: N_33  and  C2_82 
REMARK       I    between atoms: N_33  and  S1_75 
REMARK       I    between atoms: C6_35  and  O6_59 
REMARK       I    between atoms: S1_36  and  N_37 
REMARK       I    between atoms: S1_36  and  O1S_89 
REMARK       I    between atoms: S1_36  and  O3S_97 
REMARK       I    between atoms: N_37  and  C2_78 
REMARK       I    between atoms: C3_38  and  O3_81 
REMARK       I    between atoms: O4_39  and  C1_85 
REMARK       I    between atoms: O4_39  and  C4_69 
REMARK       I    between atoms: O3_40  and  C3_47 
REMARK       I    between atoms: O4_41  and  C1_76 
REMARK       I    between atoms: O4_41  and  C4_43 
REMARK       I    between atoms: S2_44  and  O6_80 
REMARK       I    between atoms: S_46  and  O2_57 
REMARK       I    between atoms: O3S_49  and  S1_75 
REMARK       I    between atoms: C1_54  and  O4_96 
REMARK       I    between atoms: O2_57  and  C2_66 
REMARK       I    between atoms: O6_58  and  C6_64 
REMARK       I    between atoms: O6_58  and  S2_101 
REMARK       I    between atoms: O6_59  and  S2_73 
REMARK       I    between atoms: O3_61  and  C3_77 
REMARK       I    between atoms: O2_63  and  S_104 
REMARK       I    between atoms: S1_75  and  O1S_92 
REMARK       I    between atoms: O6_80  and  C6_88 
REMARK       I    between atoms: C5_83  and  C6_88 
REMARK       I    between atoms: O3S_84  and  S1_100 
REMARK       I    between atoms: C5_87  and  C6_103 
REMARK       I    between atoms: O1S_91  and  S1_100 
REMARK       I    between atoms: O4_96  and  C4_99 
ROOT
ATOM      1  N   SGN d 304      20.105  13.306   7.157  0.00  0.00    -0.210 NA
ATOM      2  O2S SGN d 304      19.000  12.156   5.245  0.00  0.00    -0.296 OA
ATOM      3  C5  SGN d 304      18.708  10.484   9.906  0.00  0.00     0.091 C 
ATOM      4  O5S SGN d 304      16.050   7.993  11.751  0.00  0.00    -0.572 OA
ATOM      5  O3  SGN d 304      18.723  14.223   9.570  0.00  0.00    -0.391 OA
ATOM      6  C3  SGN d 304      19.223  12.905   9.447  0.00  0.00     0.083 C 
ATOM      7  O4  SGN d 304      17.981  12.267  11.452  0.00  0.00    -0.348 OA
ATOM      8  O5  SGN d 304      18.932  10.172   8.544  0.00  0.00    -0.349 OA
ATOM      9  C4  SGN d 304      18.194  11.936  10.049  0.00  0.00     0.095 C 
ATOM     10  O4S SGN d 304      17.263   5.935  10.971  0.00  0.00    -0.572 OA
ATOM     11  O6S SGN d 304      15.738   7.121   9.560  0.00  0.00    -0.572 OA
ATOM     12  O6  SGN d 304      17.956   8.119  10.283  0.00  0.00    -0.254 OA
ATOM     13  C6  SGN d 304      17.604   9.490  10.398  0.00  0.00     0.067 C 
ATOM     14  C2  SGN d 304      19.271  12.475   7.954  0.00  0.00     0.081 C 
ATOM     15  O3S SGN d 304      18.065  14.274   5.971  0.00  0.00    -0.296 OA
ATOM     16  C1  SGN d 304      19.868  11.070   7.853  0.00  0.00     0.150 C 
ATOM     17  O1S SGN d 304      20.235  14.370   4.929  0.00  0.00    -0.296 OA
ATOM     18  S1  SGN d 304      19.374  13.516   5.695  0.00  0.00     0.156 S 
ATOM     19  S2  SGN d 304      16.730   7.246  10.721  0.00  0.00     0.251 S 
ATOM     20  H   SGN d 304      21.014  12.861   7.028  0.00  0.00     0.140 HD
ATOM     21  H   SGN d 304      18.416  11.747   5.902  0.00  0.00     0.231 HD
ATOM     22  H   SGN d 304      19.610  10.398  10.476  0.00  0.00     0.090 H 
ATOM     23  H   SGN d 304      19.362  14.848   9.194  0.00  0.00     0.210 HD
ATOM     24  H   SGN d 304      20.185  12.881   9.915  0.00  0.00     0.089 H 
ATOM     25  H   SGN d 304      17.264  12.023   9.528  0.00  0.00     0.091 H 
ATOM     26  H   SGN d 304      16.719   9.659   9.820  0.00  0.00     0.080 H 
ATOM     27  H   SGN d 304      17.463   9.683  11.441  0.00  0.00     0.080 H 
ATOM     28  H   SGN d 304      18.264  12.536   7.597  0.00  0.00     0.076 H 
ATOM     29  H   SGN d 304      17.469  13.711   6.489  0.00  0.00     0.231 HD
ATOM     30  H   SGN d 304      19.988  10.670   6.868  0.00  0.00     0.131 H 
ATOM     31  H   SGN d 304      21.068  13.908   4.744  0.00  0.00     0.231 HD
ATOM     32  O6S SGN d 306      26.601  11.902  13.179  0.00  0.00    -0.572 OA
ATOM     33  O5S SGN d 306      28.420  13.052  12.058  0.00  0.00    -0.572 OA
ATOM     34  O2S SGN d 306      25.828   4.729   9.381  0.00  0.00    -0.296 OA
ATOM     35  C1  SGN d 306      27.758   7.459   9.602  0.00  0.00     0.038 C 
ATOM     36  N   SGN d 306      27.025   6.114   7.768  0.00  0.00    -0.212 NA
ATOM     37  O3  SGN d 306      25.526   8.120   6.694  0.00  0.00    -0.391 OA
ATOM     38  S2  SGN d 306      28.058  11.781  12.686  0.00  0.00     0.251 S 
ATOM     39  C3  SGN d 306      26.528   8.420   7.676  0.00  0.00     0.081 C 
ATOM     40  O3S SGN d 306      24.556   5.465   7.435  0.00  0.00    -0.296 OA
ATOM     41  O4S SGN d 306      28.840  11.192  13.746  0.00  0.00    -0.572 OA
ATOM     42  O5  SGN d 306      27.428   8.583  10.429  0.00  0.00    -0.379 OA
ATOM     43  S1  SGN d 306      25.935   4.904   7.910  0.00  0.00     0.156 S 
ATOM     44  O6  SGN d 306      28.138  10.775  11.538  0.00  0.00    -0.254 OA
ATOM     45  C2  SGN d 306      26.686   7.232   8.561  0.00  0.00     0.054 C 
ATOM     46  C5  SGN d 306      27.255   9.776   9.633  0.00  0.00     0.087 C 
ATOM     47  C6  SGN d 306      26.979  10.873  10.656  0.00  0.00     0.067 C 
ATOM     48  O1S SGN d 306      26.412   3.840   7.015  0.00  0.00    -0.296 OA
ATOM     49  O4  SGN d 306      25.905  10.803   7.711  0.00  0.00    -0.348 OA
ATOM     50  C4  SGN d 306      26.119   9.596   8.572  0.00  0.00     0.095 C 
ATOM     51  H   SGN d 306      25.494   5.547   9.781  0.00  0.00     0.231 HD
ATOM     52  H   SGN d 306      28.691   7.645   9.112  0.00  0.00     0.077 H 
ATOM     53  H   SGN d 306      27.832   6.587  10.218  0.00  0.00     0.077 H 
ATOM     54  H   SGN d 306      27.939   5.769   8.060  0.00  0.00     0.140 HD
ATOM     55  H   SGN d 306      25.822   7.374   6.149  0.00  0.00     0.210 HD
ATOM     56  H   SGN d 306      27.429   8.672   7.156  0.00  0.00     0.089 H 
ATOM     57  H   SGN d 306      24.265   6.164   8.042  0.00  0.00     0.231 HD
ATOM     58  H   SGN d 306      25.762   7.062   9.073  0.00  0.00     0.072 H 
ATOM     59  H   SGN d 306      28.114  10.018   9.041  0.00  0.00     0.090 H 
ATOM     60  H   SGN d 306      26.928  11.834  10.189  0.00  0.00     0.080 H 
ATOM     61  H   SGN d 306      26.044  10.760  11.163  0.00  0.00     0.080 H 
ATOM     62  H   SGN d 306      27.268   3.510   7.332  0.00  0.00     0.231 HD
ATOM     63  H   SGN d 306      25.199   9.429   9.093  0.00  0.00     0.091 H 
ATOM     64  O6S SGN d 302      11.795  20.702  13.407  0.00  0.00    -0.572 OA
ATOM     65  O2S SGN d 302      15.332  13.920  16.673  0.00  0.00    -0.296 OA
ATOM     66  O5S SGN d 302      10.645  19.888  11.431  0.00  0.00    -0.572 OA
ATOM     67  C5  SGN d 302      11.969  16.450  13.352  0.00  0.00     0.091 C 
ATOM     68  O4  SGN d 302       9.592  15.992  13.553  0.00  0.00    -0.348 OA
ATOM     69  O3  SGN d 302      10.306  13.705  15.334  0.00  0.00    -0.391 OA
ATOM     70  C6  SGN d 302      11.594  17.909  13.032  0.00  0.00     0.067 C 
ATOM     71  S1  SGN d 302      14.285  12.973  16.951  0.00  0.00     0.156 S 
ATOM     72  N   SGN d 302      13.134  13.088  15.711  0.00  0.00    -0.210 NA
ATOM     73  O4S SGN d 302      13.043  20.760  11.394  0.00  0.00    -0.572 OA
ATOM     74  O6  SGN d 302      12.520  18.572  12.212  0.00  0.00    -0.254 OA
ATOM     75  O5  SGN d 302      13.284  16.410  14.034  0.00  0.00    -0.349 OA
ATOM     76  C4  SGN d 302      10.881  15.840  14.240  0.00  0.00     0.095 C 
ATOM     77  S2  SGN d 302      11.982  20.036  12.034  0.00  0.00     0.251 S 
ATOM     78  C1  SGN d 302      13.727  15.069  14.505  0.00  0.00     0.150 C 
ATOM     79  C2  SGN d 302      12.613  14.394  15.313  0.00  0.00     0.081 C 
ATOM     80  O1S SGN d 302      14.547  11.562  17.040  0.00  0.00    -0.296 OA
ATOM     81  C3  SGN d 302      11.284  14.346  14.523  0.00  0.00     0.083 C 
ATOM     82  O3S SGN d 302      13.724  13.465  18.275  0.00  0.00    -0.296 OA
ATOM     83  H   SGN d 302      15.761  13.691  15.834  0.00  0.00     0.231 HD
ATOM     84  H   SGN d 302      12.043  15.882  12.448  0.00  0.00     0.090 H 
ATOM     85  H   SGN d 302       9.464  13.665  14.854  0.00  0.00     0.210 HD
ATOM     86  H   SGN d 302      11.517  18.446  13.955  0.00  0.00     0.080 H 
ATOM     87  H   SGN d 302      10.669  17.878  12.494  0.00  0.00     0.080 H 
ATOM     88  H   SGN d 302      12.332  12.528  16.000  0.00  0.00     0.140 HD
ATOM     89  H   SGN d 302      10.784  16.330  15.187  0.00  0.00     0.091 H 
ATOM     90  H   SGN d 302      14.582  15.278  15.114  0.00  0.00     0.131 H 
ATOM     91  H   SGN d 302      12.356  14.950  16.191  0.00  0.00     0.076 H 
ATOM     92  H   SGN d 302      14.906  11.246  16.196  0.00  0.00     0.231 HD
ATOM     93  H   SGN d 302      11.371  13.804  13.604  0.00  0.00     0.089 H 
ATOM     94  H   SGN d 302      13.547  14.418  18.218  0.00  0.00     0.231 HD
ATOM     95  O5  IDS d 303      15.568  12.697  11.365  0.00  0.00    -0.340 OA
ATOM     96  O2S IDS d 303      17.226   9.406  13.765  0.00  0.00    -0.572 OA
ATOM     97  O4  IDS d 303      14.208  14.165  13.497  0.00  0.00    -0.348 OA
ATOM     98  O1S IDS d 303      15.038   9.078  14.953  0.00  0.00    -0.572 OA
ATOM     99  C4  IDS d 303      15.536  14.480  13.073  0.00  0.00     0.103 C 
ATOM    100  S   IDS d 303      16.173   9.874  14.643  0.00  0.00     0.252 S 
ATOM    101  O2  IDS d 303      15.605  11.249  13.984  0.00  0.00    -0.244 OA
ATOM    102  O3  IDS d 303      17.900  14.282  13.331  0.00  0.00    -0.390 OA
ATOM    103  O61 IDS d 303      13.554  14.279  10.247  0.00  0.00    -0.646 OA
ATOM    104  C2  IDS d 303      16.730  12.127  13.525  0.00  0.00     0.134 C 
ATOM    105  C1  IDS d 303      16.698  11.956  11.998  0.00  0.00     0.161 C 
ATOM    106  O3S IDS d 303      16.849  10.171  15.988  0.00  0.00    -0.572 OA
ATOM    107  C3  IDS d 303      16.678  13.724  13.844  0.00  0.00     0.094 C 
ATOM    108  C5  IDS d 303      15.615  14.163  11.573  0.00  0.00     0.152 C 
ATOM    109  O62 IDS d 303      14.305  16.221  10.994  0.00  0.00    -0.646 OA
ATOM    110  C6  IDS d 303      14.417  14.895  10.877  0.00  0.00     0.206 C 
ATOM    111  H   IDS d 303      15.708  15.514  13.288  0.00  0.00     0.092 H 
ATOM    112  H   IDS d 303      17.914  15.238  13.499  0.00  0.00     0.210 HD
ATOM    113  H   IDS d 303      17.605  11.819  14.060  0.00  0.00     0.097 H 
ATOM    114  H   IDS d 303      16.496  10.932  11.767  0.00  0.00     0.133 H 
ATOM    115  H   IDS d 303      16.521  13.835  14.897  0.00  0.00     0.091 H 
ATOM    116  H   IDS d 303      16.534  14.506  11.146  0.00  0.00     0.104 H 
ATOM    117  C1  UAP d 301       9.187  15.325  12.372  0.00  0.00     0.167 C 
ATOM    118  C5  UAP d 301       7.628  13.664  11.686  0.00  0.00     0.147 C 
ATOM    119  O61 UAP d 301       6.401  11.661  11.151  0.00  0.00    -0.642 OA
ATOM    120  C2  UAP d 301       8.373  16.387  11.502  0.00  0.00     0.135 C 
ATOM    121  O62 UAP d 301       7.296  11.725  13.217  0.00  0.00    -0.642 OA
ATOM    122  O3  UAP d 301       9.122  15.561   9.282  0.00  0.00    -0.389 OA
ATOM    123  O5  UAP d 301       8.330  14.210  12.719  0.00  0.00    -0.311 OA
ATOM    124  C6  UAP d 301       7.067  12.288  11.985  0.00  0.00     0.233 C 
ATOM    125  O2  UAP d 301       7.120  16.866  12.208  0.00  0.00    -0.244 OA
ATOM    126  C3  UAP d 301       7.962  15.665  10.152  0.00  0.00     0.086 C 
ATOM    127  O2S UAP d 301       8.513  18.392  13.542  0.00  0.00    -0.572 OA
ATOM    128  C4  UAP d 301       7.411  14.247  10.472  0.00  0.00    -0.034 C 
ATOM    129  O3S UAP d 301       7.478  19.357  11.542  0.00  0.00    -0.572 OA
ATOM    130  O1S UAP d 301       6.000  18.774  13.380  0.00  0.00    -0.572 OA
ATOM    131  S   UAP d 301       7.264  18.393  12.751  0.00  0.00     0.252 S 
ATOM    132  H   UAP d 301      10.027  14.948  11.827  0.00  0.00     0.134 H 
ATOM    133  H   UAP d 301       8.987  17.247  11.333  0.00  0.00     0.097 H 
ATOM    134  H   UAP d 301       9.460  16.450   9.088  0.00  0.00     0.210 HD
ATOM    135  H   UAP d 301       7.204  16.234   9.656  0.00  0.00     0.093 H 
ATOM    136  H   UAP d 301       6.872  13.738   9.755  0.00  0.00     0.085 H 
ATOM    137  C5  IDS d 305      23.363  10.181   9.113  0.00  0.00     0.152 C 
ATOM    138  O2  IDS d 305      23.058  13.148   7.014  0.00  0.00    -0.244 OA
ATOM    139  C6  IDS d 305      22.734   9.847  10.449  0.00  0.00     0.206 C 
ATOM    140  O61 IDS d 305      22.850  10.612  11.414  0.00  0.00    -0.646 OA
ATOM    141  O2S IDS d 305      25.047  14.488   6.466  0.00  0.00    -0.572 OA
ATOM    142  O62 IDS d 305      22.064   8.691  10.570  0.00  0.00    -0.646 OA
ATOM    143  O5  IDS d 305      24.071  11.470   9.214  0.00  0.00    -0.340 OA
ATOM    144  C3  IDS d 305      22.941  10.655   6.608  0.00  0.00     0.094 C 
ATOM    145  O4  IDS d 305      21.235  11.182   8.457  0.00  0.00    -0.348 OA
ATOM    146  O1S IDS d 305      22.776  15.506   6.433  0.00  0.00    -0.572 OA
ATOM    147  C2  IDS d 305      23.847  11.950   6.752  0.00  0.00     0.134 C 
ATOM    148  C1  IDS d 305      24.814  11.780   7.976  0.00  0.00     0.161 C 
ATOM    149  C4  IDS d 305      22.254  10.250   8.002  0.00  0.00     0.103 C 
ATOM    150  O3  IDS d 305      23.824   9.606   6.262  0.00  0.00    -0.390 OA
ATOM    151  S   IDS d 305      23.628  14.378   6.155  0.00  0.00     0.252 S 
ATOM    152  O3S IDS d 305      23.495  14.008   4.662  0.00  0.00    -0.572 OA
ATOM    153  H   IDS d 305      24.064   9.418   8.846  0.00  0.00     0.104 H 
ATOM    154  H   IDS d 305      22.169  10.834   5.890  0.00  0.00     0.091 H 
ATOM    155  H   IDS d 305      24.376  12.060   5.828  0.00  0.00     0.097 H 
ATOM    156  H   IDS d 305      25.296  12.724   8.125  0.00  0.00     0.133 H 
ATOM    157  H   IDS d 305      21.775   9.308   7.835  0.00  0.00     0.092 H 
ATOM    158  H   IDS d 305      24.492   9.503   6.957  0.00  0.00     0.210 HD
ENDROOT
TORSDOF 49
ENDMDL
MODEL 55
REMARK VINA RESULT:      -3.3      3.078     15.182
REMARK  0 active torsions:
REMARK  status: ('A' for Active; 'I' for Inactive)
REMARK       I    between atoms: N_1  and  C2_65 
REMARK       I    between atoms: N_1  and  S1_100 
REMARK       I    between atoms: O2S_4  and  S1_36 
REMARK       I    between atoms: O2S_5  and  S1_100 
REMARK       I    between atoms: C5_7  and  C6_64 
REMARK       I    between atoms: O3_11  and  C3_17 
REMARK       I    between atoms: C1_12  and  O4_28 
REMARK       I    between atoms: C5_13  and  C6_35 
REMARK       I    between atoms: C5_14  and  C6_52 
REMARK       I    between atoms: O2S_16  and  S1_75 
REMARK       I    between atoms: C2_18  and  O2_63 
REMARK       I    between atoms: C5_19  and  C6_22 
REMARK       I    between atoms: O2_20  and  C2_53 
REMARK       I    between atoms: O2_20  and  S_86 
REMARK       I    between atoms: O4_21  and  C1_67 
REMARK       I    between atoms: O4_21  and  C4_48 
REMARK       I    between atoms: O3_26  and  C3_72 
REMARK       I    between atoms: O4_28  and  C4_71 
REMARK       I    between atoms: O3_30  and  C3_94 
REMARK       I    between atoms: N_33  and  C2_82 
REMARK       I    between atoms: N_33  and  S1_75 
REMARK       I    between atoms: C6_35  and  O6_59 
REMARK       I    between atoms: S1_36  and  N_37 
REMARK       I    between atoms: S1_36  and  O1S_89 
REMARK       I    between atoms: S1_36  and  O3S_97 
REMARK       I    between atoms: N_37  and  C2_78 
REMARK       I    between atoms: C3_38  and  O3_81 
REMARK       I    between atoms: O4_39  and  C1_85 
REMARK       I    between atoms: O4_39  and  C4_69 
REMARK       I    between atoms: O3_40  and  C3_47 
REMARK       I    between atoms: O4_41  and  C1_76 
REMARK       I    between atoms: O4_41  and  C4_43 
REMARK       I    between atoms: S2_44  and  O6_80 
REMARK       I    between atoms: S_46  and  O2_57 
REMARK       I    between atoms: O3S_49  and  S1_75 
REMARK       I    between atoms: C1_54  and  O4_96 
REMARK       I    between atoms: O2_57  and  C2_66 
REMARK       I    between atoms: O6_58  and  C6_64 
REMARK       I    between atoms: O6_58  and  S2_101 
REMARK       I    between atoms: O6_59  and  S2_73 
REMARK       I    between atoms: O3_61  and  C3_77 
REMARK       I    between atoms: O2_63  and  S_104 
REMARK       I    between atoms: S1_75  and  O1S_92 
REMARK       I    between atoms: O6_80  and  C6_88 
REMARK       I    between atoms: C5_83  and  C6_88 
REMARK       I    between atoms: O3S_84  and  S1_100 
REMARK       I    between atoms: C5_87  and  C6_103 
REMARK       I    between atoms: O1S_91  and  S1_100 
REMARK       I    between atoms: O4_96  and  C4_99 
ROOT
ATOM      1  N   SGN d 304      16.771   6.915  16.403  0.00  0.00    -0.210 NA
ATOM      2  O2S SGN d 304      18.050   4.794  16.150  0.00  0.00    -0.296 OA
ATOM      3  C5  SGN d 304      15.821   7.049  12.335  0.00  0.00     0.091 C 
ATOM      4  O5S SGN d 304      16.415   6.819   8.302  0.00  0.00    -0.572 OA
ATOM      5  O3  SGN d 304      17.298   9.367  14.894  0.00  0.00    -0.391 OA
ATOM      6  C3  SGN d 304      16.449   8.348  14.398  0.00  0.00     0.083 C 
ATOM      7  O4  SGN d 304      16.458   9.432  12.208  0.00  0.00    -0.348 OA
ATOM      8  O5  SGN d 304      16.066   5.835  13.019  0.00  0.00    -0.349 OA
ATOM      9  C4  SGN d 304      16.721   8.174  12.897  0.00  0.00     0.095 C 
ATOM     10  O4S SGN d 304      14.962   4.780   8.090  0.00  0.00    -0.572 OA
ATOM     11  O6S SGN d 304      17.240   4.646   8.806  0.00  0.00    -0.572 OA
ATOM     12  O6  SGN d 304      15.445   5.742  10.227  0.00  0.00    -0.254 OA
ATOM     13  C6  SGN d 304      16.192   6.783  10.839  0.00  0.00     0.067 C 
ATOM     14  C2  SGN d 304      16.852   6.967  14.986  0.00  0.00     0.081 C 
ATOM     15  O3S SGN d 304      19.313   6.821  16.580  0.00  0.00    -0.296 OA
ATOM     16  C1  SGN d 304      15.881   5.900  14.476  0.00  0.00     0.150 C 
ATOM     17  O1S SGN d 304      17.941   6.018  18.390  0.00  0.00    -0.296 OA
ATOM     18  S1  SGN d 304      18.048   6.034  16.959  0.00  0.00     0.156 S 
ATOM     19  S2  SGN d 304      15.985   5.524   8.771  0.00  0.00     0.251 S 
ATOM     20  H   SGN d 304      15.897   6.470  16.684  0.00  0.00     0.140 HD
ATOM     21  H   SGN d 304      18.131   5.021  15.211  0.00  0.00     0.231 HD
ATOM     22  H   SGN d 304      14.803   7.358  12.449  0.00  0.00     0.090 H 
ATOM     23  H   SGN d 304      17.137   9.489  15.842  0.00  0.00     0.210 HD
ATOM     24  H   SGN d 304      15.443   8.623  14.640  0.00  0.00     0.089 H 
ATOM     25  H   SGN d 304      17.745   7.903  12.742  0.00  0.00     0.091 H 
ATOM     26  H   SGN d 304      17.229   6.523  10.792  0.00  0.00     0.080 H 
ATOM     27  H   SGN d 304      15.962   7.680  10.303  0.00  0.00     0.080 H 
ATOM     28  H   SGN d 304      17.863   6.801  14.681  0.00  0.00     0.076 H 
ATOM     29  H   SGN d 304      19.403   6.843  15.614  0.00  0.00     0.231 HD
ATOM     30  H   SGN d 304      16.030   4.904  14.837  0.00  0.00     0.131 H 
ATOM     31  H   SGN d 304      17.147   5.525  18.648  0.00  0.00     0.231 HD
ATOM     32  O6S SGN d 306       8.381   9.994  15.653  0.00  0.00    -0.572 OA
ATOM     33  O5S SGN d 306       7.717   9.874  17.983  0.00  0.00    -0.572 OA
ATOM     34  O2S SGN d 306       7.957   2.359  12.824  0.00  0.00    -0.296 OA
ATOM     35  C1  SGN d 306       7.233   4.291  15.464  0.00  0.00     0.038 C 
ATOM     36  N   SGN d 306       8.098   2.075  15.243  0.00  0.00    -0.212 NA
ATOM     37  O3  SGN d 306      10.517   2.746  16.303  0.00  0.00    -0.391 OA
ATOM     38  S2  SGN d 306       7.309   9.478  16.635  0.00  0.00     0.251 S 
ATOM     39  C3  SGN d 306       9.389   3.613  16.484  0.00  0.00     0.081 C 
ATOM     40  O3S SGN d 306      10.073   1.515  13.690  0.00  0.00    -0.296 OA
ATOM     41  O4S SGN d 306       6.013   9.804  16.093  0.00  0.00    -0.572 OA
ATOM     42  O5  SGN d 306       7.586   5.679  15.535  0.00  0.00    -0.379 OA
ATOM     43  S1  SGN d 306       8.520   1.405  13.813  0.00  0.00     0.156 S 
ATOM     44  O6  SGN d 306       7.338   7.950  16.683  0.00  0.00    -0.254 OA
ATOM     45  C2  SGN d 306       8.470   3.435  15.325  0.00  0.00     0.054 C 
ATOM     46  C5  SGN d 306       8.483   5.928  16.640  0.00  0.00     0.087 C 
ATOM     47  C6  SGN d 306       8.702   7.436  16.614  0.00  0.00     0.067 C 
ATOM     48  O1S SGN d 306       8.092   0.000  13.897  0.00  0.00    -0.296 OA
ATOM     49  O4  SGN d 306      10.762   5.304  17.635  0.00  0.00    -0.348 OA
ATOM     50  C4  SGN d 306       9.800   5.092  16.506  0.00  0.00     0.095 C 
ATOM     51  H   SGN d 306       8.373   3.227  12.938  0.00  0.00     0.231 HD
ATOM     52  H   SGN d 306       6.712   4.015  16.357  0.00  0.00     0.077 H 
ATOM     53  H   SGN d 306       6.608   4.137  14.609  0.00  0.00     0.077 H 
ATOM     54  H   SGN d 306       7.087   2.003  15.355  0.00  0.00     0.140 HD
ATOM     55  H   SGN d 306      10.216   1.824  16.295  0.00  0.00     0.210 HD
ATOM     56  H   SGN d 306       8.930   3.362  17.418  0.00  0.00     0.089 H 
ATOM     57  H   SGN d 306      10.329   2.450  13.637  0.00  0.00     0.231 HD
ATOM     58  H   SGN d 306       8.980   3.737  14.435  0.00  0.00     0.072 H 
ATOM     59  H   SGN d 306       8.085   5.619  17.585  0.00  0.00     0.090 H 
ATOM     60  H   SGN d 306       9.281   7.758  17.454  0.00  0.00     0.080 H 
ATOM     61  H   SGN d 306       9.244   7.775  15.756  0.00  0.00     0.080 H 
ATOM     62  H   SGN d 306       7.125  -0.039  13.972  0.00  0.00     0.231 HD
ATOM     63  H   SGN d 306      10.304   5.403  15.615  0.00  0.00     0.091 H 
ATOM     64  O6S SGN d 302      23.933  16.950  13.118  0.00  0.00    -0.572 OA
ATOM     65  O2S SGN d 302      17.191  14.494   8.914  0.00  0.00    -0.296 OA
ATOM     66  O5S SGN d 302      25.399  15.016  13.087  0.00  0.00    -0.572 OA
ATOM     67  C5  SGN d 302      22.268  13.987  10.556  0.00  0.00     0.091 C 
ATOM     68  O4  SGN d 302      24.022  13.941   8.875  0.00  0.00    -0.348 OA
ATOM     69  O3  SGN d 302      21.879  13.632   6.821  0.00  0.00    -0.391 OA
ATOM     70  C6  SGN d 302      23.242  14.774  11.454  0.00  0.00     0.067 C 
ATOM     71  S1  SGN d 302      17.617  14.100   7.597  0.00  0.00     0.156 S 
ATOM     72  N   SGN d 302      19.125  13.337   7.743  0.00  0.00    -0.210 NA
ATOM     73  O4S SGN d 302      23.712  15.463  14.949  0.00  0.00    -0.572 OA
ATOM     74  O6  SGN d 302      23.032  14.585  12.829  0.00  0.00    -0.254 OA
ATOM     75  O5  SGN d 302      20.874  14.388  10.858  0.00  0.00    -0.349 OA
ATOM     76  C4  SGN d 302      22.607  14.271   9.090  0.00  0.00     0.095 C 
ATOM     77  S2  SGN d 302      24.086  15.486  13.563  0.00  0.00     0.251 S 
ATOM     78  C1  SGN d 302      19.827  13.788   9.986  0.00  0.00     0.150 C 
ATOM     79  C2  SGN d 302      20.196  13.970   8.509  0.00  0.00     0.081 C 
ATOM     80  O1S SGN d 302      16.850  13.184   6.797  0.00  0.00    -0.296 OA
ATOM     81  C3  SGN d 302      21.613  13.431   8.204  0.00  0.00     0.083 C 
ATOM     82  O3S SGN d 302      17.736  15.428   6.868  0.00  0.00    -0.296 OA
ATOM     83  H   SGN d 302      17.084  13.705   9.469  0.00  0.00     0.231 HD
ATOM     84  H   SGN d 302      22.364  12.938  10.741  0.00  0.00     0.090 H 
ATOM     85  H   SGN d 302      22.765  13.299   6.610  0.00  0.00     0.210 HD
ATOM     86  H   SGN d 302      23.131  15.816  11.237  0.00  0.00     0.080 H 
ATOM     87  H   SGN d 302      24.224  14.409  11.238  0.00  0.00     0.080 H 
ATOM     88  H   SGN d 302      19.480  13.205   6.796  0.00  0.00     0.140 HD
ATOM     89  H   SGN d 302      22.487  15.299   8.818  0.00  0.00     0.091 H 
ATOM     90  H   SGN d 302      18.939  14.329  10.238  0.00  0.00     0.131 H 
ATOM     91  H   SGN d 302      20.261  15.002   8.233  0.00  0.00     0.076 H 
ATOM     92  H   SGN d 302      16.772  12.336   7.262  0.00  0.00     0.231 HD
ATOM     93  H   SGN d 302      21.713  12.388   8.421  0.00  0.00     0.089 H 
ATOM     94  H   SGN d 302      18.253  16.048   7.406  0.00  0.00     0.231 HD
ATOM     95  O5  IDS d 303      18.679   9.787  11.230  0.00  0.00    -0.340 OA
ATOM     96  O2S IDS d 303      15.128   9.190   8.704  0.00  0.00    -0.572 OA
ATOM     97  O4  IDS d 303      19.499  12.411  10.236  0.00  0.00    -0.348 OA
ATOM     98  O1S IDS d 303      16.374   9.941   6.657  0.00  0.00    -0.572 OA
ATOM     99  C4  IDS d 303      18.667  12.251  11.386  0.00  0.00     0.103 C 
ATOM    100  S   IDS d 303      15.832  10.203   7.943  0.00  0.00     0.252 S 
ATOM    101  O2  IDS d 303      17.073  10.696   8.874  0.00  0.00    -0.244 OA
ATOM    102  O3  IDS d 303      16.502  12.182  12.390  0.00  0.00    -0.390 OA
ATOM    103  O61 IDS d 303      21.394  10.162  11.770  0.00  0.00    -0.646 OA
ATOM    104  C2  IDS d 303      16.628  10.906  10.290  0.00  0.00     0.134 C 
ATOM    105  C1  IDS d 303      17.206   9.682  11.017  0.00  0.00     0.161 C 
ATOM    106  O3S IDS d 303      14.831  11.349   7.744  0.00  0.00    -0.572 OA
ATOM    107  C3  IDS d 303      17.122  12.235  11.093  0.00  0.00     0.094 C 
ATOM    108  C5  IDS d 303      19.087  10.940  12.065  0.00  0.00     0.152 C 
ATOM    109  O62 IDS d 303      21.167  11.998  12.984  0.00  0.00    -0.646 OA
ATOM    110  C6  IDS d 303      20.639  10.998  12.272  0.00  0.00     0.206 C 
ATOM    111  H   IDS d 303      18.810  13.107  12.012  0.00  0.00     0.092 H 
ATOM    112  H   IDS d 303      16.769  12.958  12.907  0.00  0.00     0.210 HD
ATOM    113  H   IDS d 303      15.566  11.038  10.268  0.00  0.00     0.097 H 
ATOM    114  H   IDS d 303      17.097   8.821  10.390  0.00  0.00     0.133 H 
ATOM    115  H   IDS d 303      16.872  13.084  10.492  0.00  0.00     0.091 H 
ATOM    116  H   IDS d 303      18.609  10.818  13.015  0.00  0.00     0.104 H 
ATOM    117  C1  UAP d 301      24.596  12.647   8.895  0.00  0.00     0.167 C 
ATOM    118  C5  UAP d 301      25.581  11.090   7.390  0.00  0.00     0.147 C 
ATOM    119  O61 UAP d 301      26.102   9.393   5.762  0.00  0.00    -0.642 OA
ATOM    120  C2  UAP d 301      26.014  12.785   9.613  0.00  0.00     0.135 C 
ATOM    121  O62 UAP d 301      24.542  10.891   5.131  0.00  0.00    -0.642 OA
ATOM    122  O3  UAP d 301      25.976  10.568  10.733  0.00  0.00    -0.389 OA
ATOM    123  O5  UAP d 301      24.773  12.179   7.535  0.00  0.00    -0.311 OA
ATOM    124  C6  UAP d 301      25.434  10.394   6.051  0.00  0.00     0.233 C 
ATOM    125  O2  UAP d 301      26.958  13.690   8.848  0.00  0.00    -0.244 OA
ATOM    126  C3  UAP d 301      26.639  11.330   9.689  0.00  0.00     0.086 C 
ATOM    127  O2S UAP d 301      25.804  15.634   9.817  0.00  0.00    -0.572 OA
ATOM    128  C4  UAP d 301      26.461  10.619   8.318  0.00  0.00    -0.034 C 
ATOM    129  O3S UAP d 301      27.826  14.894  10.986  0.00  0.00    -0.572 OA
ATOM    130  O1S UAP d 301      28.122  15.907   8.797  0.00  0.00    -0.572 OA
ATOM    131  S   UAP d 301      27.173  15.124   9.587  0.00  0.00     0.252 S 
ATOM    132  H   UAP d 301      23.971  11.950   9.413  0.00  0.00     0.134 H 
ATOM    133  H   UAP d 301      25.877  13.220  10.581  0.00  0.00     0.097 H 
ATOM    134  H   UAP d 301      26.091  11.018  11.585  0.00  0.00     0.210 HD
ATOM    135  H   UAP d 301      27.682  11.399   9.918  0.00  0.00     0.093 H 
ATOM    136  H   UAP d 301      27.018   9.777   8.106  0.00  0.00     0.085 H 
ATOM    137  C5  IDS d 305      12.113   6.027  15.092  0.00  0.00     0.152 C 
ATOM    138  O2  IDS d 305      14.286   6.551  17.973  0.00  0.00    -0.244 OA
ATOM    139  C6  IDS d 305      11.985   6.801  13.796  0.00  0.00     0.206 C 
ATOM    140  O61 IDS d 305      11.778   8.020  13.804  0.00  0.00    -0.646 OA
ATOM    141  O2S IDS d 305      13.319   6.969  20.196  0.00  0.00    -0.572 OA
ATOM    142  O62 IDS d 305      12.081   6.131  12.638  0.00  0.00    -0.646 OA
ATOM    143  O5  IDS d 305      11.943   6.947  16.230  0.00  0.00    -0.340 OA
ATOM    144  C3  IDS d 305      13.644   4.553  16.562  0.00  0.00     0.094 C 
ATOM    145  O4  IDS d 305      14.529   6.345  14.945  0.00  0.00    -0.348 OA
ATOM    146  O1S IDS d 305      15.611   7.759  19.636  0.00  0.00    -0.572 OA
ATOM    147  C2  IDS d 305      13.293   5.499  17.787  0.00  0.00     0.134 C 
ATOM    148  C1  IDS d 305      11.927   6.222  17.517  0.00  0.00     0.161 C 
ATOM    149  C4  IDS d 305      13.516   5.324  15.158  0.00  0.00     0.103 C 
ATOM    150  O3  IDS d 305      12.660   3.538  16.567  0.00  0.00    -0.390 OA
ATOM    151  S   IDS d 305      14.597   6.741  19.536  0.00  0.00     0.252 S 
ATOM    152  O3S IDS d 305      15.174   5.409  20.064  0.00  0.00    -0.572 OA
ATOM    153  H   IDS d 305      11.354   5.274  15.136  0.00  0.00     0.104 H 
ATOM    154  H   IDS d 305      14.647   4.194  16.660  0.00  0.00     0.091 H 
ATOM    155  H   IDS d 305      13.260   4.876  18.657  0.00  0.00     0.097 H 
ATOM    156  H   IDS d 305      11.804   6.952  18.290  0.00  0.00     0.133 H 
ATOM    157  H   IDS d 305      13.646   4.581  14.399  0.00  0.00     0.092 H 
ATOM    158  H   IDS d 305      11.782   3.939  16.474  0.00  0.00     0.210 HD
ENDROOT
TORSDOF 49
ENDMDL
MODEL 56
REMARK VINA RESULT:      -3.0      5.410     13.481
REMARK  0 active torsions:
REMARK  status: ('A' for Active; 'I' for Inactive)
REMARK       I    between atoms: N_1  and  C2_65 
REMARK       I    between atoms: N_1  and  S1_100 
REMARK       I    between atoms: O2S_4  and  S1_36 
REMARK       I    between atoms: O2S_5  and  S1_100 
REMARK       I    between atoms: C5_7  and  C6_64 
REMARK       I    between atoms: O3_11  and  C3_17 
REMARK       I    between atoms: C1_12  and  O4_28 
REMARK       I    between atoms: C5_13  and  C6_35 
REMARK       I    between atoms: C5_14  and  C6_52 
REMARK       I    between atoms: O2S_16  and  S1_75 
REMARK       I    between atoms: C2_18  and  O2_63 
REMARK       I    between atoms: C5_19  and  C6_22 
REMARK       I    between atoms: O2_20  and  C2_53 
REMARK       I    between atoms: O2_20  and  S_86 
REMARK       I    between atoms: O4_21  and  C1_67 
REMARK       I    between atoms: O4_21  and  C4_48 
REMARK       I    between atoms: O3_26  and  C3_72 
REMARK       I    between atoms: O4_28  and  C4_71 
REMARK       I    between atoms: O3_30  and  C3_94 
REMARK       I    between atoms: N_33  and  C2_82 
REMARK       I    between atoms: N_33  and  S1_75 
REMARK       I    between atoms: C6_35  and  O6_59 
REMARK       I    between atoms: S1_36  and  N_37 
REMARK       I    between atoms: S1_36  and  O1S_89 
REMARK       I    between atoms: S1_36  and  O3S_97 
REMARK       I    between atoms: N_37  and  C2_78 
REMARK       I    between atoms: C3_38  and  O3_81 
REMARK       I    between atoms: O4_39  and  C1_85 
REMARK       I    between atoms: O4_39  and  C4_69 
REMARK       I    between atoms: O3_40  and  C3_47 
REMARK       I    between atoms: O4_41  and  C1_76 
REMARK       I    between atoms: O4_41  and  C4_43 
REMARK       I    between atoms: S2_44  and  O6_80 
REMARK       I    between atoms: S_46  and  O2_57 
REMARK       I    between atoms: O3S_49  and  S1_75 
REMARK       I    between atoms: C1_54  and  O4_96 
REMARK       I    between atoms: O2_57  and  C2_66 
REMARK       I    between atoms: O6_58  and  C6_64 
REMARK       I    between atoms: O6_58  and  S2_101 
REMARK       I    between atoms: O6_59  and  S2_73 
REMARK       I    between atoms: O3_61  and  C3_77 
REMARK       I    between atoms: O2_63  and  S_104 
REMARK       I    between atoms: S1_75  and  O1S_92 
REMARK       I    between atoms: O6_80  and  C6_88 
REMARK       I    between atoms: C5_83  and  C6_88 
REMARK       I    between atoms: O3S_84  and  S1_100 
REMARK       I    between atoms: C5_87  and  C6_103 
REMARK       I    between atoms: O1S_91  and  S1_100 
REMARK       I    between atoms: O4_96  and  C4_99 
ROOT
ATOM      1  N   SGN d 304      16.200  14.111  11.377  0.00  0.00    -0.210 NA
ATOM      2  O2S SGN d 304      17.508  16.078  12.163  0.00  0.00    -0.296 OA
ATOM      3  C5  SGN d 304      17.628  11.687  14.469  0.00  0.00     0.091 C 
ATOM      4  O5S SGN d 304      20.343  10.017  17.021  0.00  0.00    -0.572 OA
ATOM      5  O3  SGN d 304      17.351  11.498  10.729  0.00  0.00    -0.391 OA
ATOM      6  C3  SGN d 304      16.962  11.841  12.046  0.00  0.00     0.083 C 
ATOM      7  O4  SGN d 304      18.118   9.857  12.884  0.00  0.00    -0.348 OA
ATOM      8  O5  SGN d 304      17.516  13.092  14.594  0.00  0.00    -0.349 OA
ATOM      9  C4  SGN d 304      18.020  11.306  13.023  0.00  0.00     0.095 C 
ATOM     10  O4S SGN d 304      19.342  11.165  19.019  0.00  0.00    -0.572 OA
ATOM     11  O6S SGN d 304      20.859  12.278  17.544  0.00  0.00    -0.572 OA
ATOM     12  O6  SGN d 304      18.530  11.589  16.809  0.00  0.00    -0.254 OA
ATOM     13  C6  SGN d 304      18.770  11.258  15.448  0.00  0.00     0.067 C 
ATOM     14  C2  SGN d 304      17.042  13.379  12.258  0.00  0.00     0.081 C 
ATOM     15  O3S SGN d 304      18.232  14.996  10.116  0.00  0.00    -0.296 OA
ATOM     16  C1  SGN d 304      16.561  13.719  13.669  0.00  0.00     0.150 C 
ATOM     17  O1S SGN d 304      16.133  16.172  10.012  0.00  0.00    -0.296 OA
ATOM     18  S1  SGN d 304      17.005  15.471  10.909  0.00  0.00     0.156 S 
ATOM     19  S2  SGN d 304      19.789  11.188  17.653  0.00  0.00     0.251 S 
ATOM     20  H   SGN d 304      15.338  14.367  11.857  0.00  0.00     0.140 HD
ATOM     21  H   SGN d 304      18.079  15.443  12.623  0.00  0.00     0.231 HD
ATOM     22  H   SGN d 304      16.701  11.204  14.695  0.00  0.00     0.090 H 
ATOM     23  H   SGN d 304      16.693  11.829  10.100  0.00  0.00     0.210 HD
ATOM     24  H   SGN d 304      15.976  11.453  12.200  0.00  0.00     0.089 H 
ATOM     25  H   SGN d 304      18.972  11.739  12.800  0.00  0.00     0.091 H 
ATOM     26  H   SGN d 304      19.674  11.740  15.140  0.00  0.00     0.080 H 
ATOM     27  H   SGN d 304      18.828  10.191  15.400  0.00  0.00     0.080 H 
ATOM     28  H   SGN d 304      18.061  13.647  12.080  0.00  0.00     0.076 H 
ATOM     29  H   SGN d 304      18.835  14.518  10.707  0.00  0.00     0.231 HD
ATOM     30  H   SGN d 304      16.534  14.756  13.930  0.00  0.00     0.131 H 
ATOM     31  H   SGN d 304      15.351  16.480  10.497  0.00  0.00     0.231 HD
ATOM     32  O6S SGN d 306       9.457   8.842  14.061  0.00  0.00    -0.572 OA
ATOM     33  O5S SGN d 306       7.632   9.923  12.883  0.00  0.00    -0.572 OA
ATOM     34  O2S SGN d 306      11.012  13.537  20.543  0.00  0.00    -0.296 OA
ATOM     35  C1  SGN d 306       8.870  13.080  18.006  0.00  0.00     0.038 C 
ATOM     36  N   SGN d 306       9.819  15.025  19.020  0.00  0.00    -0.212 NA
ATOM     37  O3  SGN d 306      11.227  15.694  16.786  0.00  0.00    -0.391 OA
ATOM     38  S2  SGN d 306       8.047   9.453  14.205  0.00  0.00     0.251 S 
ATOM     39  C3  SGN d 306      10.145  14.757  16.698  0.00  0.00     0.081 C 
ATOM     40  O3S SGN d 306      12.346  15.261  19.451  0.00  0.00    -0.296 OA
ATOM     41  O4S SGN d 306       7.246   8.548  14.991  0.00  0.00    -0.572 OA
ATOM     42  O5  SGN d 306       9.061  12.082  16.994  0.00  0.00    -0.379 OA
ATOM     43  S1  SGN d 306      10.986  14.973  20.164  0.00  0.00     0.156 S 
ATOM     44  O6  SGN d 306       8.118  10.734  15.038  0.00  0.00    -0.254 OA
ATOM     45  C2  SGN d 306      10.021  14.061  18.009  0.00  0.00     0.054 C 
ATOM     46  C5  SGN d 306       9.193  12.689  15.690  0.00  0.00     0.087 C 
ATOM     47  C6  SGN d 306       9.320  11.505  14.737  0.00  0.00     0.067 C 
ATOM     48  O1S SGN d 306      10.649  16.041  21.117  0.00  0.00    -0.296 OA
ATOM     49  O4  SGN d 306      10.583  14.343  14.309  0.00  0.00    -0.348 OA
ATOM     50  C4  SGN d 306      10.406  13.677  15.639  0.00  0.00     0.095 C 
ATOM     51  H   SGN d 306      11.256  13.003  19.771  0.00  0.00     0.231 HD
ATOM     52  H   SGN d 306       7.959  13.608  17.813  0.00  0.00     0.077 H 
ATOM     53  H   SGN d 306       8.823  12.600  18.961  0.00  0.00     0.077 H 
ATOM     54  H   SGN d 306       8.916  14.853  19.463  0.00  0.00     0.140 HD
ATOM     55  H   SGN d 306      11.024  16.358  17.464  0.00  0.00     0.210 HD
ATOM     56  H   SGN d 306       9.263  15.302  16.433  0.00  0.00     0.089 H 
ATOM     57  H   SGN d 306      12.544  14.543  18.829  0.00  0.00     0.231 HD
ATOM     58  H   SGN d 306      10.920  13.511  18.190  0.00  0.00     0.072 H 
ATOM     59  H   SGN d 306       8.358  13.303  15.422  0.00  0.00     0.090 H 
ATOM     60  H   SGN d 306       9.328  11.829  13.717  0.00  0.00     0.080 H 
ATOM     61  H   SGN d 306      10.226  10.951  14.860  0.00  0.00     0.080 H 
ATOM     62  H   SGN d 306       9.802  15.838  21.545  0.00  0.00     0.231 HD
ATOM     63  H   SGN d 306      11.300  13.118  15.819  0.00  0.00     0.091 H 
ATOM     64  O6S SGN d 302      23.510   6.290   4.433  0.00  0.00    -0.572 OA
ATOM     65  O2S SGN d 302      20.294   4.275  11.833  0.00  0.00    -0.296 OA
ATOM     66  O5S SGN d 302      24.842   8.270   4.874  0.00  0.00    -0.572 OA
ATOM     67  C5  SGN d 302      23.661   6.951   8.635  0.00  0.00     0.091 C 
ATOM     68  O4  SGN d 302      26.049   6.641   8.960  0.00  0.00    -0.348 OA
ATOM     69  O3  SGN d 302      25.397   5.255  11.521  0.00  0.00    -0.391 OA
ATOM     70  C6  SGN d 302      23.946   7.036   7.123  0.00  0.00     0.067 C 
ATOM     71  S1  SGN d 302      21.390   4.055  12.740  0.00  0.00     0.156 S 
ATOM     72  N   SGN d 302      22.606   5.179  12.371  0.00  0.00    -0.210 NA
ATOM     73  O4S SGN d 302      22.392   8.363   4.166  0.00  0.00    -0.572 OA
ATOM     74  O6  SGN d 302      23.026   7.822   6.411  0.00  0.00    -0.254 OA
ATOM     75  O5  SGN d 302      22.312   6.381   8.859  0.00  0.00    -0.349 OA
ATOM     76  C4  SGN d 302      24.734   6.079   9.293  0.00  0.00     0.095 C 
ATOM     77  S2  SGN d 302      23.462   7.753   4.904  0.00  0.00     0.251 S 
ATOM     78  C1  SGN d 302      21.943   6.136  10.280  0.00  0.00     0.150 C 
ATOM     79  C2  SGN d 302      23.051   5.350  10.990  0.00  0.00     0.081 C 
ATOM     80  O1S SGN d 302      21.230   4.184  14.163  0.00  0.00    -0.296 OA
ATOM     81  C3  SGN d 302      24.427   6.038  10.836  0.00  0.00     0.083 C 
ATOM     82  O3S SGN d 302      21.826   2.637  12.408  0.00  0.00    -0.296 OA
ATOM     83  H   SGN d 302      19.938   5.167  11.966  0.00  0.00     0.231 HD
ATOM     84  H   SGN d 302      23.689   7.929   9.069  0.00  0.00     0.090 H 
ATOM     85  H   SGN d 302      26.269   5.672  11.436  0.00  0.00     0.210 HD
ATOM     86  H   SGN d 302      23.923   6.044   6.721  0.00  0.00     0.080 H 
ATOM     87  H   SGN d 302      24.902   7.503   7.014  0.00  0.00     0.080 H 
ATOM     88  H   SGN d 302      23.428   4.912  12.913  0.00  0.00     0.140 HD
ATOM     89  H   SGN d 302      24.733   5.069   8.940  0.00  0.00     0.091 H 
ATOM     90  H   SGN d 302      21.038   5.570  10.218  0.00  0.00     0.131 H 
ATOM     91  H   SGN d 302      23.209   4.387  10.551  0.00  0.00     0.076 H 
ATOM     92  H   SGN d 302      20.951   5.088  14.376  0.00  0.00     0.231 HD
ATOM     93  H   SGN d 302      24.441   7.028  11.244  0.00  0.00     0.089 H 
ATOM     94  H   SGN d 302      21.934   2.548  11.448  0.00  0.00     0.231 HD
ATOM     95  O5  IDS d 303      20.492   9.704  12.289  0.00  0.00    -0.340 OA
ATOM     96  O2S IDS d 303      18.937   7.918  15.994  0.00  0.00    -0.572 OA
ATOM     97  O4  IDS d 303      21.597   7.294  11.059  0.00  0.00    -0.348 OA
ATOM     98  O1S IDS d 303      21.063   6.628  16.345  0.00  0.00    -0.572 OA
ATOM     99  C4  IDS d 303      20.280   7.767  10.773  0.00  0.00     0.103 C 
ATOM    100  S   IDS d 303      19.893   6.907  15.589  0.00  0.00     0.252 S 
ATOM    101  O2  IDS d 303      20.397   7.323  14.099  0.00  0.00    -0.244 OA
ATOM    102  O3  IDS d 303      17.925   7.715  11.161  0.00  0.00    -0.390 OA
ATOM    103  O61 IDS d 303      22.447  10.438  10.433  0.00  0.00    -0.646 OA
ATOM    104  C2  IDS d 303      19.240   7.738  13.240  0.00  0.00     0.134 C 
ATOM    105  C1  IDS d 303      19.383   9.267  13.186  0.00  0.00     0.161 C 
ATOM    106  O3S IDS d 303      19.112   5.587  15.535  0.00  0.00    -0.572 OA
ATOM    107  C3  IDS d 303      19.151   7.196  11.707  0.00  0.00     0.094 C 
ATOM    108  C5  IDS d 303      20.321   9.298  10.875  0.00  0.00     0.152 C 
ATOM    109  O62 IDS d 303      21.505   9.485   8.672  0.00  0.00    -0.646 OA
ATOM    110  C6  IDS d 303      21.502   9.794   9.972  0.00  0.00     0.206 C 
ATOM    111  H   IDS d 303      20.016   7.423   9.795  0.00  0.00     0.092 H 
ATOM    112  H   IDS d 303      17.828   7.416  10.243  0.00  0.00     0.210 HD
ATOM    113  H   IDS d 303      18.359   7.318  13.679  0.00  0.00     0.097 H 
ATOM    114  H   IDS d 303      19.676   9.624  14.151  0.00  0.00     0.133 H 
ATOM    115  H   IDS d 303      19.231   6.129  11.738  0.00  0.00     0.091 H 
ATOM    116  H   IDS d 303      19.407   9.739  10.534  0.00  0.00     0.104 H 
ATOM    117  C1  UAP d 301      26.578   7.871   9.420  0.00  0.00     0.167 C 
ATOM    118  C5  UAP d 301      28.299   8.665  10.858  0.00  0.00     0.147 C 
ATOM    119  O61 UAP d 301      29.706   9.381  12.678  0.00  0.00    -0.642 OA
ATOM    120  C2  UAP d 301      27.364   8.520   8.192  0.00  0.00     0.135 C 
ATOM    121  O62 UAP d 301      28.677   7.399  12.973  0.00  0.00    -0.642 OA
ATOM    122  O3  UAP d 301      26.823  10.883   8.735  0.00  0.00    -0.389 OA
ATOM    123  O5  UAP d 301      27.493   7.620  10.515  0.00  0.00    -0.311 OA
ATOM    124  C6  UAP d 301      28.942   8.520  12.223  0.00  0.00     0.233 C 
ATOM    125  O2  UAP d 301      28.529   7.664   7.739  0.00  0.00    -0.244 OA
ATOM    126  C3  UAP d 301      27.913   9.925   8.683  0.00  0.00     0.086 C 
ATOM    127  O2S UAP d 301      26.942   6.236   6.517  0.00  0.00    -0.572 OA
ATOM    128  C4  UAP d 301      28.548   9.765  10.093  0.00  0.00    -0.034 C 
ATOM    129  O3S UAP d 301      28.026   8.001   5.207  0.00  0.00    -0.572 OA
ATOM    130  O1S UAP d 301      29.424   6.157   5.951  0.00  0.00    -0.572 OA
ATOM    131  S   UAP d 301      28.235   6.925   6.319  0.00  0.00     0.252 S 
ATOM    132  H   UAP d 301      25.806   8.523   9.769  0.00  0.00     0.134 H 
ATOM    133  H   UAP d 301      26.698   8.613   7.359  0.00  0.00     0.097 H 
ATOM    134  H   UAP d 301      26.432  10.977   7.853  0.00  0.00     0.210 HD
ATOM    135  H   UAP d 301      28.656  10.279   8.000  0.00  0.00     0.093 H 
ATOM    136  H   UAP d 301      29.169  10.505  10.457  0.00  0.00     0.085 H 
ATOM    137  C5  IDS d 305      13.069  12.857  14.959  0.00  0.00     0.152 C 
ATOM    138  O2  IDS d 305      13.282  14.493  11.706  0.00  0.00    -0.244 OA
ATOM    139  C6  IDS d 305      13.635  11.538  15.441  0.00  0.00     0.206 C 
ATOM    140  O61 IDS d 305      13.400  10.487  14.832  0.00  0.00    -0.646 OA
ATOM    141  O2S IDS d 305      11.237  14.994  10.434  0.00  0.00    -0.572 OA
ATOM    142  O62 IDS d 305      14.381  11.531  16.556  0.00  0.00    -0.646 OA
ATOM    143  O5  IDS d 305      12.260  12.630  13.748  0.00  0.00    -0.340 OA
ATOM    144  C3  IDS d 305      13.613  15.233  14.101  0.00  0.00     0.094 C 
ATOM    145  O4  IDS d 305      15.153  13.208  13.736  0.00  0.00    -0.348 OA
ATOM    146  O1S IDS d 305      13.422  14.717   9.275  0.00  0.00    -0.572 OA
ATOM    147  C2  IDS d 305      12.604  14.977  12.903  0.00  0.00     0.134 C 
ATOM    148  C1  IDS d 305      11.577  13.865  13.312  0.00  0.00     0.161 C 
ATOM    149  C4  IDS d 305      14.238  13.862  14.658  0.00  0.00     0.103 C 
ATOM    150  O3  IDS d 305      12.836  15.787  15.145  0.00  0.00    -0.390 OA
ATOM    151  S   IDS d 305      12.677  15.211  10.405  0.00  0.00     0.252 S 
ATOM    152  O3S IDS d 305      12.933  16.727  10.545  0.00  0.00    -0.572 OA
ATOM    153  H   IDS d 305      12.446  13.280  15.720  0.00  0.00     0.104 H 
ATOM    154  H   IDS d 305      14.414  15.861  13.770  0.00  0.00     0.091 H 
ATOM    155  H   IDS d 305      12.130  15.914  12.695  0.00  0.00     0.097 H 
ATOM    156  H   IDS d 305      11.016  13.621  12.433  0.00  0.00     0.133 H 
ATOM    157  H   IDS d 305      14.797  14.124  15.532  0.00  0.00     0.092 H 
ATOM    158  H   IDS d 305      12.135  15.164  15.391  0.00  0.00     0.210 HD
ENDROOT
TORSDOF 49
ENDMDL
