REMARK  0 active torsions:
REMARK  status: ('A' for Active; 'I' for Inactive)
REMARK       I    between atoms: N_1  and  C2_65 
REMARK       I    between atoms: N_1  and  S1_100 
REMARK       I    between atoms: O2S_4  and  S1_36 
REMARK       I    between atoms: O2S_5  and  S1_100 
REMARK       I    between atoms: C5_7  and  C6_64 
REMARK       I    between atoms: O3_11  and  C3_17 
REMARK       I    between atoms: C1_12  and  O4_28 
REMARK       I    between atoms: C5_13  and  C6_35 
REMARK       I    between atoms: C5_14  and  C6_52 
REMARK       I    between atoms: O2S_16  and  S1_75 
REMARK       I    between atoms: C2_18  and  O2_63 
REMARK       I    between atoms: C5_19  and  C6_22 
REMARK       I    between atoms: O2_20  and  C2_53 
REMARK       I    between atoms: O2_20  and  S_86 
REMARK       I    between atoms: O4_21  and  C1_67 
REMARK       I    between atoms: O4_21  and  C4_48 
REMARK       I    between atoms: O3_26  and  C3_72 
REMARK       I    between atoms: O4_28  and  C4_71 
REMARK       I    between atoms: O3_30  and  C3_94 
REMARK       I    between atoms: N_33  and  C2_82 
REMARK       I    between atoms: N_33  and  S1_75 
REMARK       I    between atoms: C6_35  and  O6_59 
REMARK       I    between atoms: S1_36  and  N_37 
REMARK       I    between atoms: S1_36  and  O1S_89 
REMARK       I    between atoms: S1_36  and  O3S_97 
REMARK       I    between atoms: N_37  and  C2_78 
REMARK       I    between atoms: C3_38  and  O3_81 
REMARK       I    between atoms: O4_39  and  C1_85 
REMARK       I    between atoms: O4_39  and  C4_69 
REMARK       I    between atoms: O3_40  and  C3_47 
REMARK       I    between atoms: O4_41  and  C1_76 
REMARK       I    between atoms: O4_41  and  C4_43 
REMARK       I    between atoms: S2_44  and  O6_80 
REMARK       I    between atoms: S_46  and  O2_57 
REMARK       I    between atoms: O3S_49  and  S1_75 
REMARK       I    between atoms: C1_54  and  O4_96 
REMARK       I    between atoms: O2_57  and  C2_66 
REMARK       I    between atoms: O6_58  and  C6_64 
REMARK       I    between atoms: O6_58  and  S2_101 
REMARK       I    between atoms: O6_59  and  S2_73 
REMARK       I    between atoms: O3_61  and  C3_77 
REMARK       I    between atoms: O2_63  and  S_104 
REMARK       I    between atoms: S1_75  and  O1S_92 
REMARK       I    between atoms: O6_80  and  C6_88 
REMARK       I    between atoms: C5_83  and  C6_88 
REMARK       I    between atoms: O3S_84  and  S1_100 
REMARK       I    between atoms: C5_87  and  C6_103 
REMARK       I    between atoms: O1S_91  and  S1_100 
REMARK       I    between atoms: O4_96  and  C4_99 
ROOT
ATOM      1  N   SGN d 304      21.329  14.862  12.921  0.00  0.00    -0.210 NA
ATOM      2  O2S SGN d 304      19.987  16.643  14.028  0.00  0.00    -0.296 OA
ATOM      3  C5  SGN d 304      18.380  14.166  10.042  0.00  0.00     0.091 C 
ATOM      4  O5S SGN d 304      14.635  13.558   8.532  0.00  0.00    -0.572 OA
ATOM      5  O3  SGN d 304      20.401  12.124  12.459  0.00  0.00    -0.391 OA
ATOM      6  C3  SGN d 304      20.139  13.170  11.542  0.00  0.00     0.083 C 
ATOM      7  O4  SGN d 304      18.550  11.725  10.377  0.00  0.00    -0.348 OA
ATOM      8  O5  SGN d 304      18.544  15.421  10.674  0.00  0.00    -0.349 OA
ATOM      9  C4  SGN d 304      18.699  13.020  11.030  0.00  0.00     0.095 C 
ATOM     10  O4S SGN d 304      14.652  15.749   7.302  0.00  0.00    -0.572 OA
ATOM     11  O6S SGN d 304      14.137  15.606   9.633  0.00  0.00    -0.572 OA
ATOM     12  O6  SGN d 304      16.460  15.118   8.736  0.00  0.00    -0.254 OA
ATOM     13  C6  SGN d 304      16.875  14.089   9.623  0.00  0.00     0.067 C 
ATOM     14  C2  SGN d 304      20.106  14.542  12.272  0.00  0.00     0.081 C 
ATOM     15  O3S SGN d 304      20.242  14.537  15.205  0.00  0.00    -0.296 OA
ATOM     16  C1  SGN d 304      19.878  15.653  11.246  0.00  0.00     0.150 C 
ATOM     17  O1S SGN d 304      22.229  15.881  14.987  0.00  0.00    -0.296 OA
ATOM     18  S1  SGN d 304      20.974  15.589  14.357  0.00  0.00     0.156 S 
ATOM     19  S2  SGN d 304      14.920  14.971   8.480  0.00  0.00     0.251 S 
ATOM     20  H   SGN d 304      21.874  15.497  12.338  0.00  0.00     0.140 HD
ATOM     21  H   SGN d 304      19.211  16.240  13.609  0.00  0.00     0.231 HD
ATOM     22  H   SGN d 304      19.037  14.067   9.203  0.00  0.00     0.090 H 
ATOM     23  H   SGN d 304      21.308  12.205  12.792  0.00  0.00     0.210 HD
ATOM     24  H   SGN d 304      20.890  13.125  10.781  0.00  0.00     0.089 H 
ATOM     25  H   SGN d 304      18.014  13.074  11.850  0.00  0.00     0.091 H 
ATOM     26  H   SGN d 304      16.277  14.149  10.509  0.00  0.00     0.080 H 
ATOM     27  H   SGN d 304      16.751  13.165   9.098  0.00  0.00     0.080 H 
ATOM     28  H   SGN d 304      19.326  14.469  13.000  0.00  0.00     0.076 H 
ATOM     29  H   SGN d 304      19.389  14.326  14.794  0.00  0.00     0.231 HD
ATOM     30  H   SGN d 304      19.869  16.656  11.619  0.00  0.00     0.131 H 
ATOM     31  H   SGN d 304      22.706  16.545  14.465  0.00  0.00     0.231 HD
ATOM     32  O6S SGN d 306      25.449  13.224   5.125  0.00  0.00    -0.572 OA
ATOM     33  O5S SGN d 306      27.704  13.877   5.737  0.00  0.00    -0.572 OA
ATOM     34  O2S SGN d 306      21.400  20.178   3.811  0.00  0.00    -0.296 OA
ATOM     35  C1  SGN d 306      24.446  18.911   4.399  0.00  0.00     0.038 C 
ATOM     36  N   SGN d 306      23.306  20.864   5.172  0.00  0.00    -0.212 NA
ATOM     37  O3  SGN d 306      23.211  19.979   7.747  0.00  0.00    -0.391 OA
ATOM     38  S2  SGN d 306      26.664  14.089   4.730  0.00  0.00     0.251 S 
ATOM     39  C3  SGN d 306      24.113  19.371   6.813  0.00  0.00     0.081 C 
ATOM     40  O3S SGN d 306      20.916  20.778   6.124  0.00  0.00    -0.296 OA
ATOM     41  O4S SGN d 306      26.904  13.904   3.320  0.00  0.00    -0.572 OA
ATOM     42  O5  SGN d 306      24.676  17.518   4.652  0.00  0.00    -0.379 OA
ATOM     43  S1  SGN d 306      21.734  21.180   4.855  0.00  0.00     0.156 S 
ATOM     44  O6  SGN d 306      26.318  15.571   4.875  0.00  0.00    -0.254 OA
ATOM     45  C2  SGN d 306      23.529  19.497   5.448  0.00  0.00     0.054 C 
ATOM     46  C5  SGN d 306      25.242  17.319   5.966  0.00  0.00     0.087 C 
ATOM     47  C6  SGN d 306      25.483  15.816   6.047  0.00  0.00     0.067 C 
ATOM     48  O1S SGN d 306      21.666  22.630   4.617  0.00  0.00    -0.296 OA
ATOM     49  O4  SGN d 306      24.842  17.700   8.470  0.00  0.00    -0.348 OA
ATOM     50  C4  SGN d 306      24.297  17.872   7.085  0.00  0.00     0.095 C 
ATOM     51  H   SGN d 306      21.510  19.285   4.173  0.00  0.00     0.231 HD
ATOM     52  H   SGN d 306      25.381  19.431   4.419  0.00  0.00     0.077 H 
ATOM     53  H   SGN d 306      23.985  19.016   3.439  0.00  0.00     0.077 H 
ATOM     54  H   SGN d 306      23.865  21.131   4.362  0.00  0.00     0.140 HD
ATOM     55  H   SGN d 306      23.122  20.923   7.542  0.00  0.00     0.210 HD
ATOM     56  H   SGN d 306      25.059  19.863   6.905  0.00  0.00     0.089 H 
ATOM     57  H   SGN d 306      20.977  19.819   6.258  0.00  0.00     0.231 HD
ATOM     58  H   SGN d 306      22.608  18.954   5.419  0.00  0.00     0.072 H 
ATOM     59  H   SGN d 306      26.154  17.858   6.120  0.00  0.00     0.090 H 
ATOM     60  H   SGN d 306      25.995  15.554   6.949  0.00  0.00     0.080 H 
ATOM     61  H   SGN d 306      24.583  15.238   6.060  0.00  0.00     0.080 H 
ATOM     62  H   SGN d 306      22.181  22.852   3.825  0.00  0.00     0.231 HD
ATOM     63  H   SGN d 306      23.380  17.322   7.050  0.00  0.00     0.091 H 
ATOM     64  O6S SGN d 302      17.586   3.297  16.801  0.00  0.00    -0.572 OA
ATOM     65  O2S SGN d 302      16.654   6.104   9.028  0.00  0.00    -0.296 OA
ATOM     66  O5S SGN d 302      16.389   4.905  18.169  0.00  0.00    -0.572 OA
ATOM     67  C5  SGN d 302      15.494   5.996  14.260  0.00  0.00     0.091 C 
ATOM     68  O4  SGN d 302      13.227   5.429  14.925  0.00  0.00    -0.348 OA
ATOM     69  O3  SGN d 302      12.440   5.736  12.062  0.00  0.00    -0.391 OA
ATOM     70  C6  SGN d 302      15.980   5.225  15.502  0.00  0.00     0.067 C 
ATOM     71  S1  SGN d 302      15.243   6.173   8.755  0.00  0.00     0.156 S 
ATOM     72  N   SGN d 302      14.460   6.672  10.175  0.00  0.00    -0.210 NA
ATOM     73  O4S SGN d 302      18.875   5.105  17.628  0.00  0.00    -0.572 OA
ATOM     74  O6  SGN d 302      17.195   5.693  16.027  0.00  0.00    -0.254 OA
ATOM     75  O5  SGN d 302      16.512   5.908  13.187  0.00  0.00    -0.349 OA
ATOM     76  C4  SGN d 302      14.164   5.398  13.794  0.00  0.00     0.095 C 
ATOM     77  S2  SGN d 302      17.532   4.767  17.249  0.00  0.00     0.251 S 
ATOM     78  C1  SGN d 302      16.129   6.516  11.883  0.00  0.00     0.150 C 
ATOM     79  C2  SGN d 302      14.751   6.009  11.444  0.00  0.00     0.081 C 
ATOM     80  O1S SGN d 302      14.710   7.050   7.748  0.00  0.00    -0.296 OA
ATOM     81  C3  SGN d 302      13.686   6.226  12.544  0.00  0.00     0.083 C 
ATOM     82  O3S SGN d 302      14.894   4.735   8.406  0.00  0.00    -0.296 OA
ATOM     83  H   SGN d 302      16.981   6.986   9.265  0.00  0.00     0.231 HD
ATOM     84  H   SGN d 302      15.349   7.028  14.502  0.00  0.00     0.090 H 
ATOM     85  H   SGN d 302      11.758   5.864  12.740  0.00  0.00     0.210 HD
ATOM     86  H   SGN d 302      16.104   4.197  15.232  0.00  0.00     0.080 H 
ATOM     87  H   SGN d 302      15.240   5.366  16.262  0.00  0.00     0.080 H 
ATOM     88  H   SGN d 302      13.459   6.567  10.011  0.00  0.00     0.140 HD
ATOM     89  H   SGN d 302      14.243   4.375  13.489  0.00  0.00     0.091 H 
ATOM     90  H   SGN d 302      16.898   6.194  11.212  0.00  0.00     0.131 H 
ATOM     91  H   SGN d 302      14.738   4.949  11.296  0.00  0.00     0.076 H 
ATOM     92  H   SGN d 302      14.932   7.968   7.969  0.00  0.00     0.231 HD
ATOM     93  H   SGN d 302      13.567   7.257  12.805  0.00  0.00     0.089 H 
ATOM     94  H   SGN d 302      15.253   4.141   9.084  0.00  0.00     0.231 HD
ATOM     95  O5  IDS d 303      16.751  10.814  11.773  0.00  0.00    -0.340 OA
ATOM     96  O2S IDS d 303      16.167  11.562   7.479  0.00  0.00    -0.572 OA
ATOM     97  O4  IDS d 303      16.161   7.951  11.813  0.00  0.00    -0.348 OA
ATOM     98  O1S IDS d 303      14.027  10.247   7.471  0.00  0.00    -0.572 OA
ATOM     99  C4  IDS d 303      17.490   8.460  11.687  0.00  0.00     0.103 C 
ATOM    100  S   IDS d 303      15.436  10.321   7.637  0.00  0.00     0.252 S 
ATOM    101  O2  IDS d 303      15.750   9.793   9.144  0.00  0.00    -0.244 OA
ATOM    102  O3  IDS d 303      19.353   9.089  10.334  0.00  0.00    -0.390 OA
ATOM    103  O61 IDS d 303      16.003  10.070  14.360  0.00  0.00    -0.646 OA
ATOM    104  C2  IDS d 303      17.209   9.923   9.463  0.00  0.00     0.134 C 
ATOM    105  C1  IDS d 303      17.248  11.137  10.404  0.00  0.00     0.161 C 
ATOM    106  O3S IDS d 303      16.025   9.352   6.603  0.00  0.00    -0.572 OA
ATOM    107  C3  IDS d 303      17.975   8.695  10.210  0.00  0.00     0.094 C 
ATOM    108  C5  IDS d 303      17.543   9.777  12.474  0.00  0.00     0.152 C 
ATOM    109  O62 IDS d 303      17.585   8.553  14.662  0.00  0.00    -0.646 OA
ATOM    110  C6  IDS d 303      16.991   9.485  13.911  0.00  0.00     0.206 C 
ATOM    111  H   IDS d 303      18.159   7.719  12.072  0.00  0.00     0.092 H 
ATOM    112  H   IDS d 303      19.852   8.384  10.776  0.00  0.00     0.210 HD
ATOM    113  H   IDS d 303      17.729   9.978   8.529  0.00  0.00     0.097 H 
ATOM    114  H   IDS d 303      16.561  11.876  10.048  0.00  0.00     0.133 H 
ATOM    115  H   IDS d 303      17.794   7.809   9.638  0.00  0.00     0.091 H 
ATOM    116  H   IDS d 303      18.543  10.150  12.549  0.00  0.00     0.104 H 
ATOM    117  C1  UAP d 301      12.655   6.584  15.510  0.00  0.00     0.167 C 
ATOM    118  C5  UAP d 301      10.534   7.646  15.696  0.00  0.00     0.147 C 
ATOM    119  O61 UAP d 301       8.497   8.904  15.430  0.00  0.00    -0.642 OA
ATOM    120  C2  UAP d 301      12.618   6.330  17.085  0.00  0.00     0.135 C 
ATOM    121  O62 UAP d 301       9.074   7.615  13.675  0.00  0.00    -0.642 OA
ATOM    122  O3  UAP d 301      13.041   8.684  17.756  0.00  0.00    -0.389 OA
ATOM    123  O5  UAP d 301      11.308   6.761  15.006  0.00  0.00    -0.311 OA
ATOM    124  C6  UAP d 301       9.304   8.105  14.938  0.00  0.00     0.233 C 
ATOM    125  O2  UAP d 301      11.742   5.150  17.455  0.00  0.00    -0.244 OA
ATOM    126  C3  UAP d 301      12.029   7.642  17.753  0.00  0.00     0.086 C 
ATOM    127  O2S UAP d 301      13.585   3.647  16.828  0.00  0.00    -0.572 OA
ATOM    128  C4  UAP d 301      10.783   8.114  16.952  0.00  0.00    -0.034 C 
ATOM    129  O3S UAP d 301      13.427   4.217  19.206  0.00  0.00    -0.572 OA
ATOM    130  O1S UAP d 301      11.685   2.791  18.292  0.00  0.00    -0.572 OA
ATOM    131  S   UAP d 301      12.614   3.858  17.923  0.00  0.00     0.252 S 
ATOM    132  H   UAP d 301      13.220   7.462  15.277  0.00  0.00     0.134 H 
ATOM    133  H   UAP d 301      13.607   6.108  17.428  0.00  0.00     0.097 H 
ATOM    134  H   UAP d 301      13.815   8.382  18.257  0.00  0.00     0.210 HD
ATOM    135  H   UAP d 301      11.741   7.433  18.762  0.00  0.00     0.093 H 
ATOM    136  H   UAP d 301      10.133   8.793  17.378  0.00  0.00     0.085 H 
ATOM    137  C5  IDS d 305      22.227  16.305   8.304  0.00  0.00     0.152 C 
ATOM    138  O2  IDS d 305      23.751  15.934  11.597  0.00  0.00    -0.244 OA
ATOM    139  C6  IDS d 305      21.383  15.345   7.492  0.00  0.00     0.206 C 
ATOM    140  O61 IDS d 305      21.786  14.203   7.241  0.00  0.00    -0.646 OA
ATOM    141  O2S IDS d 305      26.191  16.100  11.859  0.00  0.00    -0.572 OA
ATOM    142  O62 IDS d 305      20.196  15.768   7.032  0.00  0.00    -0.646 OA
ATOM    143  O5  IDS d 305      23.494  15.649   8.675  0.00  0.00    -0.340 OA
ATOM    144  C3  IDS d 305      22.378  17.726  10.457  0.00  0.00     0.094 C 
ATOM    145  O4  IDS d 305      21.028  15.545  10.291  0.00  0.00    -0.348 OA
ATOM    146  O1S IDS d 305      24.817  14.831  13.501  0.00  0.00    -0.572 OA
ATOM    147  C2  IDS d 305      23.811  17.093  10.714  0.00  0.00     0.134 C 
ATOM    148  C1  IDS d 305      24.411  16.586   9.356  0.00  0.00     0.161 C 
ATOM    149  C4  IDS d 305      21.442  16.750   9.590  0.00  0.00     0.103 C 
ATOM    150  O3  IDS d 305      22.604  18.883   9.676  0.00  0.00    -0.390 OA
ATOM    151  S   IDS d 305      24.969  15.977  12.641  0.00  0.00     0.252 S 
ATOM    152  O3S IDS d 305      24.814  17.259  13.488  0.00  0.00    -0.572 OA
ATOM    153  H   IDS d 305      22.443  17.175   7.720  0.00  0.00     0.104 H 
ATOM    154  H   IDS d 305      21.895  17.915  11.393  0.00  0.00     0.091 H 
ATOM    155  H   IDS d 305      24.409  17.859  11.163  0.00  0.00     0.097 H 
ATOM    156  H   IDS d 305      25.300  16.040   9.594  0.00  0.00     0.133 H 
ATOM    157  H   IDS d 305      20.558  17.309   9.365  0.00  0.00     0.092 H 
ATOM    158  H   IDS d 305      23.042  18.633   8.848  0.00  0.00     0.210 HD
ENDROOT
TORSDOF 49
