MODEL 1
REMARK VINA RESULT:     -11.7      0.000      0.000
REMARK  0 active torsions:
REMARK  status: ('A' for Active; 'I' for Inactive)
REMARK       I    between atoms: C6_1  and  C5_56 
REMARK       I    between atoms: O3_2  and  C3_19 
REMARK       I    between atoms: C2_3  and  N_45 
REMARK       I    between atoms: S1_4  and  N_72 
REMARK       I    between atoms: S1_4  and  O1S_74 
REMARK       I    between atoms: S1_4  and  O2S_20 
REMARK       I    between atoms: S1_4  and  O3S_35 
REMARK       I    between atoms: C5_5  and  C6_27 
REMARK       I    between atoms: C3_7  and  O3_15 
REMARK       I    between atoms: O2S_10  and  S1_60 
REMARK       I    between atoms: O6_11  and  C6_27 
REMARK       I    between atoms: O6_11  and  S2_67 
REMARK       I    between atoms: C4_14  and  O4_71 
REMARK       I    between atoms: C4_16  and  O4_81 
REMARK       I    between atoms: C6_18  and  C5_53 
REMARK       I    between atoms: O2_21  and  C2_30 
REMARK       I    between atoms: O2_21  and  S_68 
REMARK       I    between atoms: O6_22  and  C6_61 
REMARK       I    between atoms: O6_22  and  S2_47 
REMARK       I    between atoms: O1_23  and  C1_86 
REMARK       I    between atoms: O6_24  and  C6_57 
REMARK       I    between atoms: O6_24  and  S2_89 
REMARK       I    between atoms: C4_25  and  O4_85 
REMARK       I    between atoms: C2_26  and  N_73 
REMARK       I    between atoms: C2_28  and  N_72 
REMARK       I    between atoms: O1S_32  and  S1_37 
REMARK       I    between atoms: S1_37  and  N_73 
REMARK       I    between atoms: S1_37  and  O2S_78 
REMARK       I    between atoms: S1_37  and  O3S_82 
REMARK       I    between atoms: C1_39  and  O4_71 
REMARK       I    between atoms: S_41  and  O2_63 
REMARK       I    between atoms: O3_43  and  C3_88 
REMARK       I    between atoms: O1S_44  and  S1_60 
REMARK       I    between atoms: N_45  and  S1_60 
REMARK       I    between atoms: C1_46  and  O4_85 
REMARK       I    between atoms: O4_48  and  C4_54 
REMARK       I    between atoms: O4_48  and  C1_90 
REMARK       I    between atoms: O3_49  and  C3_77 
REMARK       I    between atoms: C5_52  and  C6_61 
REMARK       I    between atoms: C6_57  and  C5_79 
REMARK       I    between atoms: C2_58  and  O2_63 
REMARK       I    between atoms: S1_60  and  O3S_75 
REMARK       I    between atoms: C3_64  and  O3_80 
REMARK       I    between atoms: O4_81  and  C1_84 
REMARK       I    between atoms: C4_83  and  O4_87 
ROOT
ATOM      1  C6  IDS d 304     -11.475  48.834 175.102  0.00  0.00     0.206 C 
ATOM      2  O61 IDS d 304     -11.434  48.194 176.133  0.00  0.00    -0.646 OA
ATOM      3  C4  IDS d 304     -11.679  48.238 172.709  0.00  0.00     0.103 C 
ATOM      4  O2  IDS d 304     -12.983  45.478 172.225  0.00  0.00    -0.244 OA
ATOM      5  O62 IDS d 304     -10.763  49.783 174.977  0.00  0.00    -0.646 OA
ATOM      6  C2  IDS d 304     -13.653  46.709 172.168  0.00  0.00     0.134 C 
ATOM      7  O1S IDS d 304     -13.731  43.931 170.567  0.00  0.00    -0.572 OA
ATOM      8  O3  IDS d 304     -13.369  48.907 171.210  0.00  0.00    -0.390 OA
ATOM      9  C5  IDS d 304     -12.382  48.452 174.023  0.00  0.00     0.152 C 
ATOM     10  O5  IDS d 304     -13.112  47.338 174.427  0.00  0.00    -0.340 OA
ATOM     11  O2S IDS d 304     -12.615  43.212 172.537  0.00  0.00    -0.572 OA
ATOM     12  O3S IDS d 304     -14.837  43.922 172.661  0.00  0.00    -0.572 OA
ATOM     13  S   IDS d 304     -13.594  44.068 171.988  0.00  0.00     0.252 S 
ATOM     14  O4  IDS d 304     -10.709  47.261 172.881  0.00  0.00    -0.348 OA
ATOM     15  C3  IDS d 304     -12.657  47.778 171.638  0.00  0.00     0.094 C 
ATOM     16  C1  IDS d 304     -14.195  47.039 173.564  0.00  0.00     0.161 C 
ATOM     17  H   IDS d 304     -11.241  49.163 172.397  0.00  0.00     0.092 H 
ATOM     18  H   IDS d 304     -14.489  46.682 171.501  0.00  0.00     0.097 H 
ATOM     19  H   IDS d 304     -12.747  49.575 170.879  0.00  0.00     0.210 HD
ATOM     20  H   IDS d 304     -13.055  49.264 173.837  0.00  0.00     0.104 H 
ATOM     21  H   IDS d 304     -12.110  47.323 170.839  0.00  0.00     0.091 H 
ATOM     22  H   IDS d 304     -14.714  46.202 173.983  0.00  0.00     0.133 H 
ATOM     23  O3  SGN d 303     -15.212  50.577 175.008  0.00  0.00    -0.391 OA
ATOM     24  S1  SGN d 303     -18.339  52.063 177.051  0.00  0.00     0.156 S 
ATOM     25  O5S SGN d 303     -16.325  44.191 177.178  0.00  0.00    -0.572 OA
ATOM     26  C4  SGN d 303     -15.996  48.323 174.509  0.00  0.00     0.095 C 
ATOM     27  C3  SGN d 303     -16.338  49.858 174.574  0.00  0.00     0.083 C 
ATOM     28  O2S SGN d 303     -17.154  52.018 177.850  0.00  0.00    -0.296 OA
ATOM     29  O6  SGN d 303     -16.734  45.637 175.339  0.00  0.00    -0.254 OA
ATOM     30  C2  SGN d 303     -17.473  50.086 175.584  0.00  0.00     0.081 C 
ATOM     31  O3S SGN d 303     -18.808  53.367 176.802  0.00  0.00    -0.296 OA
ATOM     32  O5  SGN d 303     -18.274  47.849 175.204  0.00  0.00    -0.349 OA
ATOM     33  C1  SGN d 303     -18.675  49.208 175.249  0.00  0.00     0.150 C 
ATOM     34  O4S SGN d 303     -16.455  43.292 174.962  0.00  0.00    -0.572 OA
ATOM     35  C6  SGN d 303     -17.184  46.087 174.115  0.00  0.00     0.067 C 
ATOM     36  O6S SGN d 303     -18.457  44.103 176.034  0.00  0.00    -0.572 OA
ATOM     37  N   SGN d 303     -17.892  51.486 175.617  0.00  0.00    -0.210 NA
ATOM     38  O1S SGN d 303     -19.355  51.182 177.573  0.00  0.00    -0.296 OA
ATOM     39  C5  SGN d 303     -17.301  47.577 174.205  0.00  0.00     0.091 C 
ATOM     40  O4  SGN d 303     -15.105  48.104 173.454  0.00  0.00    -0.348 OA
ATOM     41  S2  SGN d 303     -17.012  44.220 175.908  0.00  0.00     0.251 S 
ATOM     42  H   SGN d 303     -14.483  50.444 174.382  0.00  0.00     0.210 HD
ATOM     43  H   SGN d 303     -15.560  47.988 175.427  0.00  0.00     0.091 H 
ATOM     44  H   SGN d 303     -16.633  50.190 173.601  0.00  0.00     0.089 H 
ATOM     45  H   SGN d 303     -16.888  51.094 177.981  0.00  0.00     0.231 HD
ATOM     46  H   SGN d 303     -17.094  49.821 176.548  0.00  0.00     0.076 H 
ATOM     47  H   SGN d 303     -19.610  53.324 176.258  0.00  0.00     0.231 HD
ATOM     48  H   SGN d 303     -19.438  49.284 175.997  0.00  0.00     0.131 H 
ATOM     49  H   SGN d 303     -18.139  45.657 173.895  0.00  0.00     0.080 H 
ATOM     50  H   SGN d 303     -16.507  45.806 173.335  0.00  0.00     0.080 H 
ATOM     51  H   SGN d 303     -17.111  52.052 175.285  0.00  0.00     0.140 HD
ATOM     52  H   SGN d 303     -18.974  50.303 177.723  0.00  0.00     0.231 HD
ATOM     53  H   SGN d 303     -17.582  47.942 173.238  0.00  0.00     0.090 H 
ATOM     54  C2  SGN d 301     -23.795  48.970 167.919  0.00  0.00     0.081 C 
ATOM     55  C5  SGN d 301     -23.369  51.454 169.145  0.00  0.00     0.091 C 
ATOM     56  O6S SGN d 301     -22.555  54.485 167.467  0.00  0.00    -0.572 OA
ATOM     57  C3  SGN d 301     -23.659  49.109 169.430  0.00  0.00     0.083 C 
ATOM     58  O2S SGN d 301     -23.033  46.028 167.607  0.00  0.00    -0.296 OA
ATOM     59  O6  SGN d 301     -21.506  52.799 168.775  0.00  0.00    -0.254 OA
ATOM     60  O3  SGN d 301     -23.167  47.919 170.004  0.00  0.00    -0.391 OA
ATOM     61  O1  SGN d 301     -25.667  50.501 167.817  0.00  0.00    -0.369 OA
ATOM     62  C6  SGN d 301     -22.674  52.744 169.485  0.00  0.00     0.067 C 
ATOM     63  O5S SGN d 301     -21.111  52.798 166.441  0.00  0.00    -0.572 OA
ATOM     64  O4S SGN d 301     -20.158  54.515 167.829  0.00  0.00    -0.572 OA
ATOM     65  O1S SGN d 301     -23.383  47.232 165.500  0.00  0.00    -0.296 OA
ATOM     66  N   SGN d 301     -24.660  47.867 167.552  0.00  0.00    -0.210 NA
ATOM     67  O4  SGN d 301     -22.336  50.395 170.946  0.00  0.00    -0.348 OA
ATOM     68  C4  SGN d 301     -22.659  50.232 169.615  0.00  0.00     0.095 C 
ATOM     69  S1  SGN d 301     -23.990  46.640 166.704  0.00  0.00     0.156 S 
ATOM     70  S2  SGN d 301     -21.327  53.701 167.553  0.00  0.00     0.251 S 
ATOM     71  O3S SGN d 301     -25.088  45.746 166.432  0.00  0.00    -0.296 OA
ATOM     72  O5  SGN d 301     -23.520  51.368 167.748  0.00  0.00    -0.350 OA
ATOM     73  C1  SGN d 301     -24.330  50.289 167.355  0.00  0.00     0.147 C 
ATOM     74  H   SGN d 301     -22.832  48.756 167.503  0.00  0.00     0.076 H 
ATOM     75  H   SGN d 301     -24.310  51.482 169.654  0.00  0.00     0.090 H 
ATOM     76  H   SGN d 301     -24.599  49.306 169.902  0.00  0.00     0.089 H 
ATOM     77  H   SGN d 301     -22.304  46.646 167.775  0.00  0.00     0.231 HD
ATOM     78  H   SGN d 301     -22.311  47.697 169.606  0.00  0.00     0.210 HD
ATOM     79  H   SGN d 301     -26.226  49.756 167.544  0.00  0.00     0.212 HD
ATOM     80  H   SGN d 301     -22.462  52.776 170.534  0.00  0.00     0.080 H 
ATOM     81  H   SGN d 301     -23.297  53.577 169.236  0.00  0.00     0.080 H 
ATOM     82  H   SGN d 301     -22.655  47.819 165.760  0.00  0.00     0.231 HD
ATOM     83  H   SGN d 301     -25.421  48.247 166.990  0.00  0.00     0.140 HD
ATOM     84  H   SGN d 301     -21.750  50.034 169.085  0.00  0.00     0.091 H 
ATOM     85  H   SGN d 301     -24.767  44.983 165.926  0.00  0.00     0.231 HD
ATOM     86  H   SGN d 301     -24.321  50.229 166.287  0.00  0.00     0.131 H 
ATOM     87  O1S IDS d 302     -18.191  53.358 173.689  0.00  0.00    -0.572 OA
ATOM     88  O2S IDS d 302     -18.208  54.227 171.485  0.00  0.00    -0.572 OA
ATOM     89  O62 IDS d 302     -21.274  46.961 174.069  0.00  0.00    -0.646 OA
ATOM     90  C6  IDS d 302     -20.850  47.471 173.045  0.00  0.00     0.206 C 
ATOM     91  C4  IDS d 302     -20.584  49.790 173.920  0.00  0.00     0.103 C 
ATOM     92  S   IDS d 302     -18.963  53.620 172.525  0.00  0.00     0.252 S 
ATOM     93  O3S IDS d 302     -20.142  54.329 172.842  0.00  0.00    -0.572 OA
ATOM     94  C5  IDS d 302     -21.044  48.920 172.796  0.00  0.00     0.152 C 
ATOM     95  C2  IDS d 302     -20.741  51.680 172.158  0.00  0.00     0.134 C 
ATOM     96  O2  IDS d 302     -19.442  52.225 172.012  0.00  0.00    -0.244 OA
ATOM     97  C3  IDS d 302     -20.935  51.272 173.629  0.00  0.00     0.094 C 
ATOM     98  O61 IDS d 302     -20.270  46.776 172.226  0.00  0.00    -0.646 OA
ATOM     99  O5  IDS d 302     -20.415  49.330 171.623  0.00  0.00    -0.340 OA
ATOM    100  O3  IDS d 302     -22.289  51.473 173.967  0.00  0.00    -0.390 OA
ATOM    101  O4  IDS d 302     -19.197  49.649 174.018  0.00  0.00    -0.348 OA
ATOM    102  C1  IDS d 302     -20.958  50.541 171.151  0.00  0.00     0.161 C 
ATOM    103  H   IDS d 302     -21.065  49.504 174.832  0.00  0.00     0.092 H 
ATOM    104  H   IDS d 302     -22.102  49.040 172.703  0.00  0.00     0.104 H 
ATOM    105  H   IDS d 302     -21.496  52.404 171.929  0.00  0.00     0.097 H 
ATOM    106  H   IDS d 302     -20.268  51.874 174.210  0.00  0.00     0.091 H 
ATOM    107  H   IDS d 302     -22.848  50.907 173.414  0.00  0.00     0.210 HD
ATOM    108  H   IDS d 302     -20.461  50.781 170.234  0.00  0.00     0.133 H 
ATOM    109  O6  SGN d 305      -6.577  49.938 173.720  0.00  0.00    -0.254 OA
ATOM    110  C2  SGN d 305      -8.654  46.192 172.319  0.00  0.00     0.081 C 
ATOM    111  O1S SGN d 305      -9.675  46.167 169.485  0.00  0.00    -0.296 OA
ATOM    112  O5  SGN d 305      -8.745  48.567 172.756  0.00  0.00    -0.349 OA
ATOM    113  S1  SGN d 305      -9.209  44.937 170.049  0.00  0.00     0.156 S 
ATOM    114  O5S SGN d 305      -5.161  51.404 172.348  0.00  0.00    -0.572 OA
ATOM    115  C1  SGN d 305      -9.484  47.470 172.211  0.00  0.00     0.150 C 
ATOM    116  O3  SGN d 305      -7.614  44.747 173.983  0.00  0.00    -0.391 OA
ATOM    117  S2  SGN d 305      -5.703  51.252 173.695  0.00  0.00     0.251 S 
ATOM    118  O6S SGN d 305      -6.586  52.357 174.027  0.00  0.00    -0.572 OA
ATOM    119  C5  SGN d 305      -8.373  48.405 174.149  0.00  0.00     0.090 C 
ATOM    120  O4S SGN d 305      -4.685  51.001 174.692  0.00  0.00    -0.572 OA
ATOM    121  C6  SGN d 305      -7.649  49.684 174.578  0.00  0.00     0.067 C 
ATOM    122  N   SGN d 305      -9.356  45.069 171.666  0.00  0.00    -0.210 NA
ATOM    123  O2S SGN d 305      -7.819  44.754 169.741  0.00  0.00    -0.296 OA
ATOM    124  O3S SGN d 305     -10.017  43.812 169.713  0.00  0.00    -0.296 OA
ATOM    125  C4  SGN d 305      -7.557  47.119 174.354  0.00  0.00     0.089 C 
ATOM    126  O4  SGN d 305      -7.344  46.880 175.736  0.00  0.00    -0.390 OA
ATOM    127  C3  SGN d 305      -8.380  45.930 173.816  0.00  0.00     0.083 C 
ATOM    128  H   SGN d 305      -7.719  46.297 171.810  0.00  0.00     0.076 H 
ATOM    129  H   SGN d 305      -9.083  46.889 169.751  0.00  0.00     0.231 HD
ATOM    130  H   SGN d 305      -9.695  47.710 171.190  0.00  0.00     0.131 H 
ATOM    131  H   SGN d 305      -8.116  43.987 173.650  0.00  0.00     0.210 HD
ATOM    132  H   SGN d 305      -9.230  48.279 174.776  0.00  0.00     0.090 H 
ATOM    133  H   SGN d 305      -8.332  50.506 174.545  0.00  0.00     0.080 H 
ATOM    134  H   SGN d 305      -7.279  49.560 175.575  0.00  0.00     0.080 H 
ATOM    135  H   SGN d 305     -10.349  45.164 171.878  0.00  0.00     0.140 HD
ATOM    136  H   SGN d 305      -7.325  45.550 169.992  0.00  0.00     0.231 HD
ATOM    137  H   SGN d 305     -10.940  43.997 169.945  0.00  0.00     0.231 HD
ATOM    138  H   SGN d 305      -6.619  47.224 173.849  0.00  0.00     0.091 H 
ATOM    139  H   SGN d 305      -8.200  46.786 176.183  0.00  0.00     0.210 HD
ATOM    140  H   SGN d 305      -9.308  45.819 174.337  0.00  0.00     0.089 H 
ENDROOT
TORSDOF 45
ENDMDL
MODEL 2
REMARK VINA RESULT:     -11.3      2.740      3.939
REMARK  0 active torsions:
REMARK  status: ('A' for Active; 'I' for Inactive)
REMARK       I    between atoms: C6_1  and  C5_56 
REMARK       I    between atoms: O3_2  and  C3_19 
REMARK       I    between atoms: C2_3  and  N_45 
REMARK       I    between atoms: S1_4  and  N_72 
REMARK       I    between atoms: S1_4  and  O1S_74 
REMARK       I    between atoms: S1_4  and  O2S_20 
REMARK       I    between atoms: S1_4  and  O3S_35 
REMARK       I    between atoms: C5_5  and  C6_27 
REMARK       I    between atoms: C3_7  and  O3_15 
REMARK       I    between atoms: O2S_10  and  S1_60 
REMARK       I    between atoms: O6_11  and  C6_27 
REMARK       I    between atoms: O6_11  and  S2_67 
REMARK       I    between atoms: C4_14  and  O4_71 
REMARK       I    between atoms: C4_16  and  O4_81 
REMARK       I    between atoms: C6_18  and  C5_53 
REMARK       I    between atoms: O2_21  and  C2_30 
REMARK       I    between atoms: O2_21  and  S_68 
REMARK       I    between atoms: O6_22  and  C6_61 
REMARK       I    between atoms: O6_22  and  S2_47 
REMARK       I    between atoms: O1_23  and  C1_86 
REMARK       I    between atoms: O6_24  and  C6_57 
REMARK       I    between atoms: O6_24  and  S2_89 
REMARK       I    between atoms: C4_25  and  O4_85 
REMARK       I    between atoms: C2_26  and  N_73 
REMARK       I    between atoms: C2_28  and  N_72 
REMARK       I    between atoms: O1S_32  and  S1_37 
REMARK       I    between atoms: S1_37  and  N_73 
REMARK       I    between atoms: S1_37  and  O2S_78 
REMARK       I    between atoms: S1_37  and  O3S_82 
REMARK       I    between atoms: C1_39  and  O4_71 
REMARK       I    between atoms: S_41  and  O2_63 
REMARK       I    between atoms: O3_43  and  C3_88 
REMARK       I    between atoms: O1S_44  and  S1_60 
REMARK       I    between atoms: N_45  and  S1_60 
REMARK       I    between atoms: C1_46  and  O4_85 
REMARK       I    between atoms: O4_48  and  C4_54 
REMARK       I    between atoms: O4_48  and  C1_90 
REMARK       I    between atoms: O3_49  and  C3_77 
REMARK       I    between atoms: C5_52  and  C6_61 
REMARK       I    between atoms: C6_57  and  C5_79 
REMARK       I    between atoms: C2_58  and  O2_63 
REMARK       I    between atoms: S1_60  and  O3S_75 
REMARK       I    between atoms: C3_64  and  O3_80 
REMARK       I    between atoms: O4_81  and  C1_84 
REMARK       I    between atoms: C4_83  and  O4_87 
ROOT
ATOM      1  C6  IDS d 304     -12.345  48.391 175.186  0.00  0.00     0.206 C 
ATOM      2  O61 IDS d 304     -12.612  47.955 176.288  0.00  0.00    -0.646 OA
ATOM      3  C4  IDS d 304     -12.932  47.724 172.878  0.00  0.00     0.103 C 
ATOM      4  O2  IDS d 304     -15.529  46.058 172.690  0.00  0.00    -0.244 OA
ATOM      5  O62 IDS d 304     -11.241  48.789 174.969  0.00  0.00    -0.646 OA
ATOM      6  C2  IDS d 304     -15.437  47.440 172.466  0.00  0.00     0.134 C 
ATOM      7  O1S IDS d 304     -17.054  44.973 171.208  0.00  0.00    -0.572 OA
ATOM      8  O3  IDS d 304     -14.058  49.013 171.260  0.00  0.00    -0.390 OA
ATOM      9  C5  IDS d 304     -13.358  48.433 174.135  0.00  0.00     0.152 C 
ATOM     10  O5  IDS d 304     -14.554  47.940 174.648  0.00  0.00    -0.340 OA
ATOM     11  O2S IDS d 304     -16.419  44.004 173.282  0.00  0.00    -0.572 OA
ATOM     12  O3S IDS d 304     -17.909  45.802 173.255  0.00  0.00    -0.572 OA
ATOM     13  S   IDS d 304     -16.809  45.179 172.606  0.00  0.00     0.252 S 
ATOM     14  O4  IDS d 304     -12.630  46.406 173.193  0.00  0.00    -0.348 OA
ATOM     15  C3  IDS d 304     -14.046  47.738 171.842  0.00  0.00     0.094 C 
ATOM     16  C1  IDS d 304     -15.662  48.169 173.796  0.00  0.00     0.161 C 
ATOM     17  H   IDS d 304     -12.079  48.225 172.469  0.00  0.00     0.092 H 
ATOM     18  H   IDS d 304     -16.183  47.788 171.783  0.00  0.00     0.097 H 
ATOM     19  H   IDS d 304     -13.190  49.199 170.870  0.00  0.00     0.210 HD
ATOM     20  H   IDS d 304     -13.498  49.450 173.833  0.00  0.00     0.104 H 
ATOM     21  H   IDS d 304     -13.859  46.971 171.119  0.00  0.00     0.091 H 
ATOM     22  H   IDS d 304     -16.532  47.797 174.297  0.00  0.00     0.133 H 
ATOM     23  O3  SGN d 303     -14.568  51.841 174.775  0.00  0.00    -0.391 OA
ATOM     24  S1  SGN d 303     -16.329  54.999 176.533  0.00  0.00     0.156 S 
ATOM     25  O5S SGN d 303     -18.840  47.353 177.661  0.00  0.00    -0.572 OA
ATOM     26  C4  SGN d 303     -16.456  50.319 174.527  0.00  0.00     0.095 C 
ATOM     27  C3  SGN d 303     -15.920  51.793 174.398  0.00  0.00     0.083 C 
ATOM     28  O2S SGN d 303     -15.322  54.419 177.366  0.00  0.00    -0.296 OA
ATOM     29  O6  SGN d 303     -18.484  48.566 175.651  0.00  0.00    -0.254 OA
ATOM     30  C2  SGN d 303     -16.716  52.710 175.339  0.00  0.00     0.081 C 
ATOM     31  O3S SGN d 303     -16.036  56.311 176.116  0.00  0.00    -0.296 OA
ATOM     32  O5  SGN d 303     -18.604  51.225 175.207  0.00  0.00    -0.349 OA
ATOM     33  C1  SGN d 303     -18.213  52.582 175.078  0.00  0.00     0.150 C 
ATOM     34  O4S SGN d 303     -19.519  46.412 175.567  0.00  0.00    -0.572 OA
ATOM     35  C6  SGN d 303     -18.671  49.041 174.370  0.00  0.00     0.067 C 
ATOM     36  O6S SGN d 303     -20.731  48.288 176.474  0.00  0.00    -0.572 OA
ATOM     37  N   SGN d 303     -16.318  54.109 175.193  0.00  0.00    -0.210 NA
ATOM     38  O1S SGN d 303     -17.637  54.867 177.127  0.00  0.00    -0.296 OA
ATOM     39  C5  SGN d 303     -17.969  50.360 174.277  0.00  0.00     0.091 C 
ATOM     40  O4  SGN d 303     -15.864  49.535 173.533  0.00  0.00    -0.348 OA
ATOM     41  S2  SGN d 303     -19.454  47.597 176.378  0.00  0.00     0.251 S 
ATOM     42  H   SGN d 303     -14.049  51.266 174.191  0.00  0.00     0.210 HD
ATOM     43  H   SGN d 303     -16.231  49.912 175.491  0.00  0.00     0.091 H 
ATOM     44  H   SGN d 303     -16.030  52.115 173.383  0.00  0.00     0.089 H 
ATOM     45  H   SGN d 303     -15.587  53.519 177.614  0.00  0.00     0.231 HD
ATOM     46  H   SGN d 303     -16.499  52.399 176.339  0.00  0.00     0.076 H 
ATOM     47  H   SGN d 303     -16.758  56.641 175.557  0.00  0.00     0.231 HD
ATOM     48  H   SGN d 303     -18.786  53.142 175.788  0.00  0.00     0.131 H 
ATOM     49  H   SGN d 303     -19.716  49.167 174.175  0.00  0.00     0.080 H 
ATOM     50  H   SGN d 303     -18.282  48.352 173.649  0.00  0.00     0.080 H 
ATOM     51  H   SGN d 303     -15.370  54.125 174.818  0.00  0.00     0.140 HD
ATOM     52  H   SGN d 303     -17.781  53.946 177.393  0.00  0.00     0.231 HD
ATOM     53  H   SGN d 303     -18.049  50.702 173.266  0.00  0.00     0.090 H 
ATOM     54  C2  SGN d 301     -22.952  54.272 167.682  0.00  0.00     0.081 C 
ATOM     55  C5  SGN d 301     -21.214  56.263 168.613  0.00  0.00     0.091 C 
ATOM     56  O6S SGN d 301     -18.972  58.165 166.609  0.00  0.00    -0.572 OA
ATOM     57  C3  SGN d 301     -22.703  54.491 169.169  0.00  0.00     0.083 C 
ATOM     58  O2S SGN d 301     -23.897  51.366 167.748  0.00  0.00    -0.296 OA
ATOM     59  O6  SGN d 301     -18.937  56.345 168.139  0.00  0.00    -0.254 OA
ATOM     60  O3  SGN d 301     -22.903  53.300 169.896  0.00  0.00    -0.391 OA
ATOM     61  O1  SGN d 301     -23.716  56.544 167.342  0.00  0.00    -0.369 OA
ATOM     62  C6  SGN d 301     -19.923  57.008 168.816  0.00  0.00     0.067 C 
ATOM     63  O5S SGN d 301     -18.697  55.860 165.835  0.00  0.00    -0.572 OA
ATOM     64  O4S SGN d 301     -16.918  56.946 167.035  0.00  0.00    -0.572 OA
ATOM     65  O1S SGN d 301     -23.632  52.315 165.502  0.00  0.00    -0.296 OA
ATOM     66  N   SGN d 301     -24.287  53.770 167.425  0.00  0.00    -0.210 NA
ATOM     67  O4  SGN d 301     -20.838  55.034 170.558  0.00  0.00    -0.348 OA
ATOM     68  C4  SGN d 301     -21.250  54.915 169.247  0.00  0.00     0.095 C 
ATOM     69  S1  SGN d 301     -24.412  52.286 166.750  0.00  0.00     0.156 S 
ATOM     70  S2  SGN d 301     -18.352  56.861 166.824  0.00  0.00     0.251 S 
ATOM     71  O3S SGN d 301     -25.829  52.096 166.556  0.00  0.00    -0.296 OA
ATOM     72  O5  SGN d 301     -21.443  56.109 167.233  0.00  0.00    -0.350 OA
ATOM     73  C1  SGN d 301     -22.720  55.595 166.949  0.00  0.00     0.147 C 
ATOM     74  H   SGN d 301     -22.271  53.528 167.324  0.00  0.00     0.076 H 
ATOM     75  H   SGN d 301     -21.972  56.850 169.088  0.00  0.00     0.090 H 
ATOM     76  H   SGN d 301     -23.371  55.215 169.586  0.00  0.00     0.089 H 
ATOM     77  H   SGN d 301     -22.945  51.513 167.861  0.00  0.00     0.231 HD
ATOM     78  H   SGN d 301     -22.315  52.609 169.552  0.00  0.00     0.210 HD
ATOM     79  H   SGN d 301     -24.597  56.188 167.145  0.00  0.00     0.212 HD
ATOM     80  H   SGN d 301     -19.686  57.045 169.859  0.00  0.00     0.080 H 
ATOM     81  H   SGN d 301     -20.013  58.010 168.451  0.00  0.00     0.080 H 
ATOM     82  H   SGN d 301     -22.693  52.446 165.711  0.00  0.00     0.231 HD
ATOM     83  H   SGN d 301     -24.748  54.430 166.800  0.00  0.00     0.140 HD
ATOM     84  H   SGN d 301     -20.611  54.201 168.772  0.00  0.00     0.091 H 
ATOM     85  H   SGN d 301     -25.987  51.227 166.154  0.00  0.00     0.231 HD
ATOM     86  H   SGN d 301     -22.787  55.415 165.897  0.00  0.00     0.131 H 
ATOM     87  O1S IDS d 302     -15.645  55.609 173.046  0.00  0.00    -0.572 OA
ATOM     88  O2S IDS d 302     -15.282  56.088 170.754  0.00  0.00    -0.572 OA
ATOM     89  O62 IDS d 302     -21.656  51.958 174.100  0.00  0.00    -0.646 OA
ATOM     90  C6  IDS d 302     -21.066  52.038 173.035  0.00  0.00     0.206 C 
ATOM     91  C4  IDS d 302     -19.565  53.937 173.633  0.00  0.00     0.103 C 
ATOM     92  S   IDS d 302     -16.202  56.106 171.837  0.00  0.00     0.252 S 
ATOM     93  O3S IDS d 302     -16.805  57.368 172.032  0.00  0.00    -0.572 OA
ATOM     94  C5  IDS d 302     -20.463  53.324 172.609  0.00  0.00     0.152 C 
ATOM     95  C2  IDS d 302     -18.755  55.395 171.653  0.00  0.00     0.134 C 
ATOM     96  O2  IDS d 302     -17.374  55.137 171.480  0.00  0.00    -0.244 OA
ATOM     97  C3  IDS d 302     -19.079  55.330 173.156  0.00  0.00     0.094 C 
ATOM     98  O61 IDS d 302     -20.981  51.051 172.323  0.00  0.00    -0.646 OA
ATOM     99  O5  IDS d 302     -19.760  53.193 171.414  0.00  0.00    -0.340 OA
ATOM    100  O3  IDS d 302     -20.100  56.263 173.428  0.00  0.00    -0.390 OA
ATOM    101  O4  IDS d 302     -18.466  53.086 173.787  0.00  0.00    -0.348 OA
ATOM    102  C1  IDS d 302     -19.589  54.441 170.784  0.00  0.00     0.161 C 
ATOM    103  H   IDS d 302     -20.088  54.062 174.558  0.00  0.00     0.092 H 
ATOM    104  H   IDS d 302     -21.296  53.981 172.471  0.00  0.00     0.104 H 
ATOM    105  H   IDS d 302     -19.014  56.378 171.317  0.00  0.00     0.097 H 
ATOM    106  H   IDS d 302     -18.171  55.543 173.680  0.00  0.00     0.091 H 
ATOM    107  H   IDS d 302     -20.897  56.024 172.931  0.00  0.00     0.210 HD
ATOM    108  H   IDS d 302     -19.078  54.269 169.859  0.00  0.00     0.133 H 
ATOM    109  O6  SGN d 305      -7.677  46.527 173.826  0.00  0.00    -0.254 OA
ATOM    110  C2  SGN d 305     -11.491  44.345 172.824  0.00  0.00     0.081 C 
ATOM    111  O1S SGN d 305     -12.478  44.541 169.985  0.00  0.00    -0.296 OA
ATOM    112  O5  SGN d 305     -10.279  46.430 172.970  0.00  0.00    -0.349 OA
ATOM    113  S1  SGN d 305     -12.721  43.328 170.706  0.00  0.00     0.156 S 
ATOM    114  O5S SGN d 305      -5.752  46.834 172.330  0.00  0.00    -0.572 OA
ATOM    115  C1  SGN d 305     -11.511  45.846 172.540  0.00  0.00     0.150 C 
ATOM    116  O3  SGN d 305     -11.320  42.774 174.679  0.00  0.00    -0.391 OA
ATOM    117  S2  SGN d 305      -6.237  47.154 173.669  0.00  0.00     0.251 S 
ATOM    118  O6S SGN d 305      -6.377  48.590 173.840  0.00  0.00    -0.572 OA
ATOM    119  C5  SGN d 305      -9.995  46.258 174.383  0.00  0.00     0.090 C 
ATOM    120  O4S SGN d 305      -5.473  46.515 174.718  0.00  0.00    -0.572 OA
ATOM    121  C6  SGN d 305      -8.683  46.990 174.677  0.00  0.00     0.067 C 
ATOM    122  N   SGN d 305     -12.710  43.706 172.290  0.00  0.00    -0.210 NA
ATOM    123  O2S SGN d 305     -11.659  42.395 170.462  0.00  0.00    -0.296 OA
ATOM    124  O3S SGN d 305     -14.019  42.782 170.484  0.00  0.00    -0.296 OA
ATOM    125  C4  SGN d 305      -9.987  44.770 174.764  0.00  0.00     0.089 C 
ATOM    126  O4  SGN d 305      -9.881  44.618 176.171  0.00  0.00    -0.390 OA
ATOM    127  C3  SGN d 305     -11.340  44.154 174.349  0.00  0.00     0.083 C 
ATOM    128  H   SGN d 305     -10.666  43.872 172.334  0.00  0.00     0.076 H 
ATOM    129  H   SGN d 305     -11.582  44.859 170.179  0.00  0.00     0.231 HD
ATOM    130  H   SGN d 305     -11.601  46.040 171.492  0.00  0.00     0.131 H 
ATOM    131  H   SGN d 305     -12.165  42.369 174.425  0.00  0.00     0.210 HD
ATOM    132  H   SGN d 305     -10.761  46.686 174.995  0.00  0.00     0.090 H 
ATOM    133  H   SGN d 305      -8.820  48.040 174.525  0.00  0.00     0.080 H 
ATOM    134  H   SGN d 305      -8.398  46.804 175.692  0.00  0.00     0.080 H 
ATOM    135  H   SGN d 305     -13.489  44.343 172.460  0.00  0.00     0.140 HD
ATOM    136  H   SGN d 305     -10.806  42.825 170.630  0.00  0.00     0.231 HD
ATOM    137  H   SGN d 305     -14.690  43.459 170.664  0.00  0.00     0.231 HD
ATOM    138  H   SGN d 305      -9.160  44.296 174.278  0.00  0.00     0.091 H 
ATOM    139  H   SGN d 305     -10.636  45.051 176.601  0.00  0.00     0.210 HD
ATOM    140  H   SGN d 305     -12.162  44.619 174.853  0.00  0.00     0.089 H 
ENDROOT
TORSDOF 45
ENDMDL
MODEL 3
REMARK VINA RESULT:     -11.3      2.458      3.361
REMARK  0 active torsions:
REMARK  status: ('A' for Active; 'I' for Inactive)
REMARK       I    between atoms: C6_1  and  C5_56 
REMARK       I    between atoms: O3_2  and  C3_19 
REMARK       I    between atoms: C2_3  and  N_45 
REMARK       I    between atoms: S1_4  and  N_72 
REMARK       I    between atoms: S1_4  and  O1S_74 
REMARK       I    between atoms: S1_4  and  O2S_20 
REMARK       I    between atoms: S1_4  and  O3S_35 
REMARK       I    between atoms: C5_5  and  C6_27 
REMARK       I    between atoms: C3_7  and  O3_15 
REMARK       I    between atoms: O2S_10  and  S1_60 
REMARK       I    between atoms: O6_11  and  C6_27 
REMARK       I    between atoms: O6_11  and  S2_67 
REMARK       I    between atoms: C4_14  and  O4_71 
REMARK       I    between atoms: C4_16  and  O4_81 
REMARK       I    between atoms: C6_18  and  C5_53 
REMARK       I    between atoms: O2_21  and  C2_30 
REMARK       I    between atoms: O2_21  and  S_68 
REMARK       I    between atoms: O6_22  and  C6_61 
REMARK       I    between atoms: O6_22  and  S2_47 
REMARK       I    between atoms: O1_23  and  C1_86 
REMARK       I    between atoms: O6_24  and  C6_57 
REMARK       I    between atoms: O6_24  and  S2_89 
REMARK       I    between atoms: C4_25  and  O4_85 
REMARK       I    between atoms: C2_26  and  N_73 
REMARK       I    between atoms: C2_28  and  N_72 
REMARK       I    between atoms: O1S_32  and  S1_37 
REMARK       I    between atoms: S1_37  and  N_73 
REMARK       I    between atoms: S1_37  and  O2S_78 
REMARK       I    between atoms: S1_37  and  O3S_82 
REMARK       I    between atoms: C1_39  and  O4_71 
REMARK       I    between atoms: S_41  and  O2_63 
REMARK       I    between atoms: O3_43  and  C3_88 
REMARK       I    between atoms: O1S_44  and  S1_60 
REMARK       I    between atoms: N_45  and  S1_60 
REMARK       I    between atoms: C1_46  and  O4_85 
REMARK       I    between atoms: O4_48  and  C4_54 
REMARK       I    between atoms: O4_48  and  C1_90 
REMARK       I    between atoms: O3_49  and  C3_77 
REMARK       I    between atoms: C5_52  and  C6_61 
REMARK       I    between atoms: C6_57  and  C5_79 
REMARK       I    between atoms: C2_58  and  O2_63 
REMARK       I    between atoms: S1_60  and  O3S_75 
REMARK       I    between atoms: C3_64  and  O3_80 
REMARK       I    between atoms: O4_81  and  C1_84 
REMARK       I    between atoms: C4_83  and  O4_87 
ROOT
ATOM      1  C6  IDS d 304      -9.034  49.574 173.893  0.00  0.00     0.206 C 
ATOM      2  O61 IDS d 304      -8.516  49.117 174.892  0.00  0.00    -0.646 OA
ATOM      3  C4  IDS d 304      -9.915  48.587 171.803  0.00  0.00     0.103 C 
ATOM      4  O2  IDS d 304     -10.720  45.615 172.077  0.00  0.00    -0.244 OA
ATOM      5  O62 IDS d 304      -8.614  50.592 173.433  0.00  0.00    -0.646 OA
ATOM      6  C2  IDS d 304     -11.603  46.703 172.156  0.00  0.00     0.134 C 
ATOM      7  O1S IDS d 304     -11.659  43.731 170.950  0.00  0.00    -0.572 OA
ATOM      8  O3  IDS d 304     -12.112  48.741 170.966  0.00  0.00    -0.390 OA
ATOM      9  C5  IDS d 304     -10.157  48.891 173.257  0.00  0.00     0.152 C 
ATOM     10  O5  IDS d 304     -10.465  47.754 173.998  0.00  0.00    -0.340 OA
ATOM     11  O2S IDS d 304      -9.818  43.512 172.437  0.00  0.00    -0.572 OA
ATOM     12  O3S IDS d 304     -11.960  43.876 173.295  0.00  0.00    -0.572 OA
ATOM     13  S   IDS d 304     -11.077  44.107 172.206  0.00  0.00     0.252 S 
ATOM     14  O4  IDS d 304      -8.769  47.813 171.697  0.00  0.00    -0.348 OA
ATOM     15  C3  IDS d 304     -11.084  47.818 171.207  0.00  0.00     0.094 C 
ATOM     16  C1  IDS d 304     -11.692  47.157 173.617  0.00  0.00     0.161 C 
ATOM     17  H   IDS d 304      -9.806  49.509 171.270  0.00  0.00     0.092 H 
ATOM     18  H   IDS d 304     -12.592  46.441 171.843  0.00  0.00     0.097 H 
ATOM     19  H   IDS d 304     -11.788  49.437 170.373  0.00  0.00     0.210 HD
ATOM     20  H   IDS d 304     -11.002  49.548 173.256  0.00  0.00     0.104 H 
ATOM     21  H   IDS d 304     -10.762  47.335 170.308  0.00  0.00     0.091 H 
ATOM     22  H   IDS d 304     -11.858  46.325 174.271  0.00  0.00     0.133 H 
ATOM     23  O3  SGN d 303     -12.849  50.674 175.007  0.00  0.00    -0.391 OA
ATOM     24  S1  SGN d 303     -15.326  51.953 177.904  0.00  0.00     0.156 S 
ATOM     25  O5S SGN d 303     -11.844  44.611 178.000  0.00  0.00    -0.572 OA
ATOM     26  C4  SGN d 303     -13.284  48.275 175.032  0.00  0.00     0.095 C 
ATOM     27  C3  SGN d 303     -13.886  49.729 175.079  0.00  0.00     0.083 C 
ATOM     28  O2S SGN d 303     -13.957  52.219 178.218  0.00  0.00    -0.296 OA
ATOM     29  O6  SGN d 303     -13.137  45.670 176.313  0.00  0.00    -0.254 OA
ATOM     30  C2  SGN d 303     -14.631  49.931 176.407  0.00  0.00     0.081 C 
ATOM     31  O3S SGN d 303     -16.105  53.112 177.726  0.00  0.00    -0.296 OA
ATOM     32  O5  SGN d 303     -15.044  47.565 176.548  0.00  0.00    -0.349 OA
ATOM     33  C1  SGN d 303     -15.672  48.834 176.613  0.00  0.00     0.150 C 
ATOM     34  O4S SGN d 303     -12.535  43.368 176.074  0.00  0.00    -0.572 OA
ATOM     35  C6  SGN d 303     -14.058  45.847 175.301  0.00  0.00     0.067 C 
ATOM     36  O6S SGN d 303     -14.173  44.012 177.722  0.00  0.00    -0.572 OA
ATOM     37  N   SGN d 303     -15.287  51.236 176.464  0.00  0.00    -0.210 NA
ATOM     38  O1S SGN d 303     -15.904  51.015 178.837  0.00  0.00    -0.296 OA
ATOM     39  C5  SGN d 303     -14.436  47.296 175.292  0.00  0.00     0.091 C 
ATOM     40  O4  SGN d 303     -12.780  48.036 173.751  0.00  0.00    -0.348 OA
ATOM     41  S2  SGN d 303     -12.912  44.333 177.069  0.00  0.00     0.251 S 
ATOM     42  H   SGN d 303     -12.367  50.561 174.173  0.00  0.00     0.210 HD
ATOM     43  H   SGN d 303     -12.504  48.160 175.756  0.00  0.00     0.091 H 
ATOM     44  H   SGN d 303     -14.555  49.854 174.253  0.00  0.00     0.089 H 
ATOM     45  H   SGN d 303     -13.482  51.380 178.326  0.00  0.00     0.231 HD
ATOM     46  H   SGN d 303     -13.901  49.883 177.188  0.00  0.00     0.076 H 
ATOM     47  H   SGN d 303     -17.018  52.859 177.516  0.00  0.00     0.231 HD
ATOM     48  H   SGN d 303     -16.133  48.906 177.576  0.00  0.00     0.131 H 
ATOM     49  H   SGN d 303     -14.923  45.244 175.482  0.00  0.00     0.080 H 
ATOM     50  H   SGN d 303     -13.645  45.557 174.357  0.00  0.00     0.080 H 
ATOM     51  H   SGN d 303     -14.798  51.858 175.821  0.00  0.00     0.140 HD
ATOM     52  H   SGN d 303     -15.325  50.242 178.917  0.00  0.00     0.231 HD
ATOM     53  H   SGN d 303     -15.096  47.457 174.465  0.00  0.00     0.090 H 
ATOM     54  C2  SGN d 301     -22.820  46.655 171.698  0.00  0.00     0.081 C 
ATOM     55  C5  SGN d 301     -22.514  49.336 172.456  0.00  0.00     0.091 C 
ATOM     56  O6S SGN d 301     -22.949  52.157 170.332  0.00  0.00    -0.572 OA
ATOM     57  C3  SGN d 301     -22.209  47.047 173.037  0.00  0.00     0.083 C 
ATOM     58  O2S SGN d 301     -21.632  43.856 171.398  0.00  0.00    -0.296 OA
ATOM     59  O6  SGN d 301     -21.200  50.881 171.314  0.00  0.00    -0.254 OA
ATOM     60  O3  SGN d 301     -21.322  46.054 173.498  0.00  0.00    -0.391 OA
ATOM     61  O1  SGN d 301     -24.884  47.839 172.146  0.00  0.00    -0.369 OA
ATOM     62  C6  SGN d 301     -22.020  50.756 172.402  0.00  0.00     0.067 C 
ATOM     63  O5S SGN d 301     -21.631  50.577 169.007  0.00  0.00    -0.572 OA
ATOM     64  O4S SGN d 301     -20.630  52.618 169.793  0.00  0.00    -0.572 OA
ATOM     65  O1S SGN d 301     -22.913  44.646 169.463  0.00  0.00    -0.296 OA
ATOM     66  N   SGN d 301     -23.516  45.386 171.772  0.00  0.00    -0.210 NA
ATOM     67  O4  SGN d 301     -20.738  48.746 173.846  0.00  0.00    -0.348 OA
ATOM     68  C4  SGN d 301     -21.454  48.329 172.744  0.00  0.00     0.095 C 
ATOM     69  S1  SGN d 301     -22.942  44.163 170.852  0.00  0.00     0.156 S 
ATOM     70  S2  SGN d 301     -21.634  51.598 170.036  0.00  0.00     0.251 S 
ATOM     71  O3S SGN d 301     -23.862  43.076 171.081  0.00  0.00    -0.296 OA
ATOM     72  O5  SGN d 301     -23.110  49.009 171.224  0.00  0.00    -0.350 OA
ATOM     73  C1  SGN d 301     -23.770  47.770 171.251  0.00  0.00     0.147 C 
ATOM     74  H   SGN d 301     -22.034  46.532 170.982  0.00  0.00     0.076 H 
ATOM     75  H   SGN d 301     -23.210  49.295 173.268  0.00  0.00     0.090 H 
ATOM     76  H   SGN d 301     -22.951  47.167 173.799  0.00  0.00     0.089 H 
ATOM     77  H   SGN d 301     -21.030  44.600 171.233  0.00  0.00     0.231 HD
ATOM     78  H   SGN d 301     -20.626  45.909 172.838  0.00  0.00     0.210 HD
ATOM     79  H   SGN d 301     -25.338  46.982 172.164  0.00  0.00     0.212 HD
ATOM     80  H   SGN d 301     -21.475  50.984 173.295  0.00  0.00     0.080 H 
ATOM     81  H   SGN d 301     -22.845  51.432 172.323  0.00  0.00     0.080 H 
ATOM     82  H   SGN d 301     -22.276  45.373 169.386  0.00  0.00     0.231 HD
ATOM     83  H   SGN d 301     -24.483  45.550 171.493  0.00  0.00     0.140 HD
ATOM     84  H   SGN d 301     -20.760  48.195 171.941  0.00  0.00     0.091 H 
ATOM     85  H   SGN d 301     -23.585  42.303 170.564  0.00  0.00     0.231 HD
ATOM     86  H   SGN d 301     -24.112  47.545 170.263  0.00  0.00     0.131 H 
ATOM     87  O1S IDS d 302     -16.596  52.713 174.616  0.00  0.00    -0.572 OA
ATOM     88  O2S IDS d 302     -17.538  53.214 172.500  0.00  0.00    -0.572 OA
ATOM     89  O62 IDS d 302     -18.006  46.051 176.665  0.00  0.00    -0.646 OA
ATOM     90  C6  IDS d 302     -18.068  46.455 175.516  0.00  0.00     0.206 C 
ATOM     91  C4  IDS d 302     -17.995  48.895 176.022  0.00  0.00     0.103 C 
ATOM     92  S   IDS d 302     -17.754  52.666 173.793  0.00  0.00     0.252 S 
ATOM     93  O3S IDS d 302     -18.872  53.223 174.452  0.00  0.00    -0.572 OA
ATOM     94  C5  IDS d 302     -18.623  47.799 175.225  0.00  0.00     0.152 C 
ATOM     95  C2  IDS d 302     -19.120  50.439 174.274  0.00  0.00     0.134 C 
ATOM     96  O2  IDS d 302     -18.087  51.150 173.618  0.00  0.00    -0.244 OA
ATOM     97  C3  IDS d 302     -18.715  50.240 175.746  0.00  0.00     0.094 C 
ATOM     98  O61 IDS d 302     -17.673  45.741 174.609  0.00  0.00    -0.646 OA
ATOM     99  O5  IDS d 302     -18.528  48.114 173.872  0.00  0.00    -0.340 OA
ATOM    100  O3  IDS d 302     -19.884  50.277 176.534  0.00  0.00    -0.390 OA
ATOM    101  O4  IDS d 302     -16.659  48.990 175.621  0.00  0.00    -0.348 OA
ATOM    102  C1  IDS d 302     -19.432  49.136 173.522  0.00  0.00     0.161 C 
ATOM    103  H   IDS d 302     -18.068  48.684 177.068  0.00  0.00     0.092 H 
ATOM    104  H   IDS d 302     -19.651  47.736 175.513  0.00  0.00     0.104 H 
ATOM    105  H   IDS d 302     -20.037  50.990 174.271  0.00  0.00     0.097 H 
ATOM    106  H   IDS d 302     -18.026  51.022 175.988  0.00  0.00     0.091 H 
ATOM    107  H   IDS d 302     -20.471  49.550 176.275  0.00  0.00     0.210 HD
ATOM    108  H   IDS d 302     -19.337  49.305 172.470  0.00  0.00     0.133 H 
ATOM    109  O6  SGN d 305      -5.229  51.201 170.732  0.00  0.00    -0.254 OA
ATOM    110  C2  SGN d 305      -6.857  47.004 170.526  0.00  0.00     0.081 C 
ATOM    111  O1S SGN d 305      -8.753  46.378 168.271  0.00  0.00    -0.296 OA
ATOM    112  O5  SGN d 305      -7.271  49.374 170.750  0.00  0.00    -0.349 OA
ATOM    113  S1  SGN d 305      -7.885  45.339 168.736  0.00  0.00     0.156 S 
ATOM    114  O5S SGN d 305      -4.692  52.639 168.813  0.00  0.00    -0.572 OA
ATOM    115  C1  SGN d 305      -7.913  48.104 170.612  0.00  0.00     0.150 C 
ATOM    116  O3  SGN d 305      -5.043  46.019 171.821  0.00  0.00    -0.391 OA
ATOM    117  S2  SGN d 305      -4.700  52.616 170.273  0.00  0.00     0.251 S 
ATOM    118  O6S SGN d 305      -5.621  53.607 170.802  0.00  0.00    -0.572 OA
ATOM    119  C5  SGN d 305      -6.422  49.492 171.920  0.00  0.00     0.090 C 
ATOM    120  O4S SGN d 305      -3.375  52.687 170.850  0.00  0.00    -0.572 OA
ATOM    121  C6  SGN d 305      -5.870  50.920 171.940  0.00  0.00     0.067 C 
ATOM    122  N   SGN d 305      -7.496  45.697 170.277  0.00  0.00    -0.210 NA
ATOM    123  O2S SGN d 305      -6.677  45.330 167.962  0.00  0.00    -0.296 OA
ATOM    124  O3S SGN d 305      -8.514  44.063 168.820  0.00  0.00    -0.296 OA
ATOM    125  C4  SGN d 305      -5.343  48.398 171.930  0.00  0.00     0.089 C 
ATOM    126  O4  SGN d 305      -4.629  48.415 173.156  0.00  0.00    -0.390 OA
ATOM    127  C3  SGN d 305      -6.042  47.026 171.838  0.00  0.00     0.083 C 
ATOM    128  H   SGN d 305      -6.192  47.174 169.705  0.00  0.00     0.076 H 
ATOM    129  H   SGN d 305      -8.265  47.216 168.238  0.00  0.00     0.231 HD
ATOM    130  H   SGN d 305      -8.503  48.145 169.721  0.00  0.00     0.131 H 
ATOM    131  H   SGN d 305      -5.464  45.146 171.764  0.00  0.00     0.210 HD
ATOM    132  H   SGN d 305      -6.971  49.333 172.825  0.00  0.00     0.090 H 
ATOM    133  H   SGN d 305      -6.675  51.610 172.083  0.00  0.00     0.080 H 
ATOM    134  H   SGN d 305      -5.166  51.013 172.741  0.00  0.00     0.080 H 
ATOM    135  H   SGN d 305      -8.355  45.667 170.825  0.00  0.00     0.140 HD
ATOM    136  H   SGN d 305      -6.298  46.223 167.943  0.00  0.00     0.231 HD
ATOM    137  H   SGN d 305      -9.321  44.135 169.353  0.00  0.00     0.231 HD
ATOM    138  H   SGN d 305      -4.675  48.569 171.111  0.00  0.00     0.091 H 
ATOM    139  H   SGN d 305      -5.245  48.259 173.891  0.00  0.00     0.210 HD
ATOM    140  H   SGN d 305      -6.695  46.853 172.669  0.00  0.00     0.089 H 
ENDROOT
TORSDOF 45
ENDMDL
MODEL 4
REMARK VINA RESULT:     -10.9      1.901      2.241
REMARK  0 active torsions:
REMARK  status: ('A' for Active; 'I' for Inactive)
REMARK       I    between atoms: C6_1  and  C5_56 
REMARK       I    between atoms: O3_2  and  C3_19 
REMARK       I    between atoms: C2_3  and  N_45 
REMARK       I    between atoms: S1_4  and  N_72 
REMARK       I    between atoms: S1_4  and  O1S_74 
REMARK       I    between atoms: S1_4  and  O2S_20 
REMARK       I    between atoms: S1_4  and  O3S_35 
REMARK       I    between atoms: C5_5  and  C6_27 
REMARK       I    between atoms: C3_7  and  O3_15 
REMARK       I    between atoms: O2S_10  and  S1_60 
REMARK       I    between atoms: O6_11  and  C6_27 
REMARK       I    between atoms: O6_11  and  S2_67 
REMARK       I    between atoms: C4_14  and  O4_71 
REMARK       I    between atoms: C4_16  and  O4_81 
REMARK       I    between atoms: C6_18  and  C5_53 
REMARK       I    between atoms: O2_21  and  C2_30 
REMARK       I    between atoms: O2_21  and  S_68 
REMARK       I    between atoms: O6_22  and  C6_61 
REMARK       I    between atoms: O6_22  and  S2_47 
REMARK       I    between atoms: O1_23  and  C1_86 
REMARK       I    between atoms: O6_24  and  C6_57 
REMARK       I    between atoms: O6_24  and  S2_89 
REMARK       I    between atoms: C4_25  and  O4_85 
REMARK       I    between atoms: C2_26  and  N_73 
REMARK       I    between atoms: C2_28  and  N_72 
REMARK       I    between atoms: O1S_32  and  S1_37 
REMARK       I    between atoms: S1_37  and  N_73 
REMARK       I    between atoms: S1_37  and  O2S_78 
REMARK       I    between atoms: S1_37  and  O3S_82 
REMARK       I    between atoms: C1_39  and  O4_71 
REMARK       I    between atoms: S_41  and  O2_63 
REMARK       I    between atoms: O3_43  and  C3_88 
REMARK       I    between atoms: O1S_44  and  S1_60 
REMARK       I    between atoms: N_45  and  S1_60 
REMARK       I    between atoms: C1_46  and  O4_85 
REMARK       I    between atoms: O4_48  and  C4_54 
REMARK       I    between atoms: O4_48  and  C1_90 
REMARK       I    between atoms: O3_49  and  C3_77 
REMARK       I    between atoms: C5_52  and  C6_61 
REMARK       I    between atoms: C6_57  and  C5_79 
REMARK       I    between atoms: C2_58  and  O2_63 
REMARK       I    between atoms: S1_60  and  O3S_75 
REMARK       I    between atoms: C3_64  and  O3_80 
REMARK       I    between atoms: O4_81  and  C1_84 
REMARK       I    between atoms: C4_83  and  O4_87 
ROOT
ATOM      1  C6  IDS d 304      -9.682  49.627 174.112  0.00  0.00     0.206 C 
ATOM      2  O61 IDS d 304      -9.320  49.152 175.170  0.00  0.00    -0.646 OA
ATOM      3  C4  IDS d 304     -10.382  48.670 171.942  0.00  0.00     0.103 C 
ATOM      4  O2  IDS d 304     -11.431  45.769 172.146  0.00  0.00    -0.244 OA
ATOM      5  O62 IDS d 304      -9.137  50.603 173.695  0.00  0.00    -0.646 OA
ATOM      6  C2  IDS d 304     -12.234  46.918 172.110  0.00  0.00     0.134 C 
ATOM      7  O1S IDS d 304     -12.367  43.937 170.934  0.00  0.00    -0.572 OA
ATOM      8  O3  IDS d 304     -12.448  48.966 170.850  0.00  0.00    -0.390 OA
ATOM      9  C5  IDS d 304     -10.770  49.016 173.354  0.00  0.00     0.152 C 
ATOM     10  O5  IDS d 304     -11.246  47.917 174.064  0.00  0.00    -0.340 OA
ATOM     11  O2S IDS d 304     -10.735  43.613 172.630  0.00  0.00    -0.572 OA
ATOM     12  O3S IDS d 304     -12.930  44.146 173.225  0.00  0.00    -0.572 OA
ATOM     13  S   IDS d 304     -11.911  44.293 172.246  0.00  0.00     0.252 S 
ATOM     14  O4  IDS d 304      -9.291  47.812 171.980  0.00  0.00    -0.348 OA
ATOM     15  C3  IDS d 304     -11.527  47.976 171.218  0.00  0.00     0.094 C 
ATOM     16  C1  IDS d 304     -12.460  47.404 173.546  0.00  0.00     0.161 C 
ATOM     17  H   IDS d 304     -10.143  49.571 171.417  0.00  0.00     0.092 H 
ATOM     18  H   IDS d 304     -13.196  46.723 171.685  0.00  0.00     0.097 H 
ATOM     19  H   IDS d 304     -12.006  49.627 170.293  0.00  0.00     0.210 HD
ATOM     20  H   IDS d 304     -11.557  49.732 173.247  0.00  0.00     0.104 H 
ATOM     21  H   IDS d 304     -11.138  47.455 170.369  0.00  0.00     0.091 H 
ATOM     22  H   IDS d 304     -12.763  46.598 174.183  0.00  0.00     0.133 H 
ATOM     23  O3  SGN d 303     -13.510  51.019 174.756  0.00  0.00    -0.391 OA
ATOM     24  S1  SGN d 303     -16.208  52.526 177.328  0.00  0.00     0.156 S 
ATOM     25  O5S SGN d 303     -13.313  44.955 177.903  0.00  0.00    -0.572 OA
ATOM     26  C4  SGN d 303     -14.120  48.659 174.752  0.00  0.00     0.095 C 
ATOM     27  C3  SGN d 303     -14.615  50.153 174.714  0.00  0.00     0.083 C 
ATOM     28  O2S SGN d 303     -14.869  52.698 177.799  0.00  0.00    -0.296 OA
ATOM     29  O6  SGN d 303     -14.318  46.074 176.065  0.00  0.00    -0.254 OA
ATOM     30  C2  SGN d 303     -15.494  50.433 175.943  0.00  0.00     0.081 C 
ATOM     31  O3S SGN d 303     -16.873  53.735 177.048  0.00  0.00    -0.296 OA
ATOM     32  O5  SGN d 303     -16.093  48.105 176.056  0.00  0.00    -0.349 OA
ATOM     33  C1  SGN d 303     -16.629  49.418 176.034  0.00  0.00     0.150 C 
ATOM     34  O4S SGN d 303     -13.863  43.730 175.921  0.00  0.00    -0.572 OA
ATOM     35  C6  SGN d 303     -15.097  46.299 174.950  0.00  0.00     0.067 C 
ATOM     36  O6S SGN d 303     -15.631  44.521 177.357  0.00  0.00    -0.572 OA
ATOM     37  N   SGN d 303     -16.053  51.782 175.910  0.00  0.00    -0.210 NA
ATOM     38  O1S SGN d 303     -16.959  51.650 178.194  0.00  0.00    -0.296 OA
ATOM     39  C5  SGN d 303     -15.364  47.771 174.883  0.00  0.00     0.091 C 
ATOM     40  O4  SGN d 303     -13.489  48.361 173.542  0.00  0.00    -0.348 OA
ATOM     41  S2  SGN d 303     -14.282  44.738 176.856  0.00  0.00     0.251 S 
ATOM     42  H   SGN d 303     -12.942  50.857 173.987  0.00  0.00     0.210 HD
ATOM     43  H   SGN d 303     -13.441  48.501 175.564  0.00  0.00     0.091 H 
ATOM     44  H   SGN d 303     -15.171  50.312 173.814  0.00  0.00     0.089 H 
ATOM     45  H   SGN d 303     -14.473  51.829 177.971  0.00  0.00     0.231 HD
ATOM     46  H   SGN d 303     -14.866  50.346 176.805  0.00  0.00     0.076 H 
ATOM     47  H   SGN d 303     -17.771  53.545 176.734  0.00  0.00     0.231 HD
ATOM     48  H   SGN d 303     -17.193  49.540 176.936  0.00  0.00     0.131 H 
ATOM     49  H   SGN d 303     -16.020  45.763 175.033  0.00  0.00     0.080 H 
ATOM     50  H   SGN d 303     -14.599  45.963 174.064  0.00  0.00     0.080 H 
ATOM     51  H   SGN d 303     -15.447  52.356 175.323  0.00  0.00     0.140 HD
ATOM     52  H   SGN d 303     -16.452  50.838 178.350  0.00  0.00     0.231 HD
ATOM     53  H   SGN d 303     -15.909  47.964 173.982  0.00  0.00     0.090 H 
ATOM     54  C2  SGN d 301     -23.292  47.674 170.328  0.00  0.00     0.081 C 
ATOM     55  C5  SGN d 301     -22.880  50.338 171.092  0.00  0.00     0.091 C 
ATOM     56  O6S SGN d 301     -22.854  53.145 168.905  0.00  0.00    -0.572 OA
ATOM     57  C3  SGN d 301     -22.816  48.045 171.726  0.00  0.00     0.083 C 
ATOM     58  O2S SGN d 301     -22.287  44.791 170.196  0.00  0.00    -0.296 OA
ATOM     59  O6  SGN d 301     -21.331  51.764 170.100  0.00  0.00    -0.254 OA
ATOM     60  O3  SGN d 301     -22.064  46.998 172.299  0.00  0.00    -0.391 OA
ATOM     61  O1  SGN d 301     -25.301  49.011 170.518  0.00  0.00    -0.369 OA
ATOM     62  C6  SGN d 301     -22.280  51.717 171.084  0.00  0.00     0.067 C 
ATOM     63  O5S SGN d 301     -21.510  51.451 167.760  0.00  0.00    -0.572 OA
ATOM     64  O4S SGN d 301     -20.460  53.427 168.641  0.00  0.00    -0.572 OA
ATOM     65  O1S SGN d 301     -23.271  45.637 168.116  0.00  0.00    -0.296 OA
ATOM     66  N   SGN d 301     -24.085  46.459 170.331  0.00  0.00    -0.210 NA
ATOM     67  O4  SGN d 301     -21.328  49.647 172.688  0.00  0.00    -0.348 OA
ATOM     68  C4  SGN d 301     -21.939  49.263 171.513  0.00  0.00     0.095 C 
ATOM     69  S1  SGN d 301     -23.498  45.181 169.497  0.00  0.00     0.156 S 
ATOM     70  S2  SGN d 301     -21.557  52.487 168.772  0.00  0.00     0.251 S 
ATOM     71  O3S SGN d 301     -24.517  44.168 169.625  0.00  0.00    -0.296 OA
ATOM     72  O5  SGN d 301     -23.350  50.034 169.801  0.00  0.00    -0.350 OA
ATOM     73  C1  SGN d 301     -24.098  48.845 169.762  0.00  0.00     0.147 C 
ATOM     74  H   SGN d 301     -22.439  47.481 169.712  0.00  0.00     0.076 H 
ATOM     75  H   SGN d 301     -23.668  50.362 171.816  0.00  0.00     0.090 H 
ATOM     76  H   SGN d 301     -23.631  48.231 172.394  0.00  0.00     0.089 H 
ATOM     77  H   SGN d 301     -21.618  45.486 170.097  0.00  0.00     0.231 HD
ATOM     78  H   SGN d 301     -21.309  46.792 171.727  0.00  0.00     0.210 HD
ATOM     79  H   SGN d 301     -25.817  48.190 170.489  0.00  0.00     0.212 HD
ATOM     80  H   SGN d 301     -21.828  51.922 172.033  0.00  0.00     0.080 H 
ATOM     81  H   SGN d 301     -23.038  52.450 170.902  0.00  0.00     0.080 H 
ATOM     82  H   SGN d 301     -22.577  46.314 168.109  0.00  0.00     0.231 HD
ATOM     83  H   SGN d 301     -24.997  46.688 169.938  0.00  0.00     0.140 HD
ATOM     84  H   SGN d 301     -21.167  49.064 170.799  0.00  0.00     0.091 H 
ATOM     85  H   SGN d 301     -24.239  43.369 169.152  0.00  0.00     0.231 HD
ATOM     86  H   SGN d 301     -24.338  48.629 168.742  0.00  0.00     0.131 H 
ATOM     87  O1S IDS d 302     -17.024  53.317 173.906  0.00  0.00    -0.572 OA
ATOM     88  O2S IDS d 302     -17.671  53.846 171.689  0.00  0.00    -0.572 OA
ATOM     89  O62 IDS d 302     -19.152  46.812 175.836  0.00  0.00    -0.646 OA
ATOM     90  C6  IDS d 302     -19.049  47.199 174.683  0.00  0.00     0.206 C 
ATOM     91  C4  IDS d 302     -18.856  49.636 175.172  0.00  0.00     0.103 C 
ATOM     92  S   IDS d 302     -18.077  53.339 172.953  0.00  0.00     0.252 S 
ATOM     93  O3S IDS d 302     -19.221  53.987 173.469  0.00  0.00    -0.572 OA
ATOM     94  C5  IDS d 302     -19.466  48.574 174.317  0.00  0.00     0.152 C 
ATOM     95  C2  IDS d 302     -19.651  51.225 173.289  0.00  0.00     0.134 C 
ATOM     96  O2  IDS d 302     -18.499  51.848 172.753  0.00  0.00    -0.244 OA
ATOM     97  C3  IDS d 302     -19.438  51.025 174.800  0.00  0.00     0.094 C 
ATOM     98  O61 IDS d 302     -18.605  46.442 173.836  0.00  0.00    -0.646 OA
ATOM     99  O5  IDS d 302     -19.189  48.857 172.981  0.00  0.00    -0.340 OA
ATOM    100  O3  IDS d 302     -20.684  51.160 175.443  0.00  0.00    -0.390 OA
ATOM    101  O4  IDS d 302     -17.479  49.627 174.931  0.00  0.00    -0.348 OA
ATOM    102  C1  IDS d 302     -19.968  49.935 172.517  0.00  0.00     0.161 C 
ATOM    103  H   IDS d 302     -19.067  49.449 176.204  0.00  0.00     0.092 H 
ATOM    104  H   IDS d 302     -20.522  48.590 174.481  0.00  0.00     0.104 H 
ATOM    105  H   IDS d 302     -20.518  51.841 173.172  0.00  0.00     0.097 H 
ATOM    106  H   IDS d 302     -18.726  51.759 175.115  0.00  0.00     0.091 H 
ATOM    107  H   IDS d 302     -21.289  50.473 175.123  0.00  0.00     0.210 HD
ATOM    108  H   IDS d 302     -19.737  50.078 171.482  0.00  0.00     0.133 H 
ATOM    109  O6  SGN d 305      -5.422  50.918 171.409  0.00  0.00    -0.254 OA
ATOM    110  C2  SGN d 305      -7.320  46.847 171.050  0.00  0.00     0.081 C 
ATOM    111  O1S SGN d 305      -8.980  46.319 168.593  0.00  0.00    -0.296 OA
ATOM    112  O5  SGN d 305      -7.581  49.244 171.202  0.00  0.00    -0.349 OA
ATOM    113  S1  SGN d 305      -8.251  45.228 169.167  0.00  0.00     0.156 S 
ATOM    114  O5S SGN d 305      -4.559  52.279 169.554  0.00  0.00    -0.572 OA
ATOM    115  C1  SGN d 305      -8.295  48.021 171.001  0.00  0.00     0.150 C 
ATOM    116  O3  SGN d 305      -5.748  45.756 172.561  0.00  0.00    -0.391 OA
ATOM    117  S2  SGN d 305      -4.740  52.282 171.002  0.00  0.00     0.251 S 
ATOM    118  O6S SGN d 305      -5.641  53.347 171.410  0.00  0.00    -0.572 OA
ATOM    119  C5  SGN d 305      -6.870  49.322 172.463  0.00  0.00     0.090 C 
ATOM    120  O4S SGN d 305      -3.490  52.267 171.731  0.00  0.00    -0.572 OA
ATOM    121  C6  SGN d 305      -6.219  50.706 172.536  0.00  0.00     0.067 C 
ATOM    122  N   SGN d 305      -8.021  45.585 170.740  0.00  0.00    -0.210 NA
ATOM    123  O2S SGN d 305      -6.965  45.118 168.541  0.00  0.00    -0.296 OA
ATOM    124  O3S SGN d 305      -8.979  44.003 169.188  0.00  0.00    -0.296 OA
ATOM    125  C4  SGN d 305      -5.883  48.153 172.611  0.00  0.00     0.089 C 
ATOM    126  O4  SGN d 305      -5.319  48.139 173.913  0.00  0.00    -0.390 OA
ATOM    127  C3  SGN d 305      -6.666  46.833 172.449  0.00  0.00     0.083 C 
ATOM    128  H   SGN d 305      -6.553  46.953 170.312  0.00  0.00     0.076 H 
ATOM    129  H   SGN d 305      -8.431  47.119 168.610  0.00  0.00     0.231 HD
ATOM    130  H   SGN d 305      -8.772  48.089 170.046  0.00  0.00     0.131 H 
ATOM    131  H   SGN d 305      -6.223  44.915 172.462  0.00  0.00     0.210 HD
ATOM    132  H   SGN d 305      -7.531  49.219 173.298  0.00  0.00     0.090 H 
ATOM    133  H   SGN d 305      -6.982  51.455 172.576  0.00  0.00     0.080 H 
ATOM    134  H   SGN d 305      -5.609  50.762 173.413  0.00  0.00     0.080 H 
ATOM    135  H   SGN d 305      -8.938  45.627 171.183  0.00  0.00     0.140 HD
ATOM    136  H   SGN d 305      -6.521  45.981 168.559  0.00  0.00     0.231 HD
ATOM    137  H   SGN d 305      -9.835  44.142 169.621  0.00  0.00     0.231 HD
ATOM    138  H   SGN d 305      -5.113  48.260 171.876  0.00  0.00     0.091 H 
ATOM    139  H   SGN d 305      -6.026  48.042 174.571  0.00  0.00     0.210 HD
ATOM    140  H   SGN d 305      -7.422  46.723 173.199  0.00  0.00     0.089 H 
ENDROOT
TORSDOF 45
ENDMDL
MODEL 5
REMARK VINA RESULT:     -10.8      2.795     13.017
REMARK  0 active torsions:
REMARK  status: ('A' for Active; 'I' for Inactive)
REMARK       I    between atoms: C6_1  and  C5_56 
REMARK       I    between atoms: O3_2  and  C3_19 
REMARK       I    between atoms: C2_3  and  N_45 
REMARK       I    between atoms: S1_4  and  N_72 
REMARK       I    between atoms: S1_4  and  O1S_74 
REMARK       I    between atoms: S1_4  and  O2S_20 
REMARK       I    between atoms: S1_4  and  O3S_35 
REMARK       I    between atoms: C5_5  and  C6_27 
REMARK       I    between atoms: C3_7  and  O3_15 
REMARK       I    between atoms: O2S_10  and  S1_60 
REMARK       I    between atoms: O6_11  and  C6_27 
REMARK       I    between atoms: O6_11  and  S2_67 
REMARK       I    between atoms: C4_14  and  O4_71 
REMARK       I    between atoms: C4_16  and  O4_81 
REMARK       I    between atoms: C6_18  and  C5_53 
REMARK       I    between atoms: O2_21  and  C2_30 
REMARK       I    between atoms: O2_21  and  S_68 
REMARK       I    between atoms: O6_22  and  C6_61 
REMARK       I    between atoms: O6_22  and  S2_47 
REMARK       I    between atoms: O1_23  and  C1_86 
REMARK       I    between atoms: O6_24  and  C6_57 
REMARK       I    between atoms: O6_24  and  S2_89 
REMARK       I    between atoms: C4_25  and  O4_85 
REMARK       I    between atoms: C2_26  and  N_73 
REMARK       I    between atoms: C2_28  and  N_72 
REMARK       I    between atoms: O1S_32  and  S1_37 
REMARK       I    between atoms: S1_37  and  N_73 
REMARK       I    between atoms: S1_37  and  O2S_78 
REMARK       I    between atoms: S1_37  and  O3S_82 
REMARK       I    between atoms: C1_39  and  O4_71 
REMARK       I    between atoms: S_41  and  O2_63 
REMARK       I    between atoms: O3_43  and  C3_88 
REMARK       I    between atoms: O1S_44  and  S1_60 
REMARK       I    between atoms: N_45  and  S1_60 
REMARK       I    between atoms: C1_46  and  O4_85 
REMARK       I    between atoms: O4_48  and  C4_54 
REMARK       I    between atoms: O4_48  and  C1_90 
REMARK       I    between atoms: O3_49  and  C3_77 
REMARK       I    between atoms: C5_52  and  C6_61 
REMARK       I    between atoms: C6_57  and  C5_79 
REMARK       I    between atoms: C2_58  and  O2_63 
REMARK       I    between atoms: S1_60  and  O3S_75 
REMARK       I    between atoms: C3_64  and  O3_80 
REMARK       I    between atoms: O4_81  and  C1_84 
REMARK       I    between atoms: C4_83  and  O4_87 
ROOT
ATOM      1  C6  IDS d 304     -19.941  47.312 173.960  0.00  0.00     0.206 C 
ATOM      2  O61 IDS d 304     -20.382  47.541 175.068  0.00  0.00    -0.646 OA
ATOM      3  C4  IDS d 304     -19.424  48.712 171.987  0.00  0.00     0.103 C 
ATOM      4  O2  IDS d 304     -18.912  51.682 172.673  0.00  0.00    -0.244 OA
ATOM      5  O62 IDS d 304     -20.302  46.334 173.380  0.00  0.00    -0.646 OA
ATOM      6  C2  IDS d 304     -17.915  50.714 172.479  0.00  0.00     0.134 C 
ATOM      7  O1S IDS d 304     -18.319  53.820 171.789  0.00  0.00    -0.572 OA
ATOM      8  O3  IDS d 304     -17.339  48.963 170.920  0.00  0.00    -0.390 OA
ATOM      9  C5  IDS d 304     -18.980  48.219 173.338  0.00  0.00     0.152 C 
ATOM     10  O5  IDS d 304     -18.709  49.257 174.224  0.00  0.00    -0.340 OA
ATOM     11  O2S IDS d 304     -19.982  53.576 173.468  0.00  0.00    -0.572 OA
ATOM     12  O3S IDS d 304     -17.728  53.352 174.035  0.00  0.00    -0.572 OA
ATOM     13  S   IDS d 304     -18.704  53.184 173.016  0.00  0.00     0.252 S 
ATOM     14  O4  IDS d 304     -20.651  49.346 172.127  0.00  0.00    -0.348 OA
ATOM     15  C3  IDS d 304     -18.422  49.703 171.414  0.00  0.00     0.094 C 
ATOM     16  C1  IDS d 304     -17.606  50.053 173.828  0.00  0.00     0.161 C 
ATOM     17  H   IDS d 304     -19.498  47.877 171.321  0.00  0.00     0.092 H 
ATOM     18  H   IDS d 304     -17.004  51.141 172.118  0.00  0.00     0.097 H 
ATOM     19  H   IDS d 304     -17.655  48.332 170.255  0.00  0.00     0.210 HD
ATOM     20  H   IDS d 304     -18.077  47.680 173.142  0.00  0.00     0.104 H 
ATOM     21  H   IDS d 304     -18.899  50.275 170.645  0.00  0.00     0.091 H 
ATOM     22  H   IDS d 304     -17.453  50.788 174.591  0.00  0.00     0.133 H 
ATOM     23  O3  SGN d 303     -15.925  46.535 174.486  0.00  0.00    -0.391 OA
ATOM     24  S1  SGN d 303     -13.000  45.139 176.865  0.00  0.00     0.156 S 
ATOM     25  O5S SGN d 303     -17.205  51.889 178.537  0.00  0.00    -0.572 OA
ATOM     26  C4  SGN d 303     -15.748  48.936 174.869  0.00  0.00     0.095 C 
ATOM     27  C3  SGN d 303     -14.994  47.578 174.611  0.00  0.00     0.083 C 
ATOM     28  O2S SGN d 303     -14.286  44.661 177.266  0.00  0.00    -0.296 OA
ATOM     29  O6  SGN d 303     -16.016  51.273 176.576  0.00  0.00    -0.254 OA
ATOM     30  C2  SGN d 303     -14.079  47.267 175.805  0.00  0.00     0.081 C 
ATOM     31  O3S SGN d 303     -12.130  44.127 176.419  0.00  0.00    -0.296 OA
ATOM     32  O5  SGN d 303     -13.906  49.615 176.298  0.00  0.00    -0.349 OA
ATOM     33  C1  SGN d 303     -13.143  48.439 176.087  0.00  0.00     0.150 C 
ATOM     34  O4S SGN d 303     -16.884  53.492 176.787  0.00  0.00    -0.572 OA
ATOM     35  C6  SGN d 303     -15.209  51.370 175.461  0.00  0.00     0.067 C 
ATOM     36  O6S SGN d 303     -15.003  52.808 178.132  0.00  0.00    -0.572 OA
ATOM     37  N   SGN d 303     -13.286  46.060 175.577  0.00  0.00    -0.210 NA
ATOM     38  O1S SGN d 303     -12.419  45.985 177.879  0.00  0.00    -0.296 OA
ATOM     39  C5  SGN d 303     -14.684  49.998 175.172  0.00  0.00     0.091 C 
ATOM     40  O4  SGN d 303     -16.422  49.306 173.703  0.00  0.00    -0.348 OA
ATOM     41  S2  SGN d 303     -16.291  52.438 177.564  0.00  0.00     0.251 S 
ATOM     42  H   SGN d 303     -16.513  46.714 173.736  0.00  0.00     0.210 HD
ATOM     43  H   SGN d 303     -16.444  48.840 175.676  0.00  0.00     0.091 H 
ATOM     44  H   SGN d 303     -14.418  47.666 173.714  0.00  0.00     0.089 H 
ATOM     45  H   SGN d 303     -14.832  45.407 177.560  0.00  0.00     0.231 HD
ATOM     46  H   SGN d 303     -14.711  47.102 176.652  0.00  0.00     0.076 H 
ATOM     47  H   SGN d 303     -11.280  44.520 176.164  0.00  0.00     0.231 HD
ATOM     48  H   SGN d 303     -12.566  48.276 176.973  0.00  0.00     0.131 H 
ATOM     49  H   SGN d 303     -14.398  52.040 175.654  0.00  0.00     0.080 H 
ATOM     50  H   SGN d 303     -15.760  51.749 174.626  0.00  0.00     0.080 H 
ATOM     51  H   SGN d 303     -13.780  45.489 174.891  0.00  0.00     0.140 HD
ATOM     52  H   SGN d 303     -13.062  46.660 178.145  0.00  0.00     0.231 HD
ATOM     53  H   SGN d 303     -14.113  50.050 174.268  0.00  0.00     0.090 H 
ATOM     54  C2  SGN d 301      -6.902  52.220 170.916  0.00  0.00     0.081 C 
ATOM     55  C5  SGN d 301      -6.829  49.438 171.241  0.00  0.00     0.091 C 
ATOM     56  O6S SGN d 301      -6.353  47.055 168.641  0.00  0.00    -0.572 OA
ATOM     57  C3  SGN d 301      -7.304  51.553 172.225  0.00  0.00     0.083 C 
ATOM     58  O2S SGN d 301      -8.407  54.863 171.209  0.00  0.00    -0.296 OA
ATOM     59  O6  SGN d 301      -8.098  47.937 169.994  0.00  0.00    -0.254 OA
ATOM     60  O3  SGN d 301      -8.230  52.346 172.932  0.00  0.00    -0.391 OA
ATOM     61  O1  SGN d 301      -4.685  51.246 170.950  0.00  0.00    -0.369 OA
ATOM     62  C6  SGN d 301      -7.173  47.993 171.000  0.00  0.00     0.067 C 
ATOM     63  O5S SGN d 301      -7.979  48.645 167.738  0.00  0.00    -0.572 OA
ATOM     64  O4S SGN d 301      -8.658  46.400 168.268  0.00  0.00    -0.572 OA
ATOM     65  O1S SGN d 301      -7.288  54.547 169.050  0.00  0.00    -0.296 OA
ATOM     66  N   SGN d 301      -6.340  53.539 171.131  0.00  0.00    -0.210 NA
ATOM     67  O4  SGN d 301      -8.480  49.581 172.881  0.00  0.00    -0.348 OA
ATOM     68  C4  SGN d 301      -7.948  50.249 171.798  0.00  0.00     0.095 C 
ATOM     69  S1  SGN d 301      -7.146  54.809 170.492  0.00  0.00     0.156 S 
ATOM     70  S2  SGN d 301      -7.746  47.486 168.576  0.00  0.00     0.251 S 
ATOM     71  O3S SGN d 301      -6.325  55.953 170.806  0.00  0.00    -0.296 OA
ATOM     72  O5  SGN d 301      -6.422  50.022 170.027  0.00  0.00    -0.350 OA
ATOM     73  C1  SGN d 301      -5.899  51.315 170.196  0.00  0.00     0.147 C 
ATOM     74  H   SGN d 301      -7.776  52.354 170.313  0.00  0.00     0.076 H 
ATOM     75  H   SGN d 301      -6.050  49.438 171.974  0.00  0.00     0.090 H 
ATOM     76  H   SGN d 301      -6.468  51.410 172.877  0.00  0.00     0.089 H 
ATOM     77  H   SGN d 301      -8.941  54.085 170.982  0.00  0.00     0.231 HD
ATOM     78  H   SGN d 301      -9.011  52.503 172.378  0.00  0.00     0.210 HD
ATOM     79  H   SGN d 301      -4.325  52.140 171.065  0.00  0.00     0.212 HD
ATOM     80  H   SGN d 301      -7.580  47.564 171.892  0.00  0.00     0.080 H 
ATOM     81  H   SGN d 301      -6.296  47.445 170.726  0.00  0.00     0.080 H 
ATOM     82  H   SGN d 301      -7.849  53.767 168.917  0.00  0.00     0.231 HD
ATOM     83  H   SGN d 301      -5.401  53.541 170.733  0.00  0.00     0.140 HD
ATOM     84  H   SGN d 301      -8.743  50.419 171.102  0.00  0.00     0.091 H 
ATOM     85  H   SGN d 301      -6.742  56.756 170.455  0.00  0.00     0.231 HD
ATOM     86  H   SGN d 301      -5.702  51.730 169.230  0.00  0.00     0.131 H 
ATOM     87  O1S IDS d 302     -12.057  45.060 173.386  0.00  0.00    -0.572 OA
ATOM     88  O2S IDS d 302     -11.326  45.014 171.133  0.00  0.00    -0.572 OA
ATOM     89  O62 IDS d 302     -11.128  51.448 176.371  0.00  0.00    -0.646 OA
ATOM     90  C6  IDS d 302     -11.160  51.237 175.169  0.00  0.00     0.206 C 
ATOM     91  C4  IDS d 302     -10.914  48.758 175.264  0.00  0.00     0.103 C 
ATOM     92  S   IDS d 302     -11.016  45.377 172.471  0.00  0.00     0.252 S 
ATOM     93  O3S IDS d 302      -9.775  44.868 172.912  0.00  0.00    -0.572 OA
ATOM     94  C5  IDS d 302     -10.504  50.033 174.604  0.00  0.00     0.152 C 
ATOM     95  C2  IDS d 302      -9.847  47.655 173.179  0.00  0.00     0.134 C 
ATOM     96  O2  IDS d 302     -10.869  46.931 172.519  0.00  0.00    -0.244 OA
ATOM     97  C3  IDS d 302     -10.092  47.572 174.697  0.00  0.00     0.094 C 
ATOM     98  O61 IDS d 302     -11.733  52.029 174.439  0.00  0.00    -0.646 OA
ATOM     99  O5  IDS d 302     -10.726  49.922 173.233  0.00  0.00    -0.340 OA
ATOM    100  O3  IDS d 302      -8.841  47.558 175.346  0.00  0.00    -0.390 OA
ATOM    101  O4  IDS d 302     -12.270  48.562 174.989  0.00  0.00    -0.348 OA
ATOM    102  C1  IDS d 302      -9.767  49.087 172.628  0.00  0.00     0.161 C 
ATOM    103  H   IDS d 302     -10.739  48.813 176.318  0.00  0.00     0.092 H 
ATOM    104  H   IDS d 302      -9.462  50.179 174.794  0.00  0.00     0.104 H 
ATOM    105  H   IDS d 302      -8.883  47.229 172.992  0.00  0.00     0.097 H 
ATOM    106  H   IDS d 302     -10.661  46.683 174.872  0.00  0.00     0.091 H 
ATOM    107  H   IDS d 302      -8.370  48.383 175.154  0.00  0.00     0.210 HD
ATOM    108  H   IDS d 302      -9.968  49.072 171.577  0.00  0.00     0.133 H 
ATOM    109  O6  SGN d 305     -23.901  45.735 170.968  0.00  0.00    -0.254 OA
ATOM    110  C2  SGN d 305     -22.763  50.082 171.305  0.00  0.00     0.081 C 
ATOM    111  O1S SGN d 305     -21.225  51.280 169.009  0.00  0.00    -0.296 OA
ATOM    112  O5  SGN d 305     -22.076  47.776 171.087  0.00  0.00    -0.349 OA
ATOM    113  S1  SGN d 305     -22.137  52.119 169.726  0.00  0.00     0.156 S 
ATOM    114  O5S SGN d 305     -24.507  44.556 168.899  0.00  0.00    -0.572 OA
ATOM    115  C1  SGN d 305     -21.594  49.122 171.100  0.00  0.00     0.150 C 
ATOM    116  O3  SGN d 305     -24.505  50.623 172.923  0.00  0.00    -0.391 OA
ATOM    117  S2  SGN d 305     -24.328  44.354 170.333  0.00  0.00     0.251 S 
ATOM    118  O6S SGN d 305     -23.250  43.415 170.594  0.00  0.00    -0.572 OA
ATOM    119  C5  SGN d 305     -22.762  47.374 172.300  0.00  0.00     0.090 C 
ATOM    120  O4S SGN d 305     -25.560  44.031 171.020  0.00  0.00    -0.572 OA
ATOM    121  C6  SGN d 305     -23.154  45.903 172.136  0.00  0.00     0.067 C 
ATOM    122  N   SGN d 305     -22.300  51.481 171.216  0.00  0.00    -0.210 NA
ATOM    123  O2S SGN d 305     -23.423  52.098 169.089  0.00  0.00    -0.296 OA
ATOM    124  O3S SGN d 305     -21.641  53.434 169.959  0.00  0.00    -0.296 OA
ATOM    125  C4  SGN d 305     -23.943  48.311 172.601  0.00  0.00     0.089 C 
ATOM    126  O4  SGN d 305     -24.500  48.017 173.872  0.00  0.00    -0.390 OA
ATOM    127  C3  SGN d 305     -23.409  49.757 172.670  0.00  0.00     0.083 C 
ATOM    128  H   SGN d 305     -23.499  49.961 170.538  0.00  0.00     0.076 H 
ATOM    129  H   SGN d 305     -21.622  50.403 168.885  0.00  0.00     0.231 HD
ATOM    130  H   SGN d 305     -21.113  49.292 170.160  0.00  0.00     0.131 H 
ATOM    131  H   SGN d 305     -24.188  51.540 172.970  0.00  0.00     0.210 HD
ATOM    132  H   SGN d 305     -22.130  47.458 173.159  0.00  0.00     0.090 H 
ATOM    133  H   SGN d 305     -22.269  45.304 172.080  0.00  0.00     0.080 H 
ATOM    134  H   SGN d 305     -23.744  45.601 172.976  0.00  0.00     0.080 H 
ATOM    135  H   SGN d 305     -21.390  51.532 171.673  0.00  0.00     0.140 HD
ATOM    136  H   SGN d 305     -23.704  51.178 168.959  0.00  0.00     0.231 HD
ATOM    137  H   SGN d 305     -20.774  53.382 170.389  0.00  0.00     0.231 HD
ATOM    138  H   SGN d 305     -24.681  48.188 171.836  0.00  0.00     0.091 H 
ATOM    139  H   SGN d 305     -23.822  48.132 174.557  0.00  0.00     0.210 HD
ATOM    140  H   SGN d 305     -22.685  49.879 173.449  0.00  0.00     0.089 H 
ENDROOT
TORSDOF 45
ENDMDL
MODEL 6
REMARK VINA RESULT:     -10.8      1.538      1.756
REMARK  0 active torsions:
REMARK  status: ('A' for Active; 'I' for Inactive)
REMARK       I    between atoms: C6_1  and  C5_56 
REMARK       I    between atoms: O3_2  and  C3_19 
REMARK       I    between atoms: C2_3  and  N_45 
REMARK       I    between atoms: S1_4  and  N_72 
REMARK       I    between atoms: S1_4  and  O1S_74 
REMARK       I    between atoms: S1_4  and  O2S_20 
REMARK       I    between atoms: S1_4  and  O3S_35 
REMARK       I    between atoms: C5_5  and  C6_27 
REMARK       I    between atoms: C3_7  and  O3_15 
REMARK       I    between atoms: O2S_10  and  S1_60 
REMARK       I    between atoms: O6_11  and  C6_27 
REMARK       I    between atoms: O6_11  and  S2_67 
REMARK       I    between atoms: C4_14  and  O4_71 
REMARK       I    between atoms: C4_16  and  O4_81 
REMARK       I    between atoms: C6_18  and  C5_53 
REMARK       I    between atoms: O2_21  and  C2_30 
REMARK       I    between atoms: O2_21  and  S_68 
REMARK       I    between atoms: O6_22  and  C6_61 
REMARK       I    between atoms: O6_22  and  S2_47 
REMARK       I    between atoms: O1_23  and  C1_86 
REMARK       I    between atoms: O6_24  and  C6_57 
REMARK       I    between atoms: O6_24  and  S2_89 
REMARK       I    between atoms: C4_25  and  O4_85 
REMARK       I    between atoms: C2_26  and  N_73 
REMARK       I    between atoms: C2_28  and  N_72 
REMARK       I    between atoms: O1S_32  and  S1_37 
REMARK       I    between atoms: S1_37  and  N_73 
REMARK       I    between atoms: S1_37  and  O2S_78 
REMARK       I    between atoms: S1_37  and  O3S_82 
REMARK       I    between atoms: C1_39  and  O4_71 
REMARK       I    between atoms: S_41  and  O2_63 
REMARK       I    between atoms: O3_43  and  C3_88 
REMARK       I    between atoms: O1S_44  and  S1_60 
REMARK       I    between atoms: N_45  and  S1_60 
REMARK       I    between atoms: C1_46  and  O4_85 
REMARK       I    between atoms: O4_48  and  C4_54 
REMARK       I    between atoms: O4_48  and  C1_90 
REMARK       I    between atoms: O3_49  and  C3_77 
REMARK       I    between atoms: C5_52  and  C6_61 
REMARK       I    between atoms: C6_57  and  C5_79 
REMARK       I    between atoms: C2_58  and  O2_63 
REMARK       I    between atoms: S1_60  and  O3S_75 
REMARK       I    between atoms: C3_64  and  O3_80 
REMARK       I    between atoms: O4_81  and  C1_84 
REMARK       I    between atoms: C4_83  and  O4_87 
ROOT
ATOM      1  C6  IDS d 304     -12.418  47.505 175.343  0.00  0.00     0.206 C 
ATOM      2  O61 IDS d 304     -12.497  46.915 176.402  0.00  0.00    -0.646 OA
ATOM      3  C4  IDS d 304     -12.814  46.875 172.984  0.00  0.00     0.103 C 
ATOM      4  O2  IDS d 304     -14.725  44.468 172.647  0.00  0.00    -0.244 OA
ATOM      5  O62 IDS d 304     -11.512  48.261 175.163  0.00  0.00    -0.646 OA
ATOM      6  C2  IDS d 304     -15.098  45.817 172.544  0.00  0.00     0.134 C 
ATOM      7  O1S IDS d 304     -15.847  43.067 171.073  0.00  0.00    -0.572 OA
ATOM      8  O3  IDS d 304     -14.345  47.851 171.483  0.00  0.00    -0.390 OA
ATOM      9  C5  IDS d 304     -13.416  47.297 174.298  0.00  0.00     0.152 C 
ATOM     10  O5  IDS d 304     -14.370  46.397 174.763  0.00  0.00    -0.340 OA
ATOM     11  O2S IDS d 304     -14.874  42.193 173.056  0.00  0.00    -0.572 OA
ATOM     12  O3S IDS d 304     -16.872  43.396 173.183  0.00  0.00    -0.572 OA
ATOM     13  S   IDS d 304     -15.646  43.227 172.484  0.00  0.00     0.252 S 
ATOM     14  O4  IDS d 304     -12.088  45.709 173.184  0.00  0.00    -0.348 OA
ATOM     15  C3  IDS d 304     -13.899  46.607 171.951  0.00  0.00     0.094 C 
ATOM     16  C1  IDS d 304     -15.514  46.318 173.932  0.00  0.00     0.161 C 
ATOM     17  H   IDS d 304     -12.185  47.662 172.622  0.00  0.00     0.092 H 
ATOM     18  H   IDS d 304     -15.934  45.954 171.892  0.00  0.00     0.097 H 
ATOM     19  H   IDS d 304     -13.597  48.344 171.112  0.00  0.00     0.210 HD
ATOM     20  H   IDS d 304     -13.891  48.233 174.085  0.00  0.00     0.104 H 
ATOM     21  H   IDS d 304     -13.490  46.007 171.165  0.00  0.00     0.091 H 
ATOM     22  H   IDS d 304     -16.199  45.640 174.397  0.00  0.00     0.133 H 
ATOM     23  O3  SGN d 303     -15.661  50.050 175.229  0.00  0.00    -0.391 OA
ATOM     24  S1  SGN d 303     -18.314  52.294 177.251  0.00  0.00     0.156 S 
ATOM     25  O5S SGN d 303     -18.142  44.182 177.705  0.00  0.00    -0.572 OA
ATOM     26  C4  SGN d 303     -16.950  48.017 174.846  0.00  0.00     0.095 C 
ATOM     27  C3  SGN d 303     -16.932  49.591 174.846  0.00  0.00     0.083 C 
ATOM     28  O2S SGN d 303     -17.150  52.012 178.033  0.00  0.00    -0.296 OA
ATOM     29  O6  SGN d 303     -18.259  45.607 175.809  0.00  0.00    -0.254 OA
ATOM     30  C2  SGN d 303     -17.959  50.114 175.862  0.00  0.00     0.081 C 
ATOM     31  O3S SGN d 303     -18.480  53.660 176.951  0.00  0.00    -0.296 OA
ATOM     32  O5  SGN d 303     -19.258  48.105 175.598  0.00  0.00    -0.349 OA
ATOM     33  C1  SGN d 303     -19.338  49.521 175.588  0.00  0.00     0.150 C 
ATOM     34  O4S SGN d 303     -18.530  43.247 175.536  0.00  0.00    -0.572 OA
ATOM     35  C6  SGN d 303     -18.626  46.098 174.573  0.00  0.00     0.067 C 
ATOM     36  O6S SGN d 303     -20.267  44.537 176.600  0.00  0.00    -0.572 OA
ATOM     37  N   SGN d 303     -18.047  51.572 175.839  0.00  0.00    -0.210 NA
ATOM     38  O1S SGN d 303     -19.490  51.690 177.829  0.00  0.00    -0.296 OA
ATOM     39  C5  SGN d 303     -18.398  47.578 174.597  0.00  0.00     0.091 C 
ATOM     40  O4  SGN d 303     -16.160  47.557 173.789  0.00  0.00    -0.348 OA
ATOM     41  S2  SGN d 303     -18.837  44.315 176.447  0.00  0.00     0.251 S 
ATOM     42  H   SGN d 303     -14.998  49.730 174.598  0.00  0.00     0.210 HD
ATOM     43  H   SGN d 303     -16.579  47.629 175.771  0.00  0.00     0.091 H 
ATOM     44  H   SGN d 303     -17.169  49.942 173.864  0.00  0.00     0.089 H 
ATOM     45  H   SGN d 303     -17.098  51.058 178.202  0.00  0.00     0.231 HD
ATOM     46  H   SGN d 303     -17.626  49.809 176.832  0.00  0.00     0.076 H 
ATOM     47  H   SGN d 303     -19.285  53.779 176.422  0.00  0.00     0.231 HD
ATOM     48  H   SGN d 303     -20.043  49.800 176.343  0.00  0.00     0.131 H 
ATOM     49  H   SGN d 303     -19.659  45.889 174.388  0.00  0.00     0.080 H 
ATOM     50  H   SGN d 303     -18.051  45.638 173.796  0.00  0.00     0.080 H 
ATOM     51  H   SGN d 303     -17.167  51.931 175.469  0.00  0.00     0.140 HD
ATOM     52  H   SGN d 303     -19.316  50.755 178.014  0.00  0.00     0.231 HD
ATOM     53  H   SGN d 303     -18.614  47.957 173.619  0.00  0.00     0.090 H 
ATOM     54  C2  SGN d 301     -24.565  50.160 168.358  0.00  0.00     0.081 C 
ATOM     55  C5  SGN d 301     -23.554  52.529 169.463  0.00  0.00     0.091 C 
ATOM     56  O6S SGN d 301     -22.115  55.223 167.636  0.00  0.00    -0.572 OA
ATOM     57  C3  SGN d 301     -24.363  50.325 169.858  0.00  0.00     0.083 C 
ATOM     58  O2S SGN d 301     -24.501  47.111 168.169  0.00  0.00    -0.296 OA
ATOM     59  O6  SGN d 301     -21.443  53.396 169.002  0.00  0.00    -0.254 OA
ATOM     60  O3  SGN d 301     -24.140  49.079 170.478  0.00  0.00    -0.391 OA
ATOM     61  O1  SGN d 301     -26.042  52.073 168.216  0.00  0.00    -0.369 OA
ATOM     62  C6  SGN d 301     -22.575  53.639 169.732  0.00  0.00     0.067 C 
ATOM     63  O5S SGN d 301     -21.120  53.210 166.664  0.00  0.00    -0.572 OA
ATOM     64  O4S SGN d 301     -19.765  54.718 167.958  0.00  0.00    -0.572 OA
ATOM     65  O1S SGN d 301     -24.622  48.276 166.015  0.00  0.00    -0.296 OA
ATOM     66  N   SGN d 301     -25.668  49.269 168.055  0.00  0.00    -0.210 NA
ATOM     67  O4  SGN d 301     -22.743  51.336 171.293  0.00  0.00    -0.348 OA
ATOM     68  C4  SGN d 301     -23.128  51.197 169.977  0.00  0.00     0.095 C 
ATOM     69  S1  SGN d 301     -25.317  47.889 167.254  0.00  0.00     0.156 S 
ATOM     70  S2  SGN d 301     -21.096  54.183 167.738  0.00  0.00     0.251 S 
ATOM     71  O3S SGN d 301     -26.597  47.259 167.041  0.00  0.00    -0.296 OA
ATOM     72  O5  SGN d 301     -23.757  52.422 168.074  0.00  0.00    -0.350 OA
ATOM     73  C1  SGN d 301     -24.801  51.543 167.743  0.00  0.00     0.147 C 
ATOM     74  H   SGN d 301     -23.687  49.715 167.937  0.00  0.00     0.076 H 
ATOM     75  H   SGN d 301     -24.450  52.792 169.984  0.00  0.00     0.090 H 
ATOM     76  H   SGN d 301     -25.220  50.752 170.336  0.00  0.00     0.089 H 
ATOM     77  H   SGN d 301     -23.647  47.553 168.296  0.00  0.00     0.231 HD
ATOM     78  H   SGN d 301     -23.367  48.651 170.077  0.00  0.00     0.210 HD
ATOM     79  H   SGN d 301     -26.762  51.465 167.987  0.00  0.00     0.212 HD
ATOM     80  H   SGN d 301     -22.334  53.664 170.775  0.00  0.00     0.080 H 
ATOM     81  H   SGN d 301     -22.998  54.581 169.456  0.00  0.00     0.080 H 
ATOM     82  H   SGN d 301     -23.774  48.692 166.236  0.00  0.00     0.231 HD
ATOM     83  H   SGN d 301     -26.337  49.790 167.489  0.00  0.00     0.140 HD
ATOM     84  H   SGN d 301     -22.303  50.775 169.442  0.00  0.00     0.091 H 
ATOM     85  H   SGN d 301     -26.471  46.423 166.565  0.00  0.00     0.231 HD
ATOM     86  H   SGN d 301     -24.833  51.438 166.679  0.00  0.00     0.131 H 
ATOM     87  O1S IDS d 302     -17.963  53.383 173.832  0.00  0.00    -0.572 OA
ATOM     88  O2S IDS d 302     -17.839  54.142 171.591  0.00  0.00    -0.572 OA
ATOM     89  O62 IDS d 302     -22.409  47.880 174.552  0.00  0.00    -0.646 OA
ATOM     90  C6  IDS d 302     -21.907  48.238 173.499  0.00  0.00     0.206 C 
ATOM     91  C4  IDS d 302     -21.098  50.469 174.264  0.00  0.00     0.103 C 
ATOM     92  S   IDS d 302     -18.684  53.766 172.670  0.00  0.00     0.252 S 
ATOM     93  O3S IDS d 302     -19.663  54.739 172.973  0.00  0.00    -0.572 OA
ATOM     94  C5  IDS d 302     -21.772  49.682 173.188  0.00  0.00     0.152 C 
ATOM     95  C2  IDS d 302     -20.866  52.271 172.420  0.00  0.00     0.134 C 
ATOM     96  O2  IDS d 302     -19.482  52.498 172.228  0.00  0.00    -0.244 OA
ATOM     97  C3  IDS d 302     -21.110  51.979 173.911  0.00  0.00     0.094 C 
ATOM     98  O61 IDS d 302     -21.522  47.396 172.705  0.00  0.00    -0.646 OA
ATOM     99  O5  IDS d 302     -21.097  49.889 171.988  0.00  0.00    -0.340 OA
ATOM    100  O3  IDS d 302     -22.373  52.497 174.261  0.00  0.00    -0.390 OA
ATOM    101  O4  IDS d 302     -19.777  50.018 174.346  0.00  0.00    -0.348 OA
ATOM    102  C1  IDS d 302     -21.362  51.171 171.469  0.00  0.00     0.161 C 
ATOM    103  H   IDS d 302     -21.608  50.338 175.195  0.00  0.00     0.092 H 
ATOM    104  H   IDS d 302     -22.778  50.036 173.107  0.00  0.00     0.104 H 
ATOM    105  H   IDS d 302     -21.442  53.138 172.170  0.00  0.00     0.097 H 
ATOM    106  H   IDS d 302     -20.309  52.435 174.453  0.00  0.00     0.091 H 
ATOM    107  H   IDS d 302     -23.060  52.051 173.743  0.00  0.00     0.210 HD
ATOM    108  H   IDS d 302     -20.848  51.254 170.534  0.00  0.00     0.133 H 
ATOM    109  O6  SGN d 305      -7.435  47.403 173.835  0.00  0.00    -0.254 OA
ATOM    110  C2  SGN d 305     -10.346  44.177 172.639  0.00  0.00     0.081 C 
ATOM    111  O1S SGN d 305     -11.418  44.271 169.826  0.00  0.00    -0.296 OA
ATOM    112  O5  SGN d 305      -9.882  46.526 172.969  0.00  0.00    -0.349 OA
ATOM    113  S1  SGN d 305     -11.230  42.991 170.438  0.00  0.00     0.156 S 
ATOM    114  O5S SGN d 305      -5.759  48.450 172.375  0.00  0.00    -0.572 OA
ATOM    115  C1  SGN d 305     -10.865  45.605 172.487  0.00  0.00     0.150 C 
ATOM    116  O3  SGN d 305      -9.618  42.602 174.351  0.00  0.00    -0.391 OA
ATOM    117  S2  SGN d 305      -6.286  48.480 173.736  0.00  0.00     0.251 S 
ATOM    118  O6S SGN d 305      -6.885  49.771 174.031  0.00  0.00    -0.572 OA
ATOM    119  C5  SGN d 305      -9.520  46.340 174.361  0.00  0.00     0.090 C 
ATOM    120  O4S SGN d 305      -5.326  48.044 174.727  0.00  0.00    -0.572 OA
ATOM    121  C6  SGN d 305      -8.514  47.436 174.721  0.00  0.00     0.067 C 
ATOM    122  N   SGN d 305     -11.301  43.218 172.049  0.00  0.00    -0.210 NA
ATOM    123  O2S SGN d 305      -9.927  42.483 170.116  0.00  0.00    -0.296 OA
ATOM    124  O3S SGN d 305     -12.281  42.068 170.167  0.00  0.00    -0.296 OA
ATOM    125  C4  SGN d 305      -9.014  44.911 174.612  0.00  0.00     0.089 C 
ATOM    126  O4  SGN d 305      -8.825  44.687 176.000  0.00  0.00    -0.390 OA
ATOM    127  C3  SGN d 305     -10.099  43.921 174.142  0.00  0.00     0.083 C 
ATOM    128  H   SGN d 305      -9.425  44.045 172.111  0.00  0.00     0.076 H 
ATOM    129  H   SGN d 305     -10.671  44.849 170.049  0.00  0.00     0.231 HD
ATOM    130  H   SGN d 305     -11.042  45.845 171.459  0.00  0.00     0.131 H 
ATOM    131  H   SGN d 305     -10.289  41.964 174.061  0.00  0.00     0.210 HD
ATOM    132  H   SGN d 305     -10.368  46.439 175.007  0.00  0.00     0.090 H 
ATOM    133  H   SGN d 305      -8.992  48.391 174.660  0.00  0.00     0.080 H 
ATOM    134  H   SGN d 305      -8.156  47.272 175.716  0.00  0.00     0.080 H 
ATOM    135  H   SGN d 305     -12.241  43.546 172.272  0.00  0.00     0.140 HD
ATOM    136  H   SGN d 305      -9.258  43.155 170.323  0.00  0.00     0.231 HD
ATOM    137  H   SGN d 305     -13.132  42.468 170.404  0.00  0.00     0.231 HD
ATOM    138  H   SGN d 305      -8.090  44.779 174.088  0.00  0.00     0.091 H 
ATOM    139  H   SGN d 305      -9.669  44.810 176.465  0.00  0.00     0.210 HD
ATOM    140  H   SGN d 305     -11.015  44.046 174.683  0.00  0.00     0.089 H 
ENDROOT
TORSDOF 45
ENDMDL
MODEL 7
REMARK VINA RESULT:     -10.7      2.849     12.863
REMARK  0 active torsions:
REMARK  status: ('A' for Active; 'I' for Inactive)
REMARK       I    between atoms: C6_1  and  C5_56 
REMARK       I    between atoms: O3_2  and  C3_19 
REMARK       I    between atoms: C2_3  and  N_45 
REMARK       I    between atoms: S1_4  and  N_72 
REMARK       I    between atoms: S1_4  and  O1S_74 
REMARK       I    between atoms: S1_4  and  O2S_20 
REMARK       I    between atoms: S1_4  and  O3S_35 
REMARK       I    between atoms: C5_5  and  C6_27 
REMARK       I    between atoms: C3_7  and  O3_15 
REMARK       I    between atoms: O2S_10  and  S1_60 
REMARK       I    between atoms: O6_11  and  C6_27 
REMARK       I    between atoms: O6_11  and  S2_67 
REMARK       I    between atoms: C4_14  and  O4_71 
REMARK       I    between atoms: C4_16  and  O4_81 
REMARK       I    between atoms: C6_18  and  C5_53 
REMARK       I    between atoms: O2_21  and  C2_30 
REMARK       I    between atoms: O2_21  and  S_68 
REMARK       I    between atoms: O6_22  and  C6_61 
REMARK       I    between atoms: O6_22  and  S2_47 
REMARK       I    between atoms: O1_23  and  C1_86 
REMARK       I    between atoms: O6_24  and  C6_57 
REMARK       I    between atoms: O6_24  and  S2_89 
REMARK       I    between atoms: C4_25  and  O4_85 
REMARK       I    between atoms: C2_26  and  N_73 
REMARK       I    between atoms: C2_28  and  N_72 
REMARK       I    between atoms: O1S_32  and  S1_37 
REMARK       I    between atoms: S1_37  and  N_73 
REMARK       I    between atoms: S1_37  and  O2S_78 
REMARK       I    between atoms: S1_37  and  O3S_82 
REMARK       I    between atoms: C1_39  and  O4_71 
REMARK       I    between atoms: S_41  and  O2_63 
REMARK       I    between atoms: O3_43  and  C3_88 
REMARK       I    between atoms: O1S_44  and  S1_60 
REMARK       I    between atoms: N_45  and  S1_60 
REMARK       I    between atoms: C1_46  and  O4_85 
REMARK       I    between atoms: O4_48  and  C4_54 
REMARK       I    between atoms: O4_48  and  C1_90 
REMARK       I    between atoms: O3_49  and  C3_77 
REMARK       I    between atoms: C5_52  and  C6_61 
REMARK       I    between atoms: C6_57  and  C5_79 
REMARK       I    between atoms: C2_58  and  O2_63 
REMARK       I    between atoms: S1_60  and  O3S_75 
REMARK       I    between atoms: C3_64  and  O3_80 
REMARK       I    between atoms: O4_81  and  C1_84 
REMARK       I    between atoms: C4_83  and  O4_87 
ROOT
ATOM      1  C6  IDS d 304     -20.668  46.702 173.431  0.00  0.00     0.206 C 
ATOM      2  O61 IDS d 304     -21.271  46.888 174.468  0.00  0.00    -0.646 OA
ATOM      3  C4  IDS d 304     -20.074  48.131 171.501  0.00  0.00     0.103 C 
ATOM      4  O2  IDS d 304     -20.017  51.150 172.165  0.00  0.00    -0.244 OA
ATOM      5  O62 IDS d 304     -20.830  45.680 172.837  0.00  0.00    -0.646 OA
ATOM      6  C2  IDS d 304     -18.894  50.309 172.125  0.00  0.00     0.134 C 
ATOM      7  O1S IDS d 304     -19.578  53.333 171.305  0.00  0.00    -0.572 OA
ATOM      8  O3  IDS d 304     -17.915  48.624 170.699  0.00  0.00    -0.390 OA
ATOM      9  C5  IDS d 304     -19.752  47.713 172.911  0.00  0.00     0.152 C 
ATOM     10  O5  IDS d 304     -19.723  48.787 173.795  0.00  0.00    -0.340 OA
ATOM     11  O2S IDS d 304     -21.401  52.907 172.767  0.00  0.00    -0.572 OA
ATOM     12  O3S IDS d 304     -19.227  52.969 173.619  0.00  0.00    -0.572 OA
ATOM     13  S   IDS d 304     -20.037  52.670 172.490  0.00  0.00     0.252 S 
ATOM     14  O4  IDS d 304     -21.376  48.610 171.469  0.00  0.00    -0.348 OA
ATOM     15  C3  IDS d 304     -19.134  49.232 171.032  0.00  0.00     0.094 C 
ATOM     16  C1  IDS d 304     -18.683  49.708 173.519  0.00  0.00     0.161 C 
ATOM     17  H   IDS d 304     -19.961  47.286 170.854  0.00  0.00     0.092 H 
ATOM     18  H   IDS d 304     -18.002  50.841 171.869  0.00  0.00     0.097 H 
ATOM     19  H   IDS d 304     -18.065  47.952 170.017  0.00  0.00     0.210 HD
ATOM     20  H   IDS d 304     -18.772  47.287 172.845  0.00  0.00     0.104 H 
ATOM     21  H   IDS d 304     -19.574  49.731 170.194  0.00  0.00     0.091 H 
ATOM     22  H   IDS d 304     -18.718  50.464 174.275  0.00  0.00     0.133 H 
ATOM     23  O3  SGN d 303     -16.688  46.431 174.479  0.00  0.00    -0.391 OA
ATOM     24  S1  SGN d 303     -13.946  45.434 177.245  0.00  0.00     0.156 S 
ATOM     25  O5S SGN d 303     -19.113  51.634 178.189  0.00  0.00    -0.572 OA
ATOM     26  C4  SGN d 303     -16.852  48.840 174.816  0.00  0.00     0.095 C 
ATOM     27  C3  SGN d 303     -15.913  47.583 174.692  0.00  0.00     0.083 C 
ATOM     28  O2S SGN d 303     -15.205  44.806 177.494  0.00  0.00    -0.296 OA
ATOM     29  O6  SGN d 303     -17.617  51.146 176.411  0.00  0.00    -0.254 OA
ATOM     30  C2  SGN d 303     -15.128  47.400 176.000  0.00  0.00     0.081 C 
ATOM     31  O3S SGN d 303     -12.909  44.532 176.939  0.00  0.00    -0.296 OA
ATOM     32  O5  SGN d 303     -15.304  49.758 176.447  0.00  0.00    -0.349 OA
ATOM     33  C1  SGN d 303     -14.384  48.682 176.365  0.00  0.00     0.150 C 
ATOM     34  O4S SGN d 303     -18.766  53.243 176.451  0.00  0.00    -0.572 OA
ATOM     35  C6  SGN d 303     -16.692  51.328 175.405  0.00  0.00     0.067 C 
ATOM     36  O6S SGN d 303     -17.004  52.812 178.039  0.00  0.00    -0.572 OA
ATOM     37  N   SGN d 303     -14.173  46.298 175.907  0.00  0.00    -0.210 NA
ATOM     38  O1S SGN d 303     -13.605  46.358 178.301  0.00  0.00    -0.296 OA
ATOM     39  C5  SGN d 303     -15.972  50.028 175.222  0.00  0.00     0.091 C 
ATOM     40  O4  SGN d 303     -17.411  49.110 173.564  0.00  0.00    -0.348 OA
ATOM     41  S2  SGN d 303     -18.154  52.280 177.325  0.00  0.00     0.251 S 
ATOM     42  H   SGN d 303     -17.192  46.528 173.657  0.00  0.00     0.210 HD
ATOM     43  H   SGN d 303     -17.629  48.668 175.531  0.00  0.00     0.091 H 
ATOM     44  H   SGN d 303     -15.241  47.730 173.872  0.00  0.00     0.089 H 
ATOM     45  H   SGN d 303     -15.870  45.482 177.696  0.00  0.00     0.231 HD
ATOM     46  H   SGN d 303     -15.839  47.169 176.765  0.00  0.00     0.076 H 
ATOM     47  H   SGN d 303     -12.087  45.024 176.783  0.00  0.00     0.231 HD
ATOM     48  H   SGN d 303     -13.910  48.602 177.321  0.00  0.00     0.131 H 
ATOM     49  H   SGN d 303     -15.998  52.096 175.679  0.00  0.00     0.080 H 
ATOM     50  H   SGN d 303     -17.172  51.627 174.496  0.00  0.00     0.080 H 
ATOM     51  H   SGN d 303     -14.502  45.662 175.180  0.00  0.00     0.140 HD
ATOM     52  H   SGN d 303     -14.354  46.951 178.465  0.00  0.00     0.231 HD
ATOM     53  H   SGN d 303     -15.300  50.139 174.396  0.00  0.00     0.090 H 
ATOM     54  C2  SGN d 301      -8.033  53.142 171.919  0.00  0.00     0.081 C 
ATOM     55  C5  SGN d 301      -7.668  50.393 172.327  0.00  0.00     0.091 C 
ATOM     56  O6S SGN d 301      -6.579  48.058 169.874  0.00  0.00    -0.572 OA
ATOM     57  C3  SGN d 301      -8.517  52.446 173.184  0.00  0.00     0.083 C 
ATOM     58  O2S SGN d 301      -9.872  55.583 171.948  0.00  0.00    -0.296 OA
ATOM     59  O6  SGN d 301      -8.577  48.733 170.971  0.00  0.00    -0.254 OA
ATOM     60  O3  SGN d 301      -9.615  53.127 173.748  0.00  0.00    -0.391 OA
ATOM     61  O1  SGN d 301      -5.739  52.449 172.258  0.00  0.00    -0.369 OA
ATOM     62  C6  SGN d 301      -7.801  48.915 172.084  0.00  0.00     0.067 C 
ATOM     63  O5S SGN d 301      -8.255  49.424 168.730  0.00  0.00    -0.572 OA
ATOM     64  O4S SGN d 301      -8.720  47.119 169.231  0.00  0.00    -0.572 OA
ATOM     65  O1S SGN d 301      -8.455  55.381 169.957  0.00  0.00    -0.296 OA
ATOM     66  N   SGN d 301      -7.667  54.523 172.167  0.00  0.00    -0.210 NA
ATOM     67  O4  SGN d 301      -9.521  50.352 173.741  0.00  0.00    -0.348 OA
ATOM     68  C4  SGN d 301      -8.939  51.067 172.716  0.00  0.00     0.095 C 
ATOM     69  S1  SGN d 301      -8.532  55.676 171.397  0.00  0.00     0.156 S 
ATOM     70  S2  SGN d 301      -7.994  48.313 169.622  0.00  0.00     0.251 S 
ATOM     71  O3S SGN d 301      -7.902  56.916 171.780  0.00  0.00    -0.296 OA
ATOM     72  O5  SGN d 301      -7.182  51.010 171.158  0.00  0.00    -0.350 OA
ATOM     73  C1  SGN d 301      -6.845  52.359 171.356  0.00  0.00     0.147 C 
ATOM     74  H   SGN d 301      -8.833  53.160 171.207  0.00  0.00     0.076 H 
ATOM     75  H   SGN d 301      -6.995  50.499 173.151  0.00  0.00     0.090 H 
ATOM     76  H   SGN d 301      -7.760  52.415 173.941  0.00  0.00     0.089 H 
ATOM     77  H   SGN d 301     -10.275  54.743 171.677  0.00  0.00     0.231 HD
ATOM     78  H   SGN d 301     -10.331  53.180 173.096  0.00  0.00     0.210 HD
ATOM     79  H   SGN d 301      -5.507  53.381 172.394  0.00  0.00     0.212 HD
ATOM     80  H   SGN d 301      -8.265  48.449 172.928  0.00  0.00     0.080 H 
ATOM     81  H   SGN d 301      -6.837  48.476 171.938  0.00  0.00     0.080 H 
ATOM     82  H   SGN d 301      -8.897  54.537 169.775  0.00  0.00     0.231 HD
ATOM     83  H   SGN d 301      -6.692  54.636 171.891  0.00  0.00     0.140 HD
ATOM     84  H   SGN d 301      -9.652  51.130 171.921  0.00  0.00     0.091 H 
ATOM     85  H   SGN d 301      -8.364  57.658 171.358  0.00  0.00     0.231 HD
ATOM     86  H   SGN d 301      -6.577  52.783 170.411  0.00  0.00     0.131 H 
ATOM     87  O1S IDS d 302     -12.561  45.431 173.916  0.00  0.00    -0.572 OA
ATOM     88  O2S IDS d 302     -11.547  45.449 171.774  0.00  0.00    -0.572 OA
ATOM     89  O62 IDS d 302     -12.800  51.919 176.818  0.00  0.00    -0.646 OA
ATOM     90  C6  IDS d 302     -12.652  51.692 175.628  0.00  0.00     0.206 C 
ATOM     91  C4  IDS d 302     -12.123  49.264 175.821  0.00  0.00     0.103 C 
ATOM     92  S   IDS d 302     -11.458  45.863 173.131  0.00  0.00     0.252 S 
ATOM     93  O3S IDS d 302     -10.231  45.516 173.738  0.00  0.00    -0.572 OA
ATOM     94  C5  IDS d 302     -11.788  50.572 175.183  0.00  0.00     0.152 C 
ATOM     95  C2  IDS d 302     -10.672  48.276 173.918  0.00  0.00     0.134 C 
ATOM     96  O2  IDS d 302     -11.506  47.424 173.155  0.00  0.00    -0.244 OA
ATOM     97  C3  IDS d 302     -11.098  48.181 175.394  0.00  0.00     0.094 C 
ATOM     98  O61 IDS d 302     -13.218  52.398 174.810  0.00  0.00    -0.646 OA
ATOM     99  O5  IDS d 302     -11.818  50.418 173.799  0.00  0.00    -0.340 OA
ATOM    100  O3  IDS d 302      -9.948  48.329 176.195  0.00  0.00    -0.390 OA
ATOM    101  O4  IDS d 302     -13.399  48.898 175.383  0.00  0.00    -0.348 OA
ATOM    102  C1  IDS d 302     -10.695  49.700 173.342  0.00  0.00     0.161 C 
ATOM    103  H   IDS d 302     -12.093  49.352 176.887  0.00  0.00     0.092 H 
ATOM    104  H   IDS d 302     -10.804  50.846 175.498  0.00  0.00     0.104 H 
ATOM    105  H   IDS d 302      -9.648  47.969 173.865  0.00  0.00     0.097 H 
ATOM    106  H   IDS d 302     -11.573  47.231 175.520  0.00  0.00     0.091 H 
ATOM    107  H   IDS d 302      -9.559  49.204 176.042  0.00  0.00     0.210 HD
ATOM    108  H   IDS d 302     -10.757  49.648 172.275  0.00  0.00     0.133 H 
ATOM    109  O6  SGN d 305     -23.991  44.613 170.009  0.00  0.00    -0.254 OA
ATOM    110  C2  SGN d 305     -23.439  49.072 170.368  0.00  0.00     0.081 C 
ATOM    111  O1S SGN d 305     -21.776  50.423 168.251  0.00  0.00    -0.296 OA
ATOM    112  O5  SGN d 305     -22.457  46.865 170.301  0.00  0.00    -0.349 OA
ATOM    113  S1  SGN d 305     -22.867  51.151 168.825  0.00  0.00     0.156 S 
ATOM    114  O5S SGN d 305     -24.180  43.345 167.913  0.00  0.00    -0.572 OA
ATOM    115  C1  SGN d 305     -22.146  48.260 170.338  0.00  0.00     0.150 C 
ATOM    116  O3  SGN d 305     -25.426  49.413 171.738  0.00  0.00    -0.391 OA
ATOM    117  S2  SGN d 305     -24.163  43.183 169.364  0.00  0.00     0.251 S 
ATOM    118  O6S SGN d 305     -23.023  42.387 169.784  0.00  0.00    -0.572 OA
ATOM    119  C5  SGN d 305     -23.239  46.396 171.429  0.00  0.00     0.090 C 
ATOM    120  O4S SGN d 305     -25.425  42.719 169.899  0.00  0.00    -0.572 OA
ATOM    121  C6  SGN d 305     -23.427  44.886 171.257  0.00  0.00     0.067 C 
ATOM    122  N   SGN d 305     -23.141  50.516 170.299  0.00  0.00    -0.210 NA
ATOM    123  O2S SGN d 305     -24.048  50.964 168.032  0.00  0.00    -0.296 OA
ATOM    124  O3S SGN d 305     -22.567  52.520 169.082  0.00  0.00    -0.296 OA
ATOM    125  C4  SGN d 305     -24.553  47.184 171.553  0.00  0.00     0.089 C 
ATOM    126  O4  SGN d 305     -25.229  46.838 172.752  0.00  0.00    -0.390 OA
ATOM    127  C3  SGN d 305     -24.211  48.686 171.649  0.00  0.00     0.083 C 
ATOM    128  H   SGN d 305     -24.051  48.852 169.518  0.00  0.00     0.076 H 
ATOM    129  H   SGN d 305     -22.044  49.502 168.102  0.00  0.00     0.231 HD
ATOM    130  H   SGN d 305     -21.572  48.478 169.461  0.00  0.00     0.131 H 
ATOM    131  H   SGN d 305     -25.231  50.362 171.800  0.00  0.00     0.210 HD
ATOM    132  H   SGN d 305     -22.737  46.567 172.358  0.00  0.00     0.090 H 
ATOM    133  H   SGN d 305     -22.476  44.400 171.329  0.00  0.00     0.080 H 
ATOM    134  H   SGN d 305     -24.078  44.523 172.024  0.00  0.00     0.080 H 
ATOM    135  H   SGN d 305     -22.310  50.684 170.866  0.00  0.00     0.140 HD
ATOM    136  H   SGN d 305     -24.197  50.016 167.893  0.00  0.00     0.231 HD
ATOM    137  H   SGN d 305     -21.762  52.580 169.620  0.00  0.00     0.231 HD
ATOM    138  H   SGN d 305     -25.167  46.962 170.705  0.00  0.00     0.091 H 
ATOM    139  H   SGN d 305     -24.663  47.044 173.513  0.00  0.00     0.210 HD
ATOM    140  H   SGN d 305     -23.612  48.904 172.509  0.00  0.00     0.089 H 
ENDROOT
TORSDOF 45
ENDMDL
MODEL 8
REMARK VINA RESULT:     -10.6      3.383      5.239
REMARK  0 active torsions:
REMARK  status: ('A' for Active; 'I' for Inactive)
REMARK       I    between atoms: C6_1  and  C5_56 
REMARK       I    between atoms: O3_2  and  C3_19 
REMARK       I    between atoms: C2_3  and  N_45 
REMARK       I    between atoms: S1_4  and  N_72 
REMARK       I    between atoms: S1_4  and  O1S_74 
REMARK       I    between atoms: S1_4  and  O2S_20 
REMARK       I    between atoms: S1_4  and  O3S_35 
REMARK       I    between atoms: C5_5  and  C6_27 
REMARK       I    between atoms: C3_7  and  O3_15 
REMARK       I    between atoms: O2S_10  and  S1_60 
REMARK       I    between atoms: O6_11  and  C6_27 
REMARK       I    between atoms: O6_11  and  S2_67 
REMARK       I    between atoms: C4_14  and  O4_71 
REMARK       I    between atoms: C4_16  and  O4_81 
REMARK       I    between atoms: C6_18  and  C5_53 
REMARK       I    between atoms: O2_21  and  C2_30 
REMARK       I    between atoms: O2_21  and  S_68 
REMARK       I    between atoms: O6_22  and  C6_61 
REMARK       I    between atoms: O6_22  and  S2_47 
REMARK       I    between atoms: O1_23  and  C1_86 
REMARK       I    between atoms: O6_24  and  C6_57 
REMARK       I    between atoms: O6_24  and  S2_89 
REMARK       I    between atoms: C4_25  and  O4_85 
REMARK       I    between atoms: C2_26  and  N_73 
REMARK       I    between atoms: C2_28  and  N_72 
REMARK       I    between atoms: O1S_32  and  S1_37 
REMARK       I    between atoms: S1_37  and  N_73 
REMARK       I    between atoms: S1_37  and  O2S_78 
REMARK       I    between atoms: S1_37  and  O3S_82 
REMARK       I    between atoms: C1_39  and  O4_71 
REMARK       I    between atoms: S_41  and  O2_63 
REMARK       I    between atoms: O3_43  and  C3_88 
REMARK       I    between atoms: O1S_44  and  S1_60 
REMARK       I    between atoms: N_45  and  S1_60 
REMARK       I    between atoms: C1_46  and  O4_85 
REMARK       I    between atoms: O4_48  and  C4_54 
REMARK       I    between atoms: O4_48  and  C1_90 
REMARK       I    between atoms: O3_49  and  C3_77 
REMARK       I    between atoms: C5_52  and  C6_61 
REMARK       I    between atoms: C6_57  and  C5_79 
REMARK       I    between atoms: C2_58  and  O2_63 
REMARK       I    between atoms: S1_60  and  O3S_75 
REMARK       I    between atoms: C3_64  and  O3_80 
REMARK       I    between atoms: O4_81  and  C1_84 
REMARK       I    between atoms: C4_83  and  O4_87 
ROOT
ATOM      1  C6  IDS d 304     -13.022  48.783 175.061  0.00  0.00     0.206 C 
ATOM      2  O61 IDS d 304     -13.326  48.424 176.181  0.00  0.00    -0.646 OA
ATOM      3  C4  IDS d 304     -13.765  48.155 172.787  0.00  0.00     0.103 C 
ATOM      4  O2  IDS d 304     -16.597  46.916 172.706  0.00  0.00    -0.244 OA
ATOM      5  O62 IDS d 304     -11.875  48.995 174.809  0.00  0.00    -0.646 OA
ATOM      6  C2  IDS d 304     -16.293  48.260 172.437  0.00  0.00     0.134 C 
ATOM      7  O1S IDS d 304     -18.310  46.046 171.290  0.00  0.00    -0.572 OA
ATOM      8  O3  IDS d 304     -14.716  49.562 171.155  0.00  0.00    -0.390 OA
ATOM      9  C5  IDS d 304     -14.042  48.956 174.031  0.00  0.00     0.152 C 
ATOM     10  O5  IDS d 304     -15.287  48.673 174.584  0.00  0.00    -0.340 OA
ATOM     11  O2S IDS d 304     -17.783  45.045 173.379  0.00  0.00    -0.572 OA
ATOM     12  O3S IDS d 304     -18.971  47.055 173.328  0.00  0.00    -0.572 OA
ATOM     13  S   IDS d 304     -18.000  46.249 172.675  0.00  0.00     0.252 S 
ATOM     14  O4  IDS d 304     -13.667  46.815 173.137  0.00  0.00    -0.348 OA
ATOM     15  C3  IDS d 304     -14.889  48.316 171.775  0.00  0.00     0.094 C 
ATOM     16  C1  IDS d 304     -16.367  49.050 173.748  0.00  0.00     0.161 C 
ATOM     17  H   IDS d 304     -12.855  48.504 172.346  0.00  0.00     0.092 H 
ATOM     18  H   IDS d 304     -16.993  48.702 171.759  0.00  0.00     0.097 H 
ATOM     19  H   IDS d 304     -13.839  49.598 170.741  0.00  0.00     0.210 HD
ATOM     20  H   IDS d 304     -14.028  49.974 173.701  0.00  0.00     0.104 H 
ATOM     21  H   IDS d 304     -14.844  47.511 171.072  0.00  0.00     0.091 H 
ATOM     22  H   IDS d 304     -17.271  48.835 174.279  0.00  0.00     0.133 H 
ATOM     23  O3  SGN d 303     -14.684  52.528 174.591  0.00  0.00    -0.391 OA
ATOM     24  S1  SGN d 303     -15.880  55.971 176.287  0.00  0.00     0.156 S 
ATOM     25  O5S SGN d 303     -19.534  48.852 177.703  0.00  0.00    -0.572 OA
ATOM     26  C4  SGN d 303     -16.794  51.317 174.430  0.00  0.00     0.095 C 
ATOM     27  C3  SGN d 303     -16.036  52.685 174.244  0.00  0.00     0.083 C 
ATOM     28  O2S SGN d 303     -14.956  55.262 177.116  0.00  0.00    -0.296 OA
ATOM     29  O6  SGN d 303     -19.043  49.939 175.650  0.00  0.00    -0.254 OA
ATOM     30  C2  SGN d 303     -16.653  53.741 175.173  0.00  0.00     0.081 C 
ATOM     31  O3S SGN d 303     -15.395  57.209 175.824  0.00  0.00    -0.296 OA
ATOM     32  O5  SGN d 303     -18.754  52.570 175.127  0.00  0.00    -0.349 OA
ATOM     33  C1  SGN d 303     -18.158  53.844 174.947  0.00  0.00     0.150 C 
ATOM     34  O4S SGN d 303     -20.406  47.973 175.653  0.00  0.00    -0.572 OA
ATOM     35  C6  SGN d 303     -19.186  50.402 174.358  0.00  0.00     0.067 C 
ATOM     36  O6S SGN d 303     -21.284  50.041 176.528  0.00  0.00    -0.572 OA
ATOM     37  N   SGN d 303     -16.044  55.055 174.975  0.00  0.00    -0.210 NA
ATOM     38  O1S SGN d 303     -17.177  56.064 176.913  0.00  0.00    -0.296 OA
ATOM     39  C5  SGN d 303     -18.287  51.590 174.210  0.00  0.00     0.091 C 
ATOM     40  O4  SGN d 303     -16.358  50.423 173.448  0.00  0.00    -0.348 OA
ATOM     41  S2  SGN d 303     -20.135  49.155 176.426  0.00  0.00     0.251 S 
ATOM     42  H   SGN d 303     -14.277  51.863 174.014  0.00  0.00     0.210 HD
ATOM     43  H   SGN d 303     -16.611  50.907 175.401  0.00  0.00     0.091 H 
ATOM     44  H   SGN d 303     -16.120  52.993 173.223  0.00  0.00     0.089 H 
ATOM     45  H   SGN d 303     -15.353  54.423 177.398  0.00  0.00     0.231 HD
ATOM     46  H   SGN d 303     -16.463  53.426 176.178  0.00  0.00     0.076 H 
ATOM     47  H   SGN d 303     -16.070  57.634 175.271  0.00  0.00     0.231 HD
ATOM     48  H   SGN d 303     -18.617  54.506 175.652  0.00  0.00     0.131 H 
ATOM     49  H   SGN d 303     -20.202  50.687 174.181  0.00  0.00     0.080 H 
ATOM     50  H   SGN d 303     -18.928  49.641 173.651  0.00  0.00     0.080 H 
ATOM     51  H   SGN d 303     -15.115  54.911 174.580  0.00  0.00     0.140 HD
ATOM     52  H   SGN d 303     -17.457  55.185 177.210  0.00  0.00     0.231 HD
ATOM     53  H   SGN d 303     -18.338  51.914 173.191  0.00  0.00     0.090 H 
ATOM     54  C2  SGN d 301     -22.759  56.061 167.605  0.00  0.00     0.081 C 
ATOM     55  C5  SGN d 301     -20.707  57.778 168.437  0.00  0.00     0.091 C 
ATOM     56  O6S SGN d 301     -18.245  59.246 166.329  0.00  0.00    -0.572 OA
ATOM     57  C3  SGN d 301     -22.441  56.278 169.078  0.00  0.00     0.083 C 
ATOM     58  O2S SGN d 301     -24.148  53.345 167.779  0.00  0.00    -0.296 OA
ATOM     59  O6  SGN d 301     -18.458  57.485 167.913  0.00  0.00    -0.254 OA
ATOM     60  O3  SGN d 301     -22.807  55.154 169.845  0.00  0.00    -0.391 OA
ATOM     61  O1  SGN d 301     -23.165  58.415 167.211  0.00  0.00    -0.369 OA
ATOM     62  C6  SGN d 301     -19.310  58.314 168.590  0.00  0.00     0.067 C 
ATOM     63  O5S SGN d 301     -18.356  56.907 165.620  0.00  0.00    -0.572 OA
ATOM     64  O4S SGN d 301     -16.399  57.730 166.749  0.00  0.00    -0.572 OA
ATOM     65  O1S SGN d 301     -23.794  54.178 165.501  0.00  0.00    -0.296 OA
ATOM     66  N   SGN d 301     -24.164  55.770 167.391  0.00  0.00    -0.210 NA
ATOM     67  O4  SGN d 301     -20.479  56.557 170.410  0.00  0.00    -0.348 OA
ATOM     68  C4  SGN d 301     -20.938  56.470 169.113  0.00  0.00     0.095 C 
ATOM     69  S1  SGN d 301     -24.537  54.307 166.765  0.00  0.00     0.156 S 
ATOM     70  S2  SGN d 301     -17.833  57.866 166.571  0.00  0.00     0.251 S 
ATOM     71  O3S SGN d 301     -25.971  54.338 166.606  0.00  0.00    -0.296 OA
ATOM     72  O5  SGN d 301     -20.993  57.624 167.068  0.00  0.00    -0.350 OA
ATOM     73  C1  SGN d 301     -22.341  57.311 166.826  0.00  0.00     0.147 C 
ATOM     74  H   SGN d 301     -22.213  55.210 167.255  0.00  0.00     0.076 H 
ATOM     75  H   SGN d 301     -21.351  58.489 168.909  0.00  0.00     0.090 H 
ATOM     76  H   SGN d 301     -22.976  57.110 169.487  0.00  0.00     0.089 H 
ATOM     77  H   SGN d 301     -23.182  53.342 167.868  0.00  0.00     0.231 HD
ATOM     78  H   SGN d 301     -22.344  54.369 169.511  0.00  0.00     0.210 HD
ATOM     79  H   SGN d 301     -24.096  58.198 167.044  0.00  0.00     0.212 HD
ATOM     80  H   SGN d 301     -19.043  58.341 169.626  0.00  0.00     0.080 H 
ATOM     81  H   SGN d 301     -19.250  59.307 168.197  0.00  0.00     0.080 H 
ATOM     82  H   SGN d 301     -22.842  54.165 165.685  0.00  0.00     0.231 HD
ATOM     83  H   SGN d 301     -24.531  56.478 166.755  0.00  0.00     0.140 HD
ATOM     84  H   SGN d 301     -20.432  55.651 168.646  0.00  0.00     0.091 H 
ATOM     85  H   SGN d 301     -26.274  53.494 166.235  0.00  0.00     0.231 HD
ATOM     86  H   SGN d 301     -22.462  57.116 165.782  0.00  0.00     0.131 H 
ATOM     87  O1S IDS d 302     -15.198  56.372 172.770  0.00  0.00    -0.572 OA
ATOM     88  O2S IDS d 302     -14.824  56.724 170.457  0.00  0.00    -0.572 OA
ATOM     89  O62 IDS d 302     -21.680  53.746 174.061  0.00  0.00    -0.646 OA
ATOM     90  C6  IDS d 302     -21.112  53.703 172.982  0.00  0.00     0.206 C 
ATOM     91  C4  IDS d 302     -19.316  55.356 173.490  0.00  0.00     0.103 C 
ATOM     92  S   IDS d 302     -15.701  56.917 171.558  0.00  0.00     0.252 S 
ATOM     93  O3S IDS d 302     -16.092  58.264 171.727  0.00  0.00    -0.572 OA
ATOM     94  C5  IDS d 302     -20.326  54.866 172.504  0.00  0.00     0.152 C 
ATOM     95  C2  IDS d 302     -18.338  56.614 171.450  0.00  0.00     0.134 C 
ATOM     96  O2  IDS d 302     -17.020  56.136 171.256  0.00  0.00    -0.244 OA
ATOM     97  C3  IDS d 302     -18.630  56.642 172.961  0.00  0.00     0.094 C 
ATOM     98  O61 IDS d 302     -21.202  52.696 172.300  0.00  0.00    -0.646 OA
ATOM     99  O5  IDS d 302     -19.683  54.593 171.299  0.00  0.00    -0.340 OA
ATOM    100  O3  IDS d 302     -19.483  57.731 173.226  0.00  0.00    -0.390 OA
ATOM    101  O4  IDS d 302     -18.362  54.347 173.648  0.00  0.00    -0.348 OA
ATOM    102  C1  IDS d 302     -19.333  55.780 170.628  0.00  0.00     0.161 C 
ATOM    103  H   IDS d 302     -19.789  55.587 174.422  0.00  0.00     0.092 H 
ATOM    104  H   IDS d 302     -21.048  55.642 172.364  0.00  0.00     0.104 H 
ATOM    105  H   IDS d 302     -18.447  57.616 171.089  0.00  0.00     0.097 H 
ATOM    106  H   IDS d 302     -17.686  56.722 173.459  0.00  0.00     0.091 H 
ATOM    107  H   IDS d 302     -20.321  57.608 172.752  0.00  0.00     0.210 HD
ATOM    108  H   IDS d 302     -18.880  55.505 169.699  0.00  0.00     0.133 H 
ATOM    109  O6  SGN d 305      -8.742  46.168 173.661  0.00  0.00    -0.254 OA
ATOM    110  C2  SGN d 305     -12.876  44.591 172.807  0.00  0.00     0.081 C 
ATOM    111  O1S SGN d 305     -13.892  44.863 169.984  0.00  0.00    -0.296 OA
ATOM    112  O5  SGN d 305     -11.347  46.461 172.864  0.00  0.00    -0.349 OA
ATOM    113  S1  SGN d 305     -14.305  43.724 170.747  0.00  0.00     0.156 S 
ATOM    114  O5S SGN d 305      -6.832  46.126 172.116  0.00  0.00    -0.572 OA
ATOM    115  C1  SGN d 305     -12.667  46.067 172.477  0.00  0.00     0.150 C 
ATOM    116  O3  SGN d 305     -12.907  43.063 174.706  0.00  0.00    -0.391 OA
ATOM    117  S2  SGN d 305      -7.226  46.555 173.455  0.00  0.00     0.251 S 
ATOM    118  O6S SGN d 305      -7.133  47.999 173.585  0.00  0.00    -0.572 OA
ATOM    119  C5  SGN d 305     -11.059  46.284 174.274  0.00  0.00     0.090 C 
ATOM    120  O4S SGN d 305      -6.545  45.832 174.507  0.00  0.00    -0.572 OA
ATOM    121  C6  SGN d 305      -9.640  46.807 174.518  0.00  0.00     0.067 C 
ATOM    122  N   SGN d 305     -14.194  44.138 172.319  0.00  0.00    -0.210 NA
ATOM    123  O2S SGN d 305     -13.409  42.628 170.510  0.00  0.00    -0.296 OA
ATOM    124  O3S SGN d 305     -15.677  43.384 170.570  0.00  0.00    -0.296 OA
ATOM    125  C4  SGN d 305     -11.275  44.824 174.701  0.00  0.00     0.089 C 
ATOM    126  O4  SGN d 305     -11.158  44.695 176.110  0.00  0.00    -0.390 OA
ATOM    127  C3  SGN d 305     -12.718  44.419 174.334  0.00  0.00     0.083 C 
ATOM    128  H   SGN d 305     -12.149  43.980 172.314  0.00  0.00     0.076 H 
ATOM    129  H   SGN d 305     -12.953  45.040 170.150  0.00  0.00     0.231 HD
ATOM    130  H   SGN d 305     -12.752  46.245 171.426  0.00  0.00     0.131 H 
ATOM    131  H   SGN d 305     -13.811  42.789 174.482  0.00  0.00     0.210 HD
ATOM    132  H   SGN d 305     -11.732  46.844 174.889  0.00  0.00     0.090 H 
ATOM    133  H   SGN d 305      -9.614  47.861 174.337  0.00  0.00     0.080 H 
ATOM    134  H   SGN d 305      -9.362  46.606 175.532  0.00  0.00     0.080 H 
ATOM    135  H   SGN d 305     -14.858  44.894 172.485  0.00  0.00     0.140 HD
ATOM    136  H   SGN d 305     -12.495  42.922 170.647  0.00  0.00     0.231 HD
ATOM    137  H   SGN d 305     -16.229  44.163 170.743  0.00  0.00     0.231 HD
ATOM    138  H   SGN d 305     -10.545  44.213 174.212  0.00  0.00     0.091 H 
ATOM    139  H   SGN d 305     -11.824  45.254 176.542  0.00  0.00     0.210 HD
ATOM    140  H   SGN d 305     -13.443  45.022 174.840  0.00  0.00     0.089 H 
ENDROOT
TORSDOF 45
ENDMDL
MODEL 9
REMARK VINA RESULT:     -10.6      1.091      1.138
REMARK  0 active torsions:
REMARK  status: ('A' for Active; 'I' for Inactive)
REMARK       I    between atoms: C6_1  and  C5_56 
REMARK       I    between atoms: O3_2  and  C3_19 
REMARK       I    between atoms: C2_3  and  N_45 
REMARK       I    between atoms: S1_4  and  N_72 
REMARK       I    between atoms: S1_4  and  O1S_74 
REMARK       I    between atoms: S1_4  and  O2S_20 
REMARK       I    between atoms: S1_4  and  O3S_35 
REMARK       I    between atoms: C5_5  and  C6_27 
REMARK       I    between atoms: C3_7  and  O3_15 
REMARK       I    between atoms: O2S_10  and  S1_60 
REMARK       I    between atoms: O6_11  and  C6_27 
REMARK       I    between atoms: O6_11  and  S2_67 
REMARK       I    between atoms: C4_14  and  O4_71 
REMARK       I    between atoms: C4_16  and  O4_81 
REMARK       I    between atoms: C6_18  and  C5_53 
REMARK       I    between atoms: O2_21  and  C2_30 
REMARK       I    between atoms: O2_21  and  S_68 
REMARK       I    between atoms: O6_22  and  C6_61 
REMARK       I    between atoms: O6_22  and  S2_47 
REMARK       I    between atoms: O1_23  and  C1_86 
REMARK       I    between atoms: O6_24  and  C6_57 
REMARK       I    between atoms: O6_24  and  S2_89 
REMARK       I    between atoms: C4_25  and  O4_85 
REMARK       I    between atoms: C2_26  and  N_73 
REMARK       I    between atoms: C2_28  and  N_72 
REMARK       I    between atoms: O1S_32  and  S1_37 
REMARK       I    between atoms: S1_37  and  N_73 
REMARK       I    between atoms: S1_37  and  O2S_78 
REMARK       I    between atoms: S1_37  and  O3S_82 
REMARK       I    between atoms: C1_39  and  O4_71 
REMARK       I    between atoms: S_41  and  O2_63 
REMARK       I    between atoms: O3_43  and  C3_88 
REMARK       I    between atoms: O1S_44  and  S1_60 
REMARK       I    between atoms: N_45  and  S1_60 
REMARK       I    between atoms: C1_46  and  O4_85 
REMARK       I    between atoms: O4_48  and  C4_54 
REMARK       I    between atoms: O4_48  and  C1_90 
REMARK       I    between atoms: O3_49  and  C3_77 
REMARK       I    between atoms: C5_52  and  C6_61 
REMARK       I    between atoms: C6_57  and  C5_79 
REMARK       I    between atoms: C2_58  and  O2_63 
REMARK       I    between atoms: S1_60  and  O3S_75 
REMARK       I    between atoms: C3_64  and  O3_80 
REMARK       I    between atoms: O4_81  and  C1_84 
REMARK       I    between atoms: C4_83  and  O4_87 
ROOT
ATOM      1  C6  IDS d 304     -10.628  49.350 174.655  0.00  0.00     0.206 C 
ATOM      2  O61 IDS d 304     -10.417  48.817 175.726  0.00  0.00    -0.646 OA
ATOM      3  C4  IDS d 304     -11.085  48.515 172.372  0.00  0.00     0.103 C 
ATOM      4  O2  IDS d 304     -12.247  45.651 172.309  0.00  0.00    -0.244 OA
ATOM      5  O62 IDS d 304     -10.004  50.322 174.355  0.00  0.00    -0.646 OA
ATOM      6  C2  IDS d 304     -13.001  46.832 172.229  0.00  0.00     0.134 C 
ATOM      7  O1S IDS d 304     -13.087  43.912 170.906  0.00  0.00    -0.572 OA
ATOM      8  O3  IDS d 304     -12.988  48.939 171.050  0.00  0.00    -0.390 OA
ATOM      9  C5  IDS d 304     -11.633  48.815 173.742  0.00  0.00     0.152 C 
ATOM     10  O5  IDS d 304     -12.230  47.707 174.334  0.00  0.00    -0.340 OA
ATOM     11  O2S IDS d 304     -11.690  43.451 172.771  0.00  0.00    -0.572 OA
ATOM     12  O3S IDS d 304     -13.923  44.043 173.118  0.00  0.00    -0.572 OA
ATOM     13  S   IDS d 304     -12.785  44.193 172.279  0.00  0.00     0.252 S 
ATOM     14  O4  IDS d 304     -10.037  47.615 172.503  0.00  0.00    -0.348 OA
ATOM     15  C3  IDS d 304     -12.153  47.898 171.482  0.00  0.00     0.094 C 
ATOM     16  C1  IDS d 304     -13.388  47.264 173.648  0.00  0.00     0.161 C 
ATOM     17  H   IDS d 304     -10.752  49.429 171.924  0.00  0.00     0.092 H 
ATOM     18  H   IDS d 304     -13.909  46.693 171.680  0.00  0.00     0.097 H 
ATOM     19  H   IDS d 304     -12.459  49.605 170.583  0.00  0.00     0.210 HD
ATOM     20  H   IDS d 304     -12.377  49.566 173.572  0.00  0.00     0.104 H 
ATOM     21  H   IDS d 304     -11.679  47.400 170.663  0.00  0.00     0.091 H 
ATOM     22  H   IDS d 304     -13.794  46.445 174.204  0.00  0.00     0.133 H 
ATOM     23  O3  SGN d 303     -14.458  50.863 174.890  0.00  0.00    -0.391 OA
ATOM     24  S1  SGN d 303     -17.403  52.362 177.179  0.00  0.00     0.156 S 
ATOM     25  O5S SGN d 303     -14.857  44.666 177.746  0.00  0.00    -0.572 OA
ATOM     26  C4  SGN d 303     -15.142  48.531 174.699  0.00  0.00     0.095 C 
ATOM     27  C3  SGN d 303     -15.577  50.043 174.671  0.00  0.00     0.083 C 
ATOM     28  O2S SGN d 303     -16.128  52.461 177.819  0.00  0.00    -0.296 OA
ATOM     29  O6  SGN d 303     -15.588  45.901 175.854  0.00  0.00    -0.254 OA
ATOM     30  C2  SGN d 303     -16.592  50.304 175.794  0.00  0.00     0.081 C 
ATOM     31  O3S SGN d 303     -17.987  53.608 176.878  0.00  0.00    -0.296 OA
ATOM     32  O5  SGN d 303     -17.279  47.999 175.723  0.00  0.00    -0.349 OA
ATOM     33  C1  SGN d 303     -17.764  49.331 175.698  0.00  0.00     0.150 C 
ATOM     34  O4S SGN d 303     -15.197  43.550 175.655  0.00  0.00    -0.572 OA
ATOM     35  C6  SGN d 303     -16.215  46.204 174.663  0.00  0.00     0.067 C 
ATOM     36  O6S SGN d 303     -17.103  44.347 176.900  0.00  0.00    -0.572 OA
ATOM     37  N   SGN d 303     -17.098  51.675 175.757  0.00  0.00    -0.210 NA
ATOM     38  O1S SGN d 303     -18.285  51.480 177.904  0.00  0.00    -0.296 OA
ATOM     39  C5  SGN d 303     -16.421  47.687 174.634  0.00  0.00     0.091 C 
ATOM     40  O4  SGN d 303     -14.375  48.261 173.563  0.00  0.00    -0.348 OA
ATOM     41  S2  SGN d 303     -15.696  44.532 176.578  0.00  0.00     0.251 S 
ATOM     42  H   SGN d 303     -13.805  50.712 174.189  0.00  0.00     0.210 HD
ATOM     43  H   SGN d 303     -14.575  48.312 175.580  0.00  0.00     0.091 H 
ATOM     44  H   SGN d 303     -16.012  50.262 173.718  0.00  0.00     0.089 H 
ATOM     45  H   SGN d 303     -15.786  51.571 177.996  0.00  0.00     0.231 HD
ATOM     46  H   SGN d 303     -16.080  50.156 176.722  0.00  0.00     0.076 H 
ATOM     47  H   SGN d 303     -18.845  53.466 176.447  0.00  0.00     0.231 HD
ATOM     48  H   SGN d 303     -18.431  49.437 176.528  0.00  0.00     0.131 H 
ATOM     49  H   SGN d 303     -17.158  45.702 174.607  0.00  0.00     0.080 H 
ATOM     50  H   SGN d 303     -15.621  45.887 173.831  0.00  0.00     0.080 H 
ATOM     51  H   SGN d 303     -16.405  52.249 175.277  0.00  0.00     0.140 HD
ATOM     52  H   SGN d 303     -17.829  50.643 178.082  0.00  0.00     0.231 HD
ATOM     53  H   SGN d 303     -16.843  47.940 173.683  0.00  0.00     0.090 H 
ATOM     54  C2  SGN d 301     -23.720  48.095 169.141  0.00  0.00     0.081 C 
ATOM     55  C5  SGN d 301     -23.317  50.706 170.075  0.00  0.00     0.091 C 
ATOM     56  O6S SGN d 301     -22.925  53.601 168.043  0.00  0.00    -0.572 OA
ATOM     57  C3  SGN d 301     -23.409  48.387 170.603  0.00  0.00     0.083 C 
ATOM     58  O2S SGN d 301     -22.804  45.183 168.997  0.00  0.00    -0.296 OA
ATOM     59  O6  SGN d 301     -21.609  52.111 169.349  0.00  0.00    -0.254 OA
ATOM     60  O3  SGN d 301     -22.770  47.288 171.213  0.00  0.00    -0.391 OA
ATOM     61  O1  SGN d 301     -25.691  49.501 169.145  0.00  0.00    -0.369 OA
ATOM     62  C6  SGN d 301     -22.675  52.060 170.206  0.00  0.00     0.067 C 
ATOM     63  O5S SGN d 301     -21.506  51.906 166.993  0.00  0.00    -0.572 OA
ATOM     64  O4S SGN d 301     -20.508  53.800 168.088  0.00  0.00    -0.572 OA
ATOM     65  O1S SGN d 301     -23.492  46.156 166.854  0.00  0.00    -0.296 OA
ATOM     66  N   SGN d 301     -24.547  46.914 168.988  0.00  0.00    -0.210 NA
ATOM     67  O4  SGN d 301     -22.000  49.887 171.815  0.00  0.00    -0.348 OA
ATOM     68  C4  SGN d 301     -22.472  49.578 170.557  0.00  0.00     0.095 C 
ATOM     69  S1  SGN d 301     -23.904  45.651 168.174  0.00  0.00     0.156 S 
ATOM     70  S2  SGN d 301     -21.645  52.899 168.039  0.00  0.00     0.251 S 
ATOM     71  O3S SGN d 301     -24.964  44.674 168.128  0.00  0.00    -0.296 OA
ATOM     72  O5  SGN d 301     -23.633  50.476 168.723  0.00  0.00    -0.350 OA
ATOM     73  C1  SGN d 301     -24.410  49.321 168.536  0.00  0.00     0.147 C 
ATOM     74  H   SGN d 301     -22.804  47.896 168.625  0.00  0.00     0.076 H 
ATOM     75  H   SGN d 301     -24.187  50.730 170.697  0.00  0.00     0.090 H 
ATOM     76  H   SGN d 301     -24.295  48.576 171.173  0.00  0.00     0.089 H 
ATOM     77  H   SGN d 301     -22.104  45.855 169.013  0.00  0.00     0.231 HD
ATOM     78  H   SGN d 301     -21.957  47.077 170.729  0.00  0.00     0.210 HD
ATOM     79  H   SGN d 301     -26.227  48.702 169.015  0.00  0.00     0.212 HD
ATOM     80  H   SGN d 301     -22.338  52.206 171.211  0.00  0.00     0.080 H 
ATOM     81  H   SGN d 301     -23.379  52.829 169.967  0.00  0.00     0.080 H 
ATOM     82  H   SGN d 301     -22.780  46.805 166.964  0.00  0.00     0.231 HD
ATOM     83  H   SGN d 301     -25.396  47.194 168.498  0.00  0.00     0.140 HD
ATOM     84  H   SGN d 301     -21.625  49.380 169.934  0.00  0.00     0.091 H 
ATOM     85  H   SGN d 301     -24.657  43.885 167.654  0.00  0.00     0.231 HD
ATOM     86  H   SGN d 301     -24.528  49.158 167.485  0.00  0.00     0.131 H 
ATOM     87  O1S IDS d 302     -17.760  53.331 173.724  0.00  0.00    -0.572 OA
ATOM     88  O2S IDS d 302     -18.108  53.979 171.472  0.00  0.00    -0.572 OA
ATOM     89  O62 IDS d 302     -20.329  46.837 175.068  0.00  0.00    -0.646 OA
ATOM     90  C6  IDS d 302     -20.070  47.269 173.956  0.00  0.00     0.206 C 
ATOM     91  C4  IDS d 302     -19.857  49.673 174.580  0.00  0.00     0.103 C 
ATOM     92  S   IDS d 302     -18.685  53.434 172.651  0.00  0.00     0.252 S 
ATOM     93  O3S IDS d 302     -19.862  54.104 173.053  0.00  0.00    -0.572 OA
ATOM     94  C5  IDS d 302     -20.392  48.674 173.607  0.00  0.00     0.152 C 
ATOM     95  C2  IDS d 302     -20.358  51.372 172.691  0.00  0.00     0.134 C 
ATOM     96  O2  IDS d 302     -19.128  51.971 172.330  0.00  0.00    -0.244 OA
ATOM     97  C3  IDS d 302     -20.342  51.098 174.206  0.00  0.00     0.094 C 
ATOM     98  O61 IDS d 302     -19.549  46.532 173.135  0.00  0.00    -0.646 OA
ATOM     99  O5  IDS d 302     -19.942  49.003 172.330  0.00  0.00    -0.340 OA
ATOM    100  O3  IDS d 302     -21.654  51.254 174.697  0.00  0.00    -0.390 OA
ATOM    101  O4  IDS d 302     -18.462  49.620 174.510  0.00  0.00    -0.348 OA
ATOM    102  C1  IDS d 302     -20.620  50.129 171.826  0.00  0.00     0.161 C 
ATOM    103  H   IDS d 302     -20.202  49.451 175.568  0.00  0.00     0.092 H 
ATOM    104  H   IDS d 302     -21.459  48.724 173.641  0.00  0.00     0.104 H 
ATOM    105  H   IDS d 302     -21.183  52.025 172.498  0.00  0.00     0.097 H 
ATOM    106  H   IDS d 302     -19.650  51.789 174.640  0.00  0.00     0.091 H 
ATOM    107  H   IDS d 302     -22.237  50.606 174.273  0.00  0.00     0.210 HD
ATOM    108  H   IDS d 302     -20.258  50.307 170.835  0.00  0.00     0.133 H 
ATOM    109  O6  SGN d 305      -6.024  50.589 172.560  0.00  0.00    -0.254 OA
ATOM    110  C2  SGN d 305      -7.998  46.614 171.778  0.00  0.00     0.081 C 
ATOM    111  O1S SGN d 305      -9.357  46.257 169.113  0.00  0.00    -0.296 OA
ATOM    112  O5  SGN d 305      -8.196  49.011 172.010  0.00  0.00    -0.349 OA
ATOM    113  S1  SGN d 305      -8.742  45.115 169.720  0.00  0.00     0.156 S 
ATOM    114  O5S SGN d 305      -4.892  51.993 170.891  0.00  0.00    -0.572 OA
ATOM    115  C1  SGN d 305      -8.920  47.827 171.665  0.00  0.00     0.150 C 
ATOM    116  O3  SGN d 305      -6.664  45.399 173.417  0.00  0.00    -0.391 OA
ATOM    117  S2  SGN d 305      -5.252  51.941 172.305  0.00  0.00     0.251 S 
ATOM    118  O6S SGN d 305      -6.160  53.022 172.648  0.00  0.00    -0.572 OA
ATOM    119  C5  SGN d 305      -7.645  49.007 173.352  0.00  0.00     0.090 C 
ATOM    120  O4S SGN d 305      -4.104  51.846 173.180  0.00  0.00    -0.572 OA
ATOM    121  C6  SGN d 305      -6.962  50.360 173.568  0.00  0.00     0.067 C 
ATOM    122  N   SGN d 305      -8.697  45.395 171.324  0.00  0.00    -0.210 NA
ATOM    123  O2S SGN d 305      -7.392  44.982 169.253  0.00  0.00    -0.296 OA
ATOM    124  O3S SGN d 305      -9.507  43.920 169.594  0.00  0.00    -0.296 OA
ATOM    125  C4  SGN d 305      -6.724  47.795 173.563  0.00  0.00     0.089 C 
ATOM    126  O4  SGN d 305      -6.327  47.704 174.923  0.00  0.00    -0.390 OA
ATOM    127  C3  SGN d 305      -7.524  46.514 173.245  0.00  0.00     0.083 C 
ATOM    128  H   SGN d 305      -7.143  46.721 171.146  0.00  0.00     0.076 H 
ATOM    129  H   SGN d 305      -8.788  47.033 169.235  0.00  0.00     0.231 HD
ATOM    130  H   SGN d 305      -9.271  47.954 170.663  0.00  0.00     0.131 H 
ATOM    131  H   SGN d 305      -7.151  44.582 173.220  0.00  0.00     0.210 HD
ATOM    132  H   SGN d 305      -8.408  48.894 174.093  0.00  0.00     0.090 H 
ATOM    133  H   SGN d 305      -7.699  51.135 173.550  0.00  0.00     0.080 H 
ATOM    134  H   SGN d 305      -6.465  50.354 174.516  0.00  0.00     0.080 H 
ATOM    135  H   SGN d 305      -9.661  45.454 171.653  0.00  0.00     0.140 HD
ATOM    136  H   SGN d 305      -6.926  45.825 169.366  0.00  0.00     0.231 HD
ATOM    137  H   SGN d 305     -10.405  44.073 169.925  0.00  0.00     0.231 HD
ATOM    138  H   SGN d 305      -5.865  47.903 172.934  0.00  0.00     0.091 H 
ATOM    139  H   SGN d 305      -7.113  47.606 175.483  0.00  0.00     0.210 HD
ATOM    140  H   SGN d 305      -8.371  46.402 173.890  0.00  0.00     0.089 H 
ENDROOT
TORSDOF 45
ENDMDL
MODEL 10
REMARK VINA RESULT:     -10.4      3.658     13.100
REMARK  0 active torsions:
REMARK  status: ('A' for Active; 'I' for Inactive)
REMARK       I    between atoms: C6_1  and  C5_56 
REMARK       I    between atoms: O3_2  and  C3_19 
REMARK       I    between atoms: C2_3  and  N_45 
REMARK       I    between atoms: S1_4  and  N_72 
REMARK       I    between atoms: S1_4  and  O1S_74 
REMARK       I    between atoms: S1_4  and  O2S_20 
REMARK       I    between atoms: S1_4  and  O3S_35 
REMARK       I    between atoms: C5_5  and  C6_27 
REMARK       I    between atoms: C3_7  and  O3_15 
REMARK       I    between atoms: O2S_10  and  S1_60 
REMARK       I    between atoms: O6_11  and  C6_27 
REMARK       I    between atoms: O6_11  and  S2_67 
REMARK       I    between atoms: C4_14  and  O4_71 
REMARK       I    between atoms: C4_16  and  O4_81 
REMARK       I    between atoms: C6_18  and  C5_53 
REMARK       I    between atoms: O2_21  and  C2_30 
REMARK       I    between atoms: O2_21  and  S_68 
REMARK       I    between atoms: O6_22  and  C6_61 
REMARK       I    between atoms: O6_22  and  S2_47 
REMARK       I    between atoms: O1_23  and  C1_86 
REMARK       I    between atoms: O6_24  and  C6_57 
REMARK       I    between atoms: O6_24  and  S2_89 
REMARK       I    between atoms: C4_25  and  O4_85 
REMARK       I    between atoms: C2_26  and  N_73 
REMARK       I    between atoms: C2_28  and  N_72 
REMARK       I    between atoms: O1S_32  and  S1_37 
REMARK       I    between atoms: S1_37  and  N_73 
REMARK       I    between atoms: S1_37  and  O2S_78 
REMARK       I    between atoms: S1_37  and  O3S_82 
REMARK       I    between atoms: C1_39  and  O4_71 
REMARK       I    between atoms: S_41  and  O2_63 
REMARK       I    between atoms: O3_43  and  C3_88 
REMARK       I    between atoms: O1S_44  and  S1_60 
REMARK       I    between atoms: N_45  and  S1_60 
REMARK       I    between atoms: C1_46  and  O4_85 
REMARK       I    between atoms: O4_48  and  C4_54 
REMARK       I    between atoms: O4_48  and  C1_90 
REMARK       I    between atoms: O3_49  and  C3_77 
REMARK       I    between atoms: C5_52  and  C6_61 
REMARK       I    between atoms: C6_57  and  C5_79 
REMARK       I    between atoms: C2_58  and  O2_63 
REMARK       I    between atoms: S1_60  and  O3S_75 
REMARK       I    between atoms: C3_64  and  O3_80 
REMARK       I    between atoms: O4_81  and  C1_84 
REMARK       I    between atoms: C4_83  and  O4_87 
ROOT
ATOM      1  C6  IDS d 304     -19.278  53.292 172.404  0.00  0.00     0.206 C 
ATOM      2  O61 IDS d 304     -19.964  53.195 173.402  0.00  0.00    -0.646 OA
ATOM      3  C4  IDS d 304     -17.252  54.587 171.825  0.00  0.00     0.103 C 
ATOM      4  O2  IDS d 304     -15.570  55.423 174.281  0.00  0.00    -0.244 OA
ATOM      5  O62 IDS d 304     -19.807  53.323 171.335  0.00  0.00    -0.646 OA
ATOM      6  C2  IDS d 304     -15.316  54.307 173.469  0.00  0.00     0.134 C 
ATOM      7  O1S IDS d 304     -13.578  56.522 175.005  0.00  0.00    -0.572 OA
ATOM      8  O3  IDS d 304     -15.167  53.740 171.126  0.00  0.00    -0.390 OA
ATOM      9  C5  IDS d 304     -17.824  53.372 172.505  0.00  0.00     0.152 C 
ATOM     10  O5  IDS d 304     -17.464  53.289 173.846  0.00  0.00    -0.340 OA
ATOM     11  O2S IDS d 304     -15.640  56.779 176.157  0.00  0.00    -0.572 OA
ATOM     12  O3S IDS d 304     -14.438  54.788 176.369  0.00  0.00    -0.572 OA
ATOM     13  S   IDS d 304     -14.754  55.883 175.521  0.00  0.00     0.252 S 
ATOM     14  O4  IDS d 304     -17.828  55.719 172.384  0.00  0.00    -0.348 OA
ATOM     15  C3  IDS d 304     -15.744  54.657 172.017  0.00  0.00     0.094 C 
ATOM     16  C1  IDS d 304     -16.073  53.102 174.040  0.00  0.00     0.161 C 
ATOM     17  H   IDS d 304     -17.461  54.528 170.777  0.00  0.00     0.092 H 
ATOM     18  H   IDS d 304     -14.278  54.050 173.450  0.00  0.00     0.097 H 
ATOM     19  H   IDS d 304     -15.434  53.959 170.220  0.00  0.00     0.210 HD
ATOM     20  H   IDS d 304     -17.398  52.545 171.976  0.00  0.00     0.104 H 
ATOM     21  H   IDS d 304     -15.415  55.658 171.829  0.00  0.00     0.091 H 
ATOM     22  H   IDS d 304     -15.908  53.007 175.093  0.00  0.00     0.133 H 
ATOM     23  O3  SGN d 303     -17.128  49.781 172.170  0.00  0.00    -0.391 OA
ATOM     24  S1  SGN d 303     -16.922  45.844 172.956  0.00  0.00     0.156 S 
ATOM     25  O5S SGN d 303     -16.917  51.512 178.779  0.00  0.00    -0.572 OA
ATOM     26  C4  SGN d 303     -15.856  50.707 174.033  0.00  0.00     0.095 C 
ATOM     27  C3  SGN d 303     -15.957  49.595 172.923  0.00  0.00     0.083 C 
ATOM     28  O2S SGN d 303     -18.269  46.322 172.980  0.00  0.00    -0.296 OA
ATOM     29  O6  SGN d 303     -15.534  51.285 176.863  0.00  0.00    -0.254 OA
ATOM     30  C2  SGN d 303     -16.028  48.212 173.590  0.00  0.00     0.081 C 
ATOM     31  O3S SGN d 303     -16.665  44.916 171.928  0.00  0.00    -0.296 OA
ATOM     32  O5  SGN d 303     -14.838  49.062 175.501  0.00  0.00    -0.349 OA
ATOM     33  C1  SGN d 303     -14.855  48.015 174.545  0.00  0.00     0.150 C 
ATOM     34  O4S SGN d 303     -15.017  52.943 178.507  0.00  0.00    -0.572 OA
ATOM     35  C6  SGN d 303     -14.409  51.293 176.064  0.00  0.00     0.067 C 
ATOM     36  O6S SGN d 303     -14.683  50.610 179.014  0.00  0.00    -0.572 OA
ATOM     37  N   SGN d 303     -16.032  47.136 172.601  0.00  0.00    -0.210 NA
ATOM     38  O1S SGN d 303     -16.508  45.380 174.259  0.00  0.00    -0.296 OA
ATOM     39  C5  SGN d 303     -14.664  50.351 174.929  0.00  0.00     0.091 C 
ATOM     40  O4  SGN d 303     -15.597  51.935 173.419  0.00  0.00    -0.348 OA
ATOM     41  S2  SGN d 303     -15.533  51.608 178.381  0.00  0.00     0.251 S 
ATOM     42  H   SGN d 303     -17.101  50.651 171.741  0.00  0.00     0.210 HD
ATOM     43  H   SGN d 303     -16.763  50.768 174.598  0.00  0.00     0.091 H 
ATOM     44  H   SGN d 303     -15.098  49.658 172.289  0.00  0.00     0.089 H 
ATOM     45  H   SGN d 303     -18.374  46.954 173.709  0.00  0.00     0.231 HD
ATOM     46  H   SGN d 303     -16.946  48.174 174.138  0.00  0.00     0.076 H 
ATOM     47  H   SGN d 303     -15.738  44.635 171.970  0.00  0.00     0.231 HD
ATOM     48  H   SGN d 303     -14.941  47.097 175.089  0.00  0.00     0.131 H 
ATOM     49  H   SGN d 303     -13.558  50.968 176.626  0.00  0.00     0.080 H 
ATOM     50  H   SGN d 303     -14.208  52.279 175.701  0.00  0.00     0.080 H 
ATOM     51  H   SGN d 303     -16.381  47.522 171.724  0.00  0.00     0.140 HD
ATOM     52  H   SGN d 303     -16.709  46.058 174.922  0.00  0.00     0.231 HD
ATOM     53  H   SGN d 303     -13.825  50.403 174.266  0.00  0.00     0.090 H 
ATOM     54  C2  SGN d 301      -6.053  47.986 172.958  0.00  0.00     0.081 C 
ATOM     55  C5  SGN d 301      -7.680  46.348 171.370  0.00  0.00     0.091 C 
ATOM     56  O6S SGN d 301      -7.477  46.025 167.832  0.00  0.00    -0.572 OA
ATOM     57  C3  SGN d 301      -7.295  47.304 173.516  0.00  0.00     0.083 C 
ATOM     58  O2S SGN d 301      -5.788  50.278 174.962  0.00  0.00    -0.296 OA
ATOM     59  O6  SGN d 301      -8.830  47.075 169.481  0.00  0.00    -0.254 OA
ATOM     60  O3  SGN d 301      -7.830  48.034 174.597  0.00  0.00    -0.391 OA
ATOM     61  O1  SGN d 301      -5.049  45.891 172.278  0.00  0.00    -0.369 OA
ATOM     62  C6  SGN d 301      -8.606  45.964 170.248  0.00  0.00     0.067 C 
ATOM     63  O5S SGN d 301      -7.334  48.432 168.247  0.00  0.00    -0.572 OA
ATOM     64  O4S SGN d 301      -9.285  47.507 167.188  0.00  0.00    -0.572 OA
ATOM     65  O1S SGN d 301      -4.198  50.349 173.096  0.00  0.00    -0.296 OA
ATOM     66  N   SGN d 301      -5.030  48.162 173.971  0.00  0.00    -0.210 NA
ATOM     67  O4  SGN d 301      -9.502  46.813 172.747  0.00  0.00    -0.348 OA
ATOM     68  C4  SGN d 301      -8.271  47.296 172.356  0.00  0.00     0.095 C 
ATOM     69  S1  SGN d 301      -4.608  49.695 174.350  0.00  0.00     0.156 S 
ATOM     70  S2  SGN d 301      -8.188  47.270 168.108  0.00  0.00     0.251 S 
ATOM     71  O3S SGN d 301      -3.545  49.549 175.314  0.00  0.00    -0.296 OA
ATOM     72  O5  SGN d 301      -6.522  46.938 170.829  0.00  0.00    -0.350 OA
ATOM     73  C1  SGN d 301      -5.520  47.150 171.791  0.00  0.00     0.147 C 
ATOM     74  H   SGN d 301      -6.319  48.965 172.618  0.00  0.00     0.076 H 
ATOM     75  H   SGN d 301      -7.465  45.443 171.899  0.00  0.00     0.090 H 
ATOM     76  H   SGN d 301      -7.083  46.324 173.888  0.00  0.00     0.089 H 
ATOM     77  H   SGN d 301      -6.488  50.366 174.296  0.00  0.00     0.231 HD
ATOM     78  H   SGN d 301      -8.040  48.935 174.307  0.00  0.00     0.210 HD
ATOM     79  H   SGN d 301      -4.357  46.039 172.942  0.00  0.00     0.212 HD
ATOM     80  H   SGN d 301      -9.532  45.608 170.649  0.00  0.00     0.080 H 
ATOM     81  H   SGN d 301      -8.168  45.189 169.656  0.00  0.00     0.080 H 
ATOM     82  H   SGN d 301      -4.961  50.412 172.500  0.00  0.00     0.231 HD
ATOM     83  H   SGN d 301      -4.191  47.684 173.646  0.00  0.00     0.140 HD
ATOM     84  H   SGN d 301      -8.419  48.281 171.967  0.00  0.00     0.091 H 
ATOM     85  H   SGN d 301      -3.237  50.426 175.591  0.00  0.00     0.231 HD
ATOM     86  H   SGN d 301      -4.716  47.685 171.331  0.00  0.00     0.131 H 
ATOM     87  O1S IDS d 302     -14.726  46.793 170.258  0.00  0.00    -0.572 OA
ATOM     88  O2S IDS d 302     -13.217  47.325 168.510  0.00  0.00    -0.572 OA
ATOM     89  O62 IDS d 302     -11.915  47.992 176.679  0.00  0.00    -0.646 OA
ATOM     90  C6  IDS d 302     -11.509  48.481 175.638  0.00  0.00     0.206 C 
ATOM     91  C4  IDS d 302     -12.742  46.984 174.071  0.00  0.00     0.103 C 
ATOM     92  S   IDS d 302     -13.407  46.653 169.748  0.00  0.00     0.252 S 
ATOM     93  O3S IDS d 302     -13.016  45.296 169.708  0.00  0.00    -0.572 OA
ATOM     94  C5  IDS d 302     -11.454  47.664 174.401  0.00  0.00     0.152 C 
ATOM     95  C2  IDS d 302     -11.655  46.653 171.744  0.00  0.00     0.134 C 
ATOM     96  O2  IDS d 302     -12.471  47.324 170.802  0.00  0.00    -0.244 OA
ATOM     97  C3  IDS d 302     -12.561  46.060 172.839  0.00  0.00     0.094 C 
ATOM     98  O61 IDS d 302     -11.144  49.645 175.626  0.00  0.00    -0.646 OA
ATOM     99  O5  IDS d 302     -11.049  48.420 173.303  0.00  0.00    -0.340 OA
ATOM    100  O3  IDS d 302     -11.985  44.853 173.281  0.00  0.00    -0.390 OA
ATOM    101  O4  IDS d 302     -13.677  47.981 173.775  0.00  0.00    -0.348 OA
ATOM    102  C1  IDS d 302     -10.562  47.596 172.270  0.00  0.00     0.161 C 
ATOM    103  H   IDS d 302     -13.068  46.385 174.895  0.00  0.00     0.092 H 
ATOM    104  H   IDS d 302     -10.729  46.906 174.609  0.00  0.00     0.104 H 
ATOM    105  H   IDS d 302     -11.129  45.837 171.295  0.00  0.00     0.097 H 
ATOM    106  H   IDS d 302     -13.528  45.924 172.402  0.00  0.00     0.091 H 
ATOM    107  H   IDS d 302     -11.114  45.033 173.667  0.00  0.00     0.210 HD
ATOM    108  H   IDS d 302     -10.235  48.234 171.475  0.00  0.00     0.133 H 
ATOM    109  O6  SGN d 305     -21.567  56.730 169.232  0.00  0.00    -0.254 OA
ATOM    110  C2  SGN d 305     -18.531  57.995 172.312  0.00  0.00     0.081 C 
ATOM    111  O1S SGN d 305     -15.753  58.613 171.327  0.00  0.00    -0.296 OA
ATOM    112  O5  SGN d 305     -19.219  56.424 170.611  0.00  0.00    -0.349 OA
ATOM    113  S1  SGN d 305     -16.257  59.352 172.446  0.00  0.00     0.156 S 
ATOM    114  O5S SGN d 305     -21.702  57.543 166.917  0.00  0.00    -0.572 OA
ATOM    115  C1  SGN d 305     -18.146  56.766 171.492  0.00  0.00     0.150 C 
ATOM    116  O3  SGN d 305     -20.189  58.741 173.937  0.00  0.00    -0.391 OA
ATOM    117  S2  SGN d 305     -22.338  56.626 167.858  0.00  0.00     0.251 S 
ATOM    118  O6S SGN d 305     -22.217  55.251 167.405  0.00  0.00    -0.572 OA
ATOM    119  C5  SGN d 305     -20.471  56.126 171.279  0.00  0.00     0.090 C 
ATOM    120  O4S SGN d 305     -23.691  57.010 168.199  0.00  0.00    -0.572 OA
ATOM    121  C6  SGN d 305     -21.481  55.726 170.199  0.00  0.00     0.067 C 
ATOM    122  N   SGN d 305     -17.397  58.428 173.152  0.00  0.00    -0.210 NA
ATOM    123  O2S SGN d 305     -16.881  60.560 171.990  0.00  0.00    -0.296 OA
ATOM    124  O3S SGN d 305     -15.291  59.564 173.472  0.00  0.00    -0.296 OA
ATOM    125  C4  SGN d 305     -20.920  57.305 172.157  0.00  0.00     0.089 C 
ATOM    126  O4  SGN d 305     -22.049  56.943 172.937  0.00  0.00    -0.390 OA
ATOM    127  C3  SGN d 305     -19.782  57.636 173.145  0.00  0.00     0.083 C 
ATOM    128  H   SGN d 305     -18.766  58.823 171.677  0.00  0.00     0.076 H 
ATOM    129  H   SGN d 305     -16.457  58.504 170.669  0.00  0.00     0.231 HD
ATOM    130  H   SGN d 305     -17.289  56.961 170.882  0.00  0.00     0.131 H 
ATOM    131  H   SGN d 305     -19.484  58.964 174.566  0.00  0.00     0.210 HD
ATOM    132  H   SGN d 305     -20.371  55.308 171.962  0.00  0.00     0.090 H 
ATOM    133  H   SGN d 305     -21.164  54.815 169.737  0.00  0.00     0.080 H 
ATOM    134  H   SGN d 305     -22.442  55.589 170.650  0.00  0.00     0.080 H 
ATOM    135  H   SGN d 305     -16.937  57.587 173.503  0.00  0.00     0.140 HD
ATOM    136  H   SGN d 305     -17.525  60.350 171.296  0.00  0.00     0.231 HD
ATOM    137  H   SGN d 305     -14.907  58.714 173.735  0.00  0.00     0.231 HD
ATOM    138  H   SGN d 305     -21.159  58.133 171.522  0.00  0.00     0.091 H 
ATOM    139  H   SGN d 305     -21.820  56.192 173.507  0.00  0.00     0.210 HD
ATOM    140  H   SGN d 305     -19.560  56.810 173.789  0.00  0.00     0.089 H 
ENDROOT
TORSDOF 45
ENDMDL
MODEL 11
REMARK VINA RESULT:     -10.2      3.057     13.238
REMARK  0 active torsions:
REMARK  status: ('A' for Active; 'I' for Inactive)
REMARK       I    between atoms: C6_1  and  C5_56 
REMARK       I    between atoms: O3_2  and  C3_19 
REMARK       I    between atoms: C2_3  and  N_45 
REMARK       I    between atoms: S1_4  and  N_72 
REMARK       I    between atoms: S1_4  and  O1S_74 
REMARK       I    between atoms: S1_4  and  O2S_20 
REMARK       I    between atoms: S1_4  and  O3S_35 
REMARK       I    between atoms: C5_5  and  C6_27 
REMARK       I    between atoms: C3_7  and  O3_15 
REMARK       I    between atoms: O2S_10  and  S1_60 
REMARK       I    between atoms: O6_11  and  C6_27 
REMARK       I    between atoms: O6_11  and  S2_67 
REMARK       I    between atoms: C4_14  and  O4_71 
REMARK       I    between atoms: C4_16  and  O4_81 
REMARK       I    between atoms: C6_18  and  C5_53 
REMARK       I    between atoms: O2_21  and  C2_30 
REMARK       I    between atoms: O2_21  and  S_68 
REMARK       I    between atoms: O6_22  and  C6_61 
REMARK       I    between atoms: O6_22  and  S2_47 
REMARK       I    between atoms: O1_23  and  C1_86 
REMARK       I    between atoms: O6_24  and  C6_57 
REMARK       I    between atoms: O6_24  and  S2_89 
REMARK       I    between atoms: C4_25  and  O4_85 
REMARK       I    between atoms: C2_26  and  N_73 
REMARK       I    between atoms: C2_28  and  N_72 
REMARK       I    between atoms: O1S_32  and  S1_37 
REMARK       I    between atoms: S1_37  and  N_73 
REMARK       I    between atoms: S1_37  and  O2S_78 
REMARK       I    between atoms: S1_37  and  O3S_82 
REMARK       I    between atoms: C1_39  and  O4_71 
REMARK       I    between atoms: S_41  and  O2_63 
REMARK       I    between atoms: O3_43  and  C3_88 
REMARK       I    between atoms: O1S_44  and  S1_60 
REMARK       I    between atoms: N_45  and  S1_60 
REMARK       I    between atoms: C1_46  and  O4_85 
REMARK       I    between atoms: O4_48  and  C4_54 
REMARK       I    between atoms: O4_48  and  C1_90 
REMARK       I    between atoms: O3_49  and  C3_77 
REMARK       I    between atoms: C5_52  and  C6_61 
REMARK       I    between atoms: C6_57  and  C5_79 
REMARK       I    between atoms: C2_58  and  O2_63 
REMARK       I    between atoms: S1_60  and  O3S_75 
REMARK       I    between atoms: C3_64  and  O3_80 
REMARK       I    between atoms: O4_81  and  C1_84 
REMARK       I    between atoms: C4_83  and  O4_87 
ROOT
ATOM      1  C6  IDS d 304     -19.408  45.970 175.145  0.00  0.00     0.206 C 
ATOM      2  O61 IDS d 304     -19.676  46.412 176.244  0.00  0.00    -0.646 OA
ATOM      3  C4  IDS d 304     -18.943  46.993 172.942  0.00  0.00     0.103 C 
ATOM      4  O2  IDS d 304     -17.945  49.914 173.116  0.00  0.00    -0.244 OA
ATOM      5  O62 IDS d 304     -19.968  44.990 174.759  0.00  0.00    -0.646 OA
ATOM      6  C2  IDS d 304     -17.123  48.786 172.973  0.00  0.00     0.134 C 
ATOM      7  O1S IDS d 304     -17.172  51.795 171.865  0.00  0.00    -0.572 OA
ATOM      8  O3  IDS d 304     -16.987  46.773 171.648  0.00  0.00    -0.390 OA
ATOM      9  C5  IDS d 304     -18.413  46.625 174.301  0.00  0.00     0.152 C 
ATOM     10  O5  IDS d 304     -17.895  47.719 174.988  0.00  0.00    -0.340 OA
ATOM     11  O2S IDS d 304     -18.639  52.041 173.718  0.00  0.00    -0.572 OA
ATOM     12  O3S IDS d 304     -16.385  51.549 174.085  0.00  0.00    -0.572 OA
ATOM     13  S   IDS d 304     -17.491  51.398 173.205  0.00  0.00     0.252 S 
ATOM     14  O4  IDS d 304     -20.044  47.823 173.106  0.00  0.00    -0.348 OA
ATOM     15  C3  IDS d 304     -17.890  47.732 172.129  0.00  0.00     0.094 C 
ATOM     16  C1  IDS d 304     -16.748  48.274 174.369  0.00  0.00     0.161 C 
ATOM     17  H   IDS d 304     -19.212  46.098 172.420  0.00  0.00     0.092 H 
ATOM     18  H   IDS d 304     -16.212  49.014 172.463  0.00  0.00     0.097 H 
ATOM     19  H   IDS d 304     -17.466  46.114 171.120  0.00  0.00     0.210 HD
ATOM     20  H   IDS d 304     -17.623  45.931 174.100  0.00  0.00     0.104 H 
ATOM     21  H   IDS d 304     -18.372  48.261 171.334  0.00  0.00     0.091 H 
ATOM     22  H   IDS d 304     -16.403  49.072 174.993  0.00  0.00     0.133 H 
ATOM     23  O3  SGN d 303     -15.505  44.659 175.382  0.00  0.00    -0.391 OA
ATOM     24  S1  SGN d 303     -12.536  43.162 177.642  0.00  0.00     0.156 S 
ATOM     25  O5S SGN d 303     -15.531  50.645 178.683  0.00  0.00    -0.572 OA
ATOM     26  C4  SGN d 303     -14.951  47.033 175.377  0.00  0.00     0.095 C 
ATOM     27  C3  SGN d 303     -14.429  45.553 175.254  0.00  0.00     0.083 C 
ATOM     28  O2S SGN d 303     -13.818  42.947 178.236  0.00  0.00    -0.296 OA
ATOM     29  O6  SGN d 303     -14.685  49.592 176.729  0.00  0.00    -0.254 OA
ATOM     30  C2  SGN d 303     -13.429  45.268 176.385  0.00  0.00     0.081 C 
ATOM     31  O3S SGN d 303     -11.875  41.977 177.270  0.00  0.00    -0.296 OA
ATOM     32  O5  SGN d 303     -12.873  47.607 176.497  0.00  0.00    -0.349 OA
ATOM     33  C1  SGN d 303     -12.313  46.308 176.392  0.00  0.00     0.150 C 
ATOM     34  O4S SGN d 303     -15.204  51.927 176.687  0.00  0.00    -0.572 OA
ATOM     35  C6  SGN d 303     -14.013  49.412 175.538  0.00  0.00     0.067 C 
ATOM     36  O6S SGN d 303     -13.288  51.148 177.926  0.00  0.00    -0.572 OA
ATOM     37  N   SGN d 303     -12.845  43.934 176.265  0.00  0.00    -0.210 NA
ATOM     38  O1S SGN d 303     -11.725  44.037 178.454  0.00  0.00    -0.296 OA
ATOM     39  C5  SGN d 303     -13.721  47.949 175.409  0.00  0.00     0.091 C 
ATOM     40  O4  SGN d 303     -15.703  47.342 174.241  0.00  0.00    -0.348 OA
ATOM     41  S2  SGN d 303     -14.673  50.909 177.552  0.00  0.00     0.251 S 
ATOM     42  H   SGN d 303     -16.148  44.824 174.675  0.00  0.00     0.210 HD
ATOM     43  H   SGN d 303     -15.551  47.156 176.255  0.00  0.00     0.091 H 
ATOM     44  H   SGN d 303     -13.959  45.429 174.301  0.00  0.00     0.089 H 
ATOM     45  H   SGN d 303     -14.215  43.801 178.467  0.00  0.00     0.231 HD
ATOM     46  H   SGN d 303     -13.971  45.319 177.305  0.00  0.00     0.076 H 
ATOM     47  H   SGN d 303     -11.016  42.196 176.876  0.00  0.00     0.231 HD
ATOM     48  H   SGN d 303     -11.661  46.180 177.231  0.00  0.00     0.131 H 
ATOM     49  H   SGN d 303     -13.099  49.969 175.545  0.00  0.00     0.080 H 
ATOM     50  H   SGN d 303     -14.602  49.756 174.713  0.00  0.00     0.080 H 
ATOM     51  H   SGN d 303     -13.492  43.359 175.726  0.00  0.00     0.140 HD
ATOM     52  H   SGN d 303     -12.232  44.833 178.677  0.00  0.00     0.231 HD
ATOM     53  H   SGN d 303     -13.262  47.789 174.456  0.00  0.00     0.090 H 
ATOM     54  C2  SGN d 301      -6.277  48.346 170.114  0.00  0.00     0.081 C 
ATOM     55  C5  SGN d 301      -6.553  45.655 170.848  0.00  0.00     0.091 C 
ATOM     56  O6S SGN d 301      -6.728  42.899 168.604  0.00  0.00    -0.572 OA
ATOM     57  C3  SGN d 301      -6.607  47.932 171.542  0.00  0.00     0.083 C 
ATOM     58  O2S SGN d 301      -7.354  51.205 170.151  0.00  0.00    -0.296 OA
ATOM     59  O6  SGN d 301      -8.159  44.214 169.974  0.00  0.00    -0.254 OA
ATOM     60  O3  SGN d 301      -7.322  48.946 172.209  0.00  0.00    -0.391 OA
ATOM     61  O1  SGN d 301      -4.229  47.054 170.075  0.00  0.00    -0.369 OA
ATOM     62  C6  SGN d 301      -7.120  44.262 170.863  0.00  0.00     0.067 C 
ATOM     63  O5S SGN d 301      -8.215  44.584 167.637  0.00  0.00    -0.572 OA
ATOM     64  O4S SGN d 301      -9.130  42.563 168.565  0.00  0.00    -0.572 OA
ATOM     65  O1S SGN d 301      -6.559  50.431 167.965  0.00  0.00    -0.296 OA
ATOM     66  N   SGN d 301      -5.515  49.579 170.069  0.00  0.00    -0.210 NA
ATOM     67  O4  SGN d 301      -7.957  46.272 172.602  0.00  0.00    -0.348 OA
ATOM     68  C4  SGN d 301      -7.473  46.697 171.384  0.00  0.00     0.095 C 
ATOM     69  S1  SGN d 301      -6.209  50.860 169.329  0.00  0.00     0.156 S 
ATOM     70  S2  SGN d 301      -8.046  43.527 168.613  0.00  0.00     0.251 S 
ATOM     71  O3S SGN d 301      -5.206  51.895 169.383  0.00  0.00    -0.296 OA
ATOM     72  O5  SGN d 301      -6.217  46.000 169.525  0.00  0.00    -0.350 OA
ATOM     73  C1  SGN d 301      -5.503  47.207 169.443  0.00  0.00     0.147 C 
ATOM     74  H   SGN d 301      -7.190  48.531 169.587  0.00  0.00     0.076 H 
ATOM     75  H   SGN d 301      -5.698  45.634 171.491  0.00  0.00     0.090 H 
ATOM     76  H   SGN d 301      -5.726  47.751 172.122  0.00  0.00     0.089 H 
ATOM     77  H   SGN d 301      -8.015  50.496 170.099  0.00  0.00     0.231 HD
ATOM     78  H   SGN d 301      -8.134  49.146 171.718  0.00  0.00     0.210 HD
ATOM     79  H   SGN d 301      -3.737  47.889 170.017  0.00  0.00     0.212 HD
ATOM     80  H   SGN d 301      -7.472  44.025 171.846  0.00  0.00     0.080 H 
ATOM     81  H   SGN d 301      -6.367  43.553 170.590  0.00  0.00     0.080 H 
ATOM     82  H   SGN d 301      -7.235  49.736 168.008  0.00  0.00     0.231 HD
ATOM     83  H   SGN d 301      -4.640  49.382 169.585  0.00  0.00     0.140 HD
ATOM     84  H   SGN d 301      -8.314  46.892 170.752  0.00  0.00     0.091 H 
ATOM     85  H   SGN d 301      -5.546  52.698 168.958  0.00  0.00     0.231 HD
ATOM     86  H   SGN d 301      -5.369  47.452 168.410  0.00  0.00     0.131 H 
ATOM     87  O1S IDS d 302     -12.039  42.469 174.139  0.00  0.00    -0.572 OA
ATOM     88  O2S IDS d 302     -11.599  42.006 171.857  0.00  0.00    -0.572 OA
ATOM     89  O62 IDS d 302      -9.880  48.980 176.015  0.00  0.00    -0.646 OA
ATOM     90  C6  IDS d 302     -10.086  48.617 174.869  0.00  0.00     0.206 C 
ATOM     91  C4  IDS d 302     -10.176  46.165 175.313  0.00  0.00     0.103 C 
ATOM     92  S   IDS d 302     -11.083  42.495 173.088  0.00  0.00     0.252 S 
ATOM     93  O3S IDS d 302      -9.880  41.864 173.475  0.00  0.00    -0.572 OA
ATOM     94  C5  IDS d 302      -9.676  47.261 174.429  0.00  0.00     0.152 C 
ATOM     95  C2  IDS d 302      -9.532  44.639 173.323  0.00  0.00     0.134 C 
ATOM     96  O2  IDS d 302     -10.717  44.000 172.885  0.00  0.00    -0.244 OA
ATOM     97  C3  IDS d 302      -9.602  44.800 174.853  0.00  0.00     0.094 C 
ATOM     98  O61 IDS d 302     -10.628  49.381 174.087  0.00  0.00    -0.646 OA
ATOM     99  O5  IDS d 302     -10.075  47.001 173.120  0.00  0.00    -0.340 OA
ATOM    100  O3  IDS d 302      -8.296  44.681 175.369  0.00  0.00    -0.390 OA
ATOM    101  O4  IDS d 302     -11.570  46.146 175.207  0.00  0.00    -0.348 OA
ATOM    102  C1  IDS d 302      -9.321  45.953 172.557  0.00  0.00     0.161 C 
ATOM    103  H   IDS d 302      -9.870  46.334 176.324  0.00  0.00     0.092 H 
ATOM    104  H   IDS d 302      -8.608  47.267 174.491  0.00  0.00     0.104 H 
ATOM    105  H   IDS d 302      -8.667  44.047 173.108  0.00  0.00     0.097 H 
ATOM    106  H   IDS d 302     -10.263  44.042 175.216  0.00  0.00     0.091 H 
ATOM    107  H   IDS d 302      -7.741  45.390 175.009  0.00  0.00     0.210 HD
ATOM    108  H   IDS d 302      -9.647  45.828 171.545  0.00  0.00     0.133 H 
ATOM    109  O6  SGN d 305     -23.880  44.635 172.835  0.00  0.00    -0.254 OA
ATOM    110  C2  SGN d 305     -22.118  48.759 172.396  0.00  0.00     0.081 C 
ATOM    111  O1S SGN d 305     -20.717  49.384 169.803  0.00  0.00    -0.296 OA
ATOM    112  O5  SGN d 305     -21.789  46.366 172.462  0.00  0.00    -0.349 OA
ATOM    113  S1  SGN d 305     -21.411  50.442 170.472  0.00  0.00     0.156 S 
ATOM    114  O5S SGN d 305     -24.888  43.296 171.039  0.00  0.00    -0.572 OA
ATOM    115  C1  SGN d 305     -21.126  47.611 172.223  0.00  0.00     0.150 C 
ATOM    116  O3  SGN d 305     -23.559  49.776 174.077  0.00  0.00    -0.391 OA
ATOM    117  S2  SGN d 305     -24.567  43.264 172.462  0.00  0.00     0.251 S 
ATOM    118  O6S SGN d 305     -23.607  42.213 172.754  0.00  0.00    -0.572 OA
ATOM    119  C5  SGN d 305     -22.373  46.243 173.784  0.00  0.00     0.090 C 
ATOM    120  O4S SGN d 305     -25.740  43.231 173.309  0.00  0.00    -0.572 OA
ATOM    121  C6  SGN d 305     -22.982  44.842 173.884  0.00  0.00     0.067 C 
ATOM    122  N   SGN d 305     -21.479  50.045 172.050  0.00  0.00    -0.210 NA
ATOM    123  O2S SGN d 305     -22.754  50.534 169.976  0.00  0.00    -0.296 OA
ATOM    124  O3S SGN d 305     -20.712  51.685 170.453  0.00  0.00    -0.296 OA
ATOM    125  C4  SGN d 305     -23.366  47.383 174.055  0.00  0.00     0.089 C 
ATOM    126  O4  SGN d 305     -23.802  47.353 175.405  0.00  0.00    -0.390 OA
ATOM    127  C3  SGN d 305     -22.633  48.726 173.852  0.00  0.00     0.083 C 
ATOM    128  H   SGN d 305     -22.950  48.651 171.733  0.00  0.00     0.076 H 
ATOM    129  H   SGN d 305     -21.243  48.570 169.853  0.00  0.00     0.231 HD
ATOM    130  H   SGN d 305     -20.743  47.576 171.225  0.00  0.00     0.131 H 
ATOM    131  H   SGN d 305     -23.115  50.631 173.954  0.00  0.00     0.210 HD
ATOM    132  H   SGN d 305     -21.636  46.343 174.553  0.00  0.00     0.090 H 
ATOM    133  H   SGN d 305     -22.202  44.111 173.832  0.00  0.00     0.080 H 
ATOM    134  H   SGN d 305     -23.502  44.751 174.815  0.00  0.00     0.080 H 
ATOM    135  H   SGN d 305     -20.522  50.016 172.402  0.00  0.00     0.140 HD
ATOM    136  H   SGN d 305     -23.174  49.661 170.016  0.00  0.00     0.231 HD
ATOM    137  H   SGN d 305     -19.815  51.557 170.798  0.00  0.00     0.231 HD
ATOM    138  H   SGN d 305     -24.202  47.274 173.395  0.00  0.00     0.091 H 
ATOM    139  H   SGN d 305     -23.036  47.453 175.994  0.00  0.00     0.210 HD
ATOM    140  H   SGN d 305     -21.810  48.837 174.527  0.00  0.00     0.089 H 
ENDROOT
TORSDOF 45
ENDMDL
MODEL 12
REMARK VINA RESULT:     -10.1      3.175      4.774
REMARK  0 active torsions:
REMARK  status: ('A' for Active; 'I' for Inactive)
REMARK       I    between atoms: C6_1  and  C5_56 
REMARK       I    between atoms: O3_2  and  C3_19 
REMARK       I    between atoms: C2_3  and  N_45 
REMARK       I    between atoms: S1_4  and  N_72 
REMARK       I    between atoms: S1_4  and  O1S_74 
REMARK       I    between atoms: S1_4  and  O2S_20 
REMARK       I    between atoms: S1_4  and  O3S_35 
REMARK       I    between atoms: C5_5  and  C6_27 
REMARK       I    between atoms: C3_7  and  O3_15 
REMARK       I    between atoms: O2S_10  and  S1_60 
REMARK       I    between atoms: O6_11  and  C6_27 
REMARK       I    between atoms: O6_11  and  S2_67 
REMARK       I    between atoms: C4_14  and  O4_71 
REMARK       I    between atoms: C4_16  and  O4_81 
REMARK       I    between atoms: C6_18  and  C5_53 
REMARK       I    between atoms: O2_21  and  C2_30 
REMARK       I    between atoms: O2_21  and  S_68 
REMARK       I    between atoms: O6_22  and  C6_61 
REMARK       I    between atoms: O6_22  and  S2_47 
REMARK       I    between atoms: O1_23  and  C1_86 
REMARK       I    between atoms: O6_24  and  C6_57 
REMARK       I    between atoms: O6_24  and  S2_89 
REMARK       I    between atoms: C4_25  and  O4_85 
REMARK       I    between atoms: C2_26  and  N_73 
REMARK       I    between atoms: C2_28  and  N_72 
REMARK       I    between atoms: O1S_32  and  S1_37 
REMARK       I    between atoms: S1_37  and  N_73 
REMARK       I    between atoms: S1_37  and  O2S_78 
REMARK       I    between atoms: S1_37  and  O3S_82 
REMARK       I    between atoms: C1_39  and  O4_71 
REMARK       I    between atoms: S_41  and  O2_63 
REMARK       I    between atoms: O3_43  and  C3_88 
REMARK       I    between atoms: O1S_44  and  S1_60 
REMARK       I    between atoms: N_45  and  S1_60 
REMARK       I    between atoms: C1_46  and  O4_85 
REMARK       I    between atoms: O4_48  and  C4_54 
REMARK       I    between atoms: O4_48  and  C1_90 
REMARK       I    between atoms: O3_49  and  C3_77 
REMARK       I    between atoms: C5_52  and  C6_61 
REMARK       I    between atoms: C6_57  and  C5_79 
REMARK       I    between atoms: C2_58  and  O2_63 
REMARK       I    between atoms: S1_60  and  O3S_75 
REMARK       I    between atoms: C3_64  and  O3_80 
REMARK       I    between atoms: O4_81  and  C1_84 
REMARK       I    between atoms: C4_83  and  O4_87 
ROOT
ATOM      1  C6  IDS d 304     -13.540  47.832 175.605  0.00  0.00     0.206 C 
ATOM      2  O61 IDS d 304     -13.876  47.498 176.723  0.00  0.00    -0.646 OA
ATOM      3  C4  IDS d 304     -14.196  47.133 173.325  0.00  0.00     0.103 C 
ATOM      4  O2  IDS d 304     -17.004  45.848 173.181  0.00  0.00    -0.244 OA
ATOM      5  O62 IDS d 304     -12.388  48.056 175.386  0.00  0.00    -0.646 OA
ATOM      6  C2  IDS d 304     -16.712  47.189 172.887  0.00  0.00     0.134 C 
ATOM      7  O1S IDS d 304     -18.656  44.915 171.732  0.00  0.00    -0.572 OA
ATOM      8  O3  IDS d 304     -15.111  48.483 171.625  0.00  0.00    -0.390 OA
ATOM      9  C5  IDS d 304     -14.527  47.962 174.537  0.00  0.00     0.152 C 
ATOM     10  O5  IDS d 304     -15.786  47.673 175.055  0.00  0.00    -0.340 OA
ATOM     11  O2S IDS d 304     -18.185  43.977 173.863  0.00  0.00    -0.572 OA
ATOM     12  O3S IDS d 304     -19.400  45.966 173.720  0.00  0.00    -0.572 OA
ATOM     13  S   IDS d 304     -18.396  45.158 173.121  0.00  0.00     0.252 S 
ATOM     14  O4  IDS d 304     -14.089  45.805 173.713  0.00  0.00    -0.348 OA
ATOM     15  C3  IDS d 304     -15.287  47.251 172.271  0.00  0.00     0.094 C 
ATOM     16  C1  IDS d 304     -16.842  48.012 174.174  0.00  0.00     0.161 C 
ATOM     17  H   IDS d 304     -13.276  47.485 172.905  0.00  0.00     0.092 H 
ATOM     18  H   IDS d 304     -17.394  47.603 172.175  0.00  0.00     0.097 H 
ATOM     19  H   IDS d 304     -14.222  48.521 171.240  0.00  0.00     0.210 HD
ATOM     20  H   IDS d 304     -14.517  48.971 174.181  0.00  0.00     0.104 H 
ATOM     21  H   IDS d 304     -15.206  46.428 171.593  0.00  0.00     0.091 H 
ATOM     22  H   IDS d 304     -17.760  47.796 174.680  0.00  0.00     0.133 H 
ATOM     23  O3  SGN d 303     -15.241  51.537 174.981  0.00  0.00    -0.391 OA
ATOM     24  S1  SGN d 303     -16.545  55.003 176.545  0.00  0.00     0.156 S 
ATOM     25  O5S SGN d 303     -20.137  47.866 178.024  0.00  0.00    -0.572 OA
ATOM     26  C4  SGN d 303     -17.325  50.289 174.781  0.00  0.00     0.095 C 
ATOM     27  C3  SGN d 303     -16.582  51.663 174.584  0.00  0.00     0.083 C 
ATOM     28  O2S SGN d 303     -15.639  54.331 177.422  0.00  0.00    -0.296 OA
ATOM     29  O6  SGN d 303     -19.594  48.907 175.961  0.00  0.00    -0.254 OA
ATOM     30  C2  SGN d 303     -17.246  52.734 175.464  0.00  0.00     0.081 C 
ATOM     31  O3S SGN d 303     -16.064  56.237 176.066  0.00  0.00    -0.296 OA
ATOM     32  O5  SGN d 303     -19.327  51.528 175.378  0.00  0.00    -0.349 OA
ATOM     33  C1  SGN d 303     -18.744  52.807 175.185  0.00  0.00     0.150 C 
ATOM     34  O4S SGN d 303     -20.926  46.921 175.971  0.00  0.00    -0.572 OA
ATOM     35  C6  SGN d 303     -19.700  49.334 174.653  0.00  0.00     0.067 C 
ATOM     36  O6S SGN d 303     -21.865  48.997 176.760  0.00  0.00    -0.572 OA
ATOM     37  N   SGN d 303     -16.650  54.051 175.252  0.00  0.00    -0.210 NA
ATOM     38  O1S SGN d 303     -17.864  55.092 177.123  0.00  0.00    -0.296 OA
ATOM     39  C5  SGN d 303     -18.814  50.533 174.504  0.00  0.00     0.091 C 
ATOM     40  O4  SGN d 303     -16.843  49.377 173.838  0.00  0.00    -0.348 OA
ATOM     41  S2  SGN d 303     -20.700  48.126 176.720  0.00  0.00     0.251 S 
ATOM     42  H   SGN d 303     -14.804  50.864 174.435  0.00  0.00     0.210 HD
ATOM     43  H   SGN d 303     -17.170  49.907 175.768  0.00  0.00     0.091 H 
ATOM     44  H   SGN d 303     -16.636  51.943 173.553  0.00  0.00     0.089 H 
ATOM     45  H   SGN d 303     -16.033  53.493 177.713  0.00  0.00     0.231 HD
ATOM     46  H   SGN d 303     -17.085  52.448 176.482  0.00  0.00     0.076 H 
ATOM     47  H   SGN d 303     -16.725  56.636 175.479  0.00  0.00     0.231 HD
ATOM     48  H   SGN d 303     -19.236  53.479 175.857  0.00  0.00     0.131 H 
ATOM     49  H   SGN d 303     -20.713  49.599 174.435  0.00  0.00     0.080 H 
ATOM     50  H   SGN d 303     -19.407  48.559 173.976  0.00  0.00     0.080 H 
ATOM     51  H   SGN d 303     -15.707  53.911 174.893  0.00  0.00     0.140 HD
ATOM     52  H   SGN d 303     -18.140  54.216 177.434  0.00  0.00     0.231 HD
ATOM     53  H   SGN d 303     -18.835  50.829 173.475  0.00  0.00     0.090 H 
ATOM     54  C2  SGN d 301     -23.126  54.759 167.637  0.00  0.00     0.081 C 
ATOM     55  C5  SGN d 301     -21.129  56.529 168.492  0.00  0.00     0.091 C 
ATOM     56  O6S SGN d 301     -18.619  57.981 166.429  0.00  0.00    -0.572 OA
ATOM     57  C3  SGN d 301     -22.862  55.020 169.113  0.00  0.00     0.083 C 
ATOM     58  O2S SGN d 301     -24.479  52.027 167.836  0.00  0.00    -0.296 OA
ATOM     59  O6  SGN d 301     -18.859  56.259 168.051  0.00  0.00    -0.254 OA
ATOM     60  O3  SGN d 301     -23.236  53.910 169.897  0.00  0.00    -0.391 OA
ATOM     61  O1  SGN d 301     -23.553  57.096 167.168  0.00  0.00    -0.369 OA
ATOM     62  C6  SGN d 301     -19.746  57.092 168.677  0.00  0.00     0.067 C 
ATOM     63  O5S SGN d 301     -18.672  55.623 165.779  0.00  0.00    -0.572 OA
ATOM     64  O4S SGN d 301     -16.766  56.506 166.950  0.00  0.00    -0.572 OA
ATOM     65  O1S SGN d 301     -24.061  52.806 165.550  0.00  0.00    -0.296 OA
ATOM     66  N   SGN d 301     -24.518  54.441 167.383  0.00  0.00    -0.210 NA
ATOM     67  O4  SGN d 301     -20.950  55.364 170.503  0.00  0.00    -0.348 OA
ATOM     68  C4  SGN d 301     -21.363  55.236 169.194  0.00  0.00     0.095 C 
ATOM     69  S1  SGN d 301     -24.848  52.956 166.784  0.00  0.00     0.156 S 
ATOM     70  S2  SGN d 301     -18.195  56.615 166.721  0.00  0.00     0.251 S 
ATOM     71  O3S SGN d 301     -26.276  52.960 166.577  0.00  0.00    -0.296 OA
ATOM     72  O5  SGN d 301     -21.366  56.336 167.118  0.00  0.00    -0.350 OA
ATOM     73  C1  SGN d 301     -22.700  55.995 166.840  0.00  0.00     0.147 C 
ATOM     74  H   SGN d 301     -22.556  53.908 167.328  0.00  0.00     0.076 H 
ATOM     75  H   SGN d 301     -21.799  57.243 168.923  0.00  0.00     0.090 H 
ATOM     76  H   SGN d 301     -23.423  55.853 169.482  0.00  0.00     0.089 H 
ATOM     77  H   SGN d 301     -23.517  52.041 167.958  0.00  0.00     0.231 HD
ATOM     78  H   SGN d 301     -22.751  53.124 169.600  0.00  0.00     0.210 HD
ATOM     79  H   SGN d 301     -24.475  56.860 166.975  0.00  0.00     0.212 HD
ATOM     80  H   SGN d 301     -19.515  57.149 169.721  0.00  0.00     0.080 H 
ATOM     81  H   SGN d 301     -19.688  58.075 168.260  0.00  0.00     0.080 H 
ATOM     82  H   SGN d 301     -23.115  52.813 165.766  0.00  0.00     0.231 HD
ATOM     83  H   SGN d 301     -24.874  55.126 166.718  0.00  0.00     0.140 HD
ATOM     84  H   SGN d 301     -20.830  54.413 168.766  0.00  0.00     0.091 H 
ATOM     85  H   SGN d 301     -26.553  52.102 166.218  0.00  0.00     0.231 HD
ATOM     86  H   SGN d 301     -22.783  55.771 165.797  0.00  0.00     0.131 H 
ATOM     87  O1S IDS d 302     -15.750  55.323 173.042  0.00  0.00    -0.572 OA
ATOM     88  O2S IDS d 302     -15.303  55.622 170.735  0.00  0.00    -0.572 OA
ATOM     89  O62 IDS d 302     -22.232  52.630 174.185  0.00  0.00    -0.646 OA
ATOM     90  C6  IDS d 302     -21.627  52.567 173.127  0.00  0.00     0.206 C 
ATOM     91  C4  IDS d 302     -19.875  54.262 173.651  0.00  0.00     0.103 C 
ATOM     92  S   IDS d 302     -16.220  55.829 171.800  0.00  0.00     0.252 S 
ATOM     93  O3S IDS d 302     -16.637  57.173 171.920  0.00  0.00    -0.572 OA
ATOM     94  C5  IDS d 302     -20.843  53.730 172.645  0.00  0.00     0.152 C 
ATOM     95  C2  IDS d 302     -18.847  55.482 171.612  0.00  0.00     0.134 C 
ATOM     96  O2  IDS d 302     -17.516  55.020 171.475  0.00  0.00    -0.244 OA
ATOM     97  C3  IDS d 302     -19.190  55.544 173.111  0.00  0.00     0.094 C 
ATOM     98  O61 IDS d 302     -21.679  51.542 172.468  0.00  0.00    -0.646 OA
ATOM     99  O5  IDS d 302     -20.155  53.436 171.470  0.00  0.00    -0.340 OA
ATOM    100  O3  IDS d 302     -20.068  56.626 173.318  0.00  0.00    -0.390 OA
ATOM    101  O4  IDS d 302     -18.911  53.272 173.867  0.00  0.00    -0.348 OA
ATOM    102  C1  IDS d 302     -19.801  54.612 170.780  0.00  0.00     0.161 C 
ATOM    103  H   IDS d 302     -20.382  54.510 174.560  0.00  0.00     0.092 H 
ATOM    104  H   IDS d 302     -21.571  54.491 172.461  0.00  0.00     0.104 H 
ATOM    105  H   IDS d 302     -18.959  56.472 171.222  0.00  0.00     0.097 H 
ATOM    106  H   IDS d 302     -18.265  55.652 173.638  0.00  0.00     0.091 H 
ATOM    107  H   IDS d 302     -20.887  56.478 172.821  0.00  0.00     0.210 HD
ATOM    108  H   IDS d 302     -19.312  54.319 169.874  0.00  0.00     0.133 H 
ATOM    109  O6  SGN d 305      -9.176  45.250 174.419  0.00  0.00    -0.254 OA
ATOM    110  C2  SGN d 305     -13.254  43.586 173.468  0.00  0.00     0.081 C 
ATOM    111  O1S SGN d 305     -14.178  43.768 170.607  0.00  0.00    -0.296 OA
ATOM    112  O5  SGN d 305     -11.757  45.481 173.527  0.00  0.00    -0.349 OA
ATOM    113  S1  SGN d 305     -14.599  42.644 171.386  0.00  0.00     0.156 S 
ATOM    114  O5S SGN d 305      -7.214  45.199 172.941  0.00  0.00    -0.572 OA
ATOM    115  C1  SGN d 305     -13.056  45.056 173.107  0.00  0.00     0.150 C 
ATOM    116  O3  SGN d 305     -13.327  42.107 175.405  0.00  0.00    -0.391 OA
ATOM    117  S2  SGN d 305      -7.659  45.656 174.253  0.00  0.00     0.251 S 
ATOM    118  O6S SGN d 305      -7.593  47.104 174.348  0.00  0.00    -0.572 OA
ATOM    119  C5  SGN d 305     -11.514  45.345 174.951  0.00  0.00     0.090 C 
ATOM    120  O4S SGN d 305      -7.004  44.971 175.346  0.00  0.00    -0.572 OA
ATOM    121  C6  SGN d 305     -10.112  45.896 175.228  0.00  0.00     0.067 C 
ATOM    122  N   SGN d 305     -14.548  43.100 172.949  0.00  0.00    -0.210 NA
ATOM    123  O2S SGN d 305     -13.680  41.556 171.208  0.00  0.00    -0.296 OA
ATOM    124  O3S SGN d 305     -15.960  42.277 171.171  0.00  0.00    -0.296 OA
ATOM    125  C4  SGN d 305     -11.723  43.893 175.409  0.00  0.00     0.089 C 
ATOM    126  O4  SGN d 305     -11.651  43.803 176.823  0.00  0.00    -0.390 OA
ATOM    127  C3  SGN d 305     -13.146  43.456 175.004  0.00  0.00     0.083 C 
ATOM    128  H   SGN d 305     -12.502  42.974 173.017  0.00  0.00     0.076 H 
ATOM    129  H   SGN d 305     -13.248  43.965 170.800  0.00  0.00     0.231 HD
ATOM    130  H   SGN d 305     -13.108  45.206 172.049  0.00  0.00     0.131 H 
ATOM    131  H   SGN d 305     -14.219  41.814 175.159  0.00  0.00     0.210 HD
ATOM    132  H   SGN d 305     -12.215  45.910 175.528  0.00  0.00     0.090 H 
ATOM    133  H   SGN d 305     -10.096  46.946 175.020  0.00  0.00     0.080 H 
ATOM    134  H   SGN d 305      -9.865  45.727 176.256  0.00  0.00     0.080 H 
ATOM    135  H   SGN d 305     -15.229  43.849 173.073  0.00  0.00     0.140 HD
ATOM    136  H   SGN d 305     -12.775  41.868 171.368  0.00  0.00     0.231 HD
ATOM    137  H   SGN d 305     -16.528  43.051 171.306  0.00  0.00     0.231 HD
ATOM    138  H   SGN d 305     -10.968  43.281 174.961  0.00  0.00     0.091 H 
ATOM    139  H   SGN d 305     -12.340  44.362 177.218  0.00  0.00     0.210 HD
ATOM    140  H   SGN d 305     -13.897  44.061 175.469  0.00  0.00     0.089 H 
ENDROOT
TORSDOF 45
ENDMDL
MODEL 13
REMARK VINA RESULT:      -9.8      2.433     13.029
REMARK  0 active torsions:
REMARK  status: ('A' for Active; 'I' for Inactive)
REMARK       I    between atoms: C6_1  and  C5_56 
REMARK       I    between atoms: O3_2  and  C3_19 
REMARK       I    between atoms: C2_3  and  N_45 
REMARK       I    between atoms: S1_4  and  N_72 
REMARK       I    between atoms: S1_4  and  O1S_74 
REMARK       I    between atoms: S1_4  and  O2S_20 
REMARK       I    between atoms: S1_4  and  O3S_35 
REMARK       I    between atoms: C5_5  and  C6_27 
REMARK       I    between atoms: C3_7  and  O3_15 
REMARK       I    between atoms: O2S_10  and  S1_60 
REMARK       I    between atoms: O6_11  and  C6_27 
REMARK       I    between atoms: O6_11  and  S2_67 
REMARK       I    between atoms: C4_14  and  O4_71 
REMARK       I    between atoms: C4_16  and  O4_81 
REMARK       I    between atoms: C6_18  and  C5_53 
REMARK       I    between atoms: O2_21  and  C2_30 
REMARK       I    between atoms: O2_21  and  S_68 
REMARK       I    between atoms: O6_22  and  C6_61 
REMARK       I    between atoms: O6_22  and  S2_47 
REMARK       I    between atoms: O1_23  and  C1_86 
REMARK       I    between atoms: O6_24  and  C6_57 
REMARK       I    between atoms: O6_24  and  S2_89 
REMARK       I    between atoms: C4_25  and  O4_85 
REMARK       I    between atoms: C2_26  and  N_73 
REMARK       I    between atoms: C2_28  and  N_72 
REMARK       I    between atoms: O1S_32  and  S1_37 
REMARK       I    between atoms: S1_37  and  N_73 
REMARK       I    between atoms: S1_37  and  O2S_78 
REMARK       I    between atoms: S1_37  and  O3S_82 
REMARK       I    between atoms: C1_39  and  O4_71 
REMARK       I    between atoms: S_41  and  O2_63 
REMARK       I    between atoms: O3_43  and  C3_88 
REMARK       I    between atoms: O1S_44  and  S1_60 
REMARK       I    between atoms: N_45  and  S1_60 
REMARK       I    between atoms: C1_46  and  O4_85 
REMARK       I    between atoms: O4_48  and  C4_54 
REMARK       I    between atoms: O4_48  and  C1_90 
REMARK       I    between atoms: O3_49  and  C3_77 
REMARK       I    between atoms: C5_52  and  C6_61 
REMARK       I    between atoms: C6_57  and  C5_79 
REMARK       I    between atoms: C2_58  and  O2_63 
REMARK       I    between atoms: S1_60  and  O3S_75 
REMARK       I    between atoms: C3_64  and  O3_80 
REMARK       I    between atoms: O4_81  and  C1_84 
REMARK       I    between atoms: C4_83  and  O4_87 
ROOT
ATOM      1  C6  IDS d 304     -21.251  47.425 173.303  0.00  0.00     0.206 C 
ATOM      2  O61 IDS d 304     -21.825  47.642 174.351  0.00  0.00    -0.646 OA
ATOM      3  C4  IDS d 304     -20.449  48.852 171.449  0.00  0.00     0.103 C 
ATOM      4  O2  IDS d 304     -19.955  51.792 172.270  0.00  0.00    -0.244 OA
ATOM      5  O62 IDS d 304     -21.559  46.471 172.657  0.00  0.00    -0.646 OA
ATOM      6  C2  IDS d 304     -18.967  50.800 172.181  0.00  0.00     0.134 C 
ATOM      7  O1S IDS d 304     -19.200  53.930 171.524  0.00  0.00    -0.572 OA
ATOM      8  O3  IDS d 304     -18.238  49.068 170.665  0.00  0.00    -0.390 OA
ATOM      9  C5  IDS d 304     -20.196  48.318 172.833  0.00  0.00     0.152 C 
ATOM     10  O5  IDS d 304     -20.014  49.329 173.772  0.00  0.00    -0.340 OA
ATOM     11  O2S IDS d 304     -21.071  53.697 172.969  0.00  0.00    -0.572 OA
ATOM     12  O3S IDS d 304     -18.914  53.397 173.814  0.00  0.00    -0.572 OA
ATOM     13  S   IDS d 304     -19.755  53.279 172.675  0.00  0.00     0.252 S 
ATOM     14  O4  IDS d 304     -21.668  49.517 171.447  0.00  0.00    -0.348 OA
ATOM     15  C3  IDS d 304     -19.357  49.828 171.034  0.00  0.00     0.094 C 
ATOM     16  C1  IDS d 304     -18.850  50.101 173.541  0.00  0.00     0.161 C 
ATOM     17  H   IDS d 304     -20.458  48.035 170.758  0.00  0.00     0.092 H 
ATOM     18  H   IDS d 304     -18.006  51.209 171.950  0.00  0.00     0.097 H 
ATOM     19  H   IDS d 304     -18.482  48.461 169.948  0.00  0.00     0.210 HD
ATOM     20  H   IDS d 304     -19.289  47.758 172.740  0.00  0.00     0.104 H 
ATOM     21  H   IDS d 304     -19.716  50.430 170.226  0.00  0.00     0.091 H 
ATOM     22  H   IDS d 304     -18.778  50.814 174.336  0.00  0.00     0.133 H 
ATOM     23  O3  SGN d 303     -17.357  46.523 174.319  0.00  0.00    -0.391 OA
ATOM     24  S1  SGN d 303     -14.799  44.994 177.017  0.00  0.00     0.156 S 
ATOM     25  O5S SGN d 303     -19.012  51.822 178.308  0.00  0.00    -0.572 OA
ATOM     26  C4  SGN d 303     -17.170  48.909 174.783  0.00  0.00     0.095 C 
ATOM     27  C3  SGN d 303     -16.423  47.537 174.589  0.00  0.00     0.083 C 
ATOM     28  O2S SGN d 303     -16.137  44.543 177.238  0.00  0.00    -0.296 OA
ATOM     29  O6  SGN d 303     -17.597  51.215 176.500  0.00  0.00    -0.254 OA
ATOM     30  C2  SGN d 303     -15.678  47.174 175.882  0.00  0.00     0.081 C 
ATOM     31  O3S SGN d 303     -13.904  43.967 176.660  0.00  0.00    -0.296 OA
ATOM     32  O5  SGN d 303     -15.510  49.505 176.453  0.00  0.00    -0.349 OA
ATOM     33  C1  SGN d 303     -14.757  48.312 176.311  0.00  0.00     0.150 C 
ATOM     34  O4S SGN d 303     -18.428  53.452 176.655  0.00  0.00    -0.572 OA
ATOM     35  C6  SGN d 303     -16.651  51.314 175.501  0.00  0.00     0.067 C 
ATOM     36  O6S SGN d 303     -16.753  52.687 178.211  0.00  0.00    -0.572 OA
ATOM     37  N   SGN d 303     -14.893  45.950 175.727  0.00  0.00    -0.210 NA
ATOM     38  O1S SGN d 303     -14.331  45.801 178.118  0.00  0.00    -0.296 OA
ATOM     39  C5  SGN d 303     -16.127  49.934 175.247  0.00  0.00     0.091 C 
ATOM     40  O4  SGN d 303     -17.679  49.324 173.549  0.00  0.00    -0.348 OA
ATOM     41  S2  SGN d 303     -17.966  52.366 177.474  0.00  0.00     0.251 S 
ATOM     42  H   SGN d 303     -17.839  46.736 173.505  0.00  0.00     0.210 HD
ATOM     43  H   SGN d 303     -17.966  48.815 175.491  0.00  0.00     0.091 H 
ATOM     44  H   SGN d 303     -15.735  47.628 173.775  0.00  0.00     0.089 H 
ATOM     45  H   SGN d 303     -16.697  45.298 177.478  0.00  0.00     0.231 HD
ATOM     46  H   SGN d 303     -16.418  47.009 176.637  0.00  0.00     0.076 H 
ATOM     47  H   SGN d 303     -13.019  44.342 176.527  0.00  0.00     0.231 HD
ATOM     48  H   SGN d 303     -14.303  48.114 177.260  0.00  0.00     0.131 H 
ATOM     49  H   SGN d 303     -15.854  51.956 175.813  0.00  0.00     0.080 H 
ATOM     50  H   SGN d 303     -17.080  51.726 174.611  0.00  0.00     0.080 H 
ATOM     51  H   SGN d 303     -15.309  45.409 174.969  0.00  0.00     0.140 HD
ATOM     52  H   SGN d 303     -14.986  46.487 178.317  0.00  0.00     0.231 HD
ATOM     53  H   SGN d 303     -15.444  49.989 174.425  0.00  0.00     0.090 H 
ATOM     54  C2  SGN d 301      -7.809  52.028 172.079  0.00  0.00     0.081 C 
ATOM     55  C5  SGN d 301      -7.849  49.238 172.340  0.00  0.00     0.091 C 
ATOM     56  O6S SGN d 301      -7.102  46.901 169.763  0.00  0.00    -0.572 OA
ATOM     57  C3  SGN d 301      -8.392  51.344 173.308  0.00  0.00     0.083 C 
ATOM     58  O2S SGN d 301      -9.272  54.706 172.244  0.00  0.00    -0.296 OA
ATOM     59  O6  SGN d 301      -8.985  47.802 170.903  0.00  0.00    -0.254 OA
ATOM     60  O3  SGN d 301      -9.382  52.147 173.911  0.00  0.00    -0.391 OA
ATOM     61  O1  SGN d 301      -5.640  50.991 172.372  0.00  0.00    -0.369 OA
ATOM     62  C6  SGN d 301      -8.195  47.810 172.021  0.00  0.00     0.067 C 
ATOM     63  O5S SGN d 301      -8.558  48.555 168.700  0.00  0.00    -0.572 OA
ATOM     64  O4S SGN d 301      -9.356  46.319 169.082  0.00  0.00    -0.572 OA
ATOM     65  O1S SGN d 301      -7.893  54.405 170.239  0.00  0.00    -0.296 OA
ATOM     66  N   SGN d 301      -7.246  53.326 172.398  0.00  0.00    -0.210 NA
ATOM     67  O4  SGN d 301      -9.693  49.392 173.758  0.00  0.00    -0.348 OA
ATOM     68  C4  SGN d 301      -9.009  50.068 172.770  0.00  0.00     0.095 C 
ATOM     69  S1  SGN d 301      -7.931  54.632 171.693  0.00  0.00     0.156 S 
ATOM     70  S2  SGN d 301      -8.464  47.372 169.531  0.00  0.00     0.251 S 
ATOM     71  O3S SGN d 301      -7.129  55.745 172.138  0.00  0.00    -0.296 OA
ATOM     72  O5  SGN d 301      -7.274  49.837 171.204  0.00  0.00    -0.350 OA
ATOM     73  C1  SGN d 301      -6.744  51.111 171.470  0.00  0.00     0.147 C 
ATOM     74  H   SGN d 301      -8.594  52.200 171.373  0.00  0.00     0.076 H 
ATOM     75  H   SGN d 301      -7.171  49.201 173.167  0.00  0.00     0.090 H 
ATOM     76  H   SGN d 301      -7.651  51.164 174.059  0.00  0.00     0.089 H 
ATOM     77  H   SGN d 301      -9.792  53.948 171.931  0.00  0.00     0.231 HD
ATOM     78  H   SGN d 301     -10.081  52.339 173.266  0.00  0.00     0.210 HD
ATOM     79  H   SGN d 301      -5.276  51.872 172.555  0.00  0.00     0.212 HD
ATOM     80  H   SGN d 301      -8.724  47.372 172.842  0.00  0.00     0.080 H 
ATOM     81  H   SGN d 301      -7.304  47.243 171.848  0.00  0.00     0.080 H 
ATOM     82  H   SGN d 301      -8.452  53.645 170.015  0.00  0.00     0.231 HD
ATOM     83  H   SGN d 301      -6.264  53.310 172.124  0.00  0.00     0.140 HD
ATOM     84  H   SGN d 301      -9.703  50.276 171.982  0.00  0.00     0.091 H 
ATOM     85  H   SGN d 301      -7.476  56.567 171.758  0.00  0.00     0.231 HD
ATOM     86  H   SGN d 301      -6.414  51.541 170.549  0.00  0.00     0.131 H 
ATOM     87  O1S IDS d 302     -13.418  44.964 173.687  0.00  0.00    -0.572 OA
ATOM     88  O2S IDS d 302     -12.404  44.947 171.545  0.00  0.00    -0.572 OA
ATOM     89  O62 IDS d 302     -12.720  51.256 176.927  0.00  0.00    -0.646 OA
ATOM     90  C6  IDS d 302     -12.602  51.073 175.726  0.00  0.00     0.206 C 
ATOM     91  C4  IDS d 302     -12.433  48.586 175.789  0.00  0.00     0.103 C 
ATOM     92  S   IDS d 302     -12.261  45.272 172.921  0.00  0.00     0.252 S 
ATOM     93  O3S IDS d 302     -11.099  44.718 173.504  0.00  0.00    -0.572 OA
ATOM     94  C5  IDS d 302     -11.909  49.864 175.219  0.00  0.00     0.152 C 
ATOM     95  C2  IDS d 302     -11.135  47.499 173.830  0.00  0.00     0.134 C 
ATOM     96  O2  IDS d 302     -12.081  46.820 173.027  0.00  0.00    -0.244 OA
ATOM     97  C3  IDS d 302     -11.575  47.390 175.301  0.00  0.00     0.094 C 
ATOM     98  O61 IDS d 302     -13.057  51.896 174.949  0.00  0.00    -0.646 OA
ATOM     99  O5  IDS d 302     -11.956  49.789 173.829  0.00  0.00    -0.340 OA
ATOM    100  O3  IDS d 302     -10.419  47.327 176.104  0.00  0.00    -0.390 OA
ATOM    101  O4  IDS d 302     -13.747  48.435 175.337  0.00  0.00    -0.348 OA
ATOM    102  C1  IDS d 302     -10.948  48.940 173.331  0.00  0.00     0.161 C 
ATOM    103  H   IDS d 302     -12.394  48.613 176.858  0.00  0.00     0.092 H 
ATOM    104  H   IDS d 302     -10.897  49.975 175.544  0.00  0.00     0.104 H 
ATOM    105  H   IDS d 302     -10.166  47.050 173.757  0.00  0.00     0.097 H 
ATOM    106  H   IDS d 302     -12.184  46.514 175.379  0.00  0.00     0.091 H 
ATOM    107  H   IDS d 302      -9.906  48.143 175.996  0.00  0.00     0.210 HD
ATOM    108  H   IDS d 302     -11.013  48.954 172.263  0.00  0.00     0.133 H 
ATOM    109  O6  SGN d 305     -24.832  46.026 169.790  0.00  0.00    -0.254 OA
ATOM    110  C2  SGN d 305     -23.637  50.331 170.380  0.00  0.00     0.081 C 
ATOM    111  O1S SGN d 305     -21.787  51.535 168.331  0.00  0.00    -0.296 OA
ATOM    112  O5  SGN d 305     -22.987  48.012 170.193  0.00  0.00    -0.349 OA
ATOM    113  S1  SGN d 305     -22.762  52.383 168.946  0.00  0.00     0.156 S 
ATOM    114  O5S SGN d 305     -25.195  44.911 167.631  0.00  0.00    -0.572 OA
ATOM    115  C1  SGN d 305     -22.476  49.343 170.303  0.00  0.00     0.150 C 
ATOM    116  O3  SGN d 305     -25.558  50.886 171.775  0.00  0.00    -0.391 OA
ATOM    117  S2  SGN d 305     -25.208  44.672 169.071  0.00  0.00     0.251 S 
ATOM    118  O6S SGN d 305     -24.197  43.697 169.444  0.00  0.00    -0.572 OA
ATOM    119  C5  SGN d 305     -23.833  47.603 171.298  0.00  0.00     0.090 C 
ATOM    120  O4S SGN d 305     -26.525  44.370 169.586  0.00  0.00    -0.572 OA
ATOM    121  C6  SGN d 305     -24.237  46.147 171.048  0.00  0.00     0.067 C 
ATOM    122  N   SGN d 305     -23.132  51.718 170.387  0.00  0.00    -0.210 NA
ATOM    123  O2S SGN d 305     -23.955  52.412 168.150  0.00  0.00    -0.296 OA
ATOM    124  O3S SGN d 305     -22.267  53.679 169.274  0.00  0.00    -0.296 OA
ATOM    125  C4  SGN d 305     -25.018  48.566 171.469  0.00  0.00     0.089 C 
ATOM    126  O4  SGN d 305     -25.741  48.260 172.651  0.00  0.00    -0.390 OA
ATOM    127  C3  SGN d 305     -24.462  49.995 171.643  0.00  0.00     0.083 C 
ATOM    128  H   SGN d 305     -24.271  50.248 169.523  0.00  0.00     0.076 H 
ATOM    129  H   SGN d 305     -22.186  50.673 168.135  0.00  0.00     0.231 HD
ATOM    130  H   SGN d 305     -21.874  49.520 169.436  0.00  0.00     0.131 H 
ATOM    131  H   SGN d 305     -25.227  51.792 171.885  0.00  0.00     0.210 HD
ATOM    132  H   SGN d 305     -23.315  47.650 172.233  0.00  0.00     0.090 H 
ATOM    133  H   SGN d 305     -23.368  45.526 171.090  0.00  0.00     0.080 H 
ATOM    134  H   SGN d 305     -24.938  45.844 171.798  0.00  0.00     0.080 H 
ATOM    135  H   SGN d 305     -22.287  51.734 170.958  0.00  0.00     0.140 HD
ATOM    136  H   SGN d 305     -24.241  51.504 167.961  0.00  0.00     0.231 HD
ATOM    137  H   SGN d 305     -21.464  53.592 169.811  0.00  0.00     0.231 HD
ATOM    138  H   SGN d 305     -25.655  48.481 170.613  0.00  0.00     0.091 H 
ATOM    139  H   SGN d 305     -25.154  48.341 173.419  0.00  0.00     0.210 HD
ATOM    140  H   SGN d 305     -23.840  50.079 172.510  0.00  0.00     0.089 H 
ENDROOT
TORSDOF 45
ENDMDL
MODEL 14
REMARK VINA RESULT:      -9.2      6.684     11.667
REMARK  0 active torsions:
REMARK  status: ('A' for Active; 'I' for Inactive)
REMARK       I    between atoms: C6_1  and  C5_56 
REMARK       I    between atoms: O3_2  and  C3_19 
REMARK       I    between atoms: C2_3  and  N_45 
REMARK       I    between atoms: S1_4  and  N_72 
REMARK       I    between atoms: S1_4  and  O1S_74 
REMARK       I    between atoms: S1_4  and  O2S_20 
REMARK       I    between atoms: S1_4  and  O3S_35 
REMARK       I    between atoms: C5_5  and  C6_27 
REMARK       I    between atoms: C3_7  and  O3_15 
REMARK       I    between atoms: O2S_10  and  S1_60 
REMARK       I    between atoms: O6_11  and  C6_27 
REMARK       I    between atoms: O6_11  and  S2_67 
REMARK       I    between atoms: C4_14  and  O4_71 
REMARK       I    between atoms: C4_16  and  O4_81 
REMARK       I    between atoms: C6_18  and  C5_53 
REMARK       I    between atoms: O2_21  and  C2_30 
REMARK       I    between atoms: O2_21  and  S_68 
REMARK       I    between atoms: O6_22  and  C6_61 
REMARK       I    between atoms: O6_22  and  S2_47 
REMARK       I    between atoms: O1_23  and  C1_86 
REMARK       I    between atoms: O6_24  and  C6_57 
REMARK       I    between atoms: O6_24  and  S2_89 
REMARK       I    between atoms: C4_25  and  O4_85 
REMARK       I    between atoms: C2_26  and  N_73 
REMARK       I    between atoms: C2_28  and  N_72 
REMARK       I    between atoms: O1S_32  and  S1_37 
REMARK       I    between atoms: S1_37  and  N_73 
REMARK       I    between atoms: S1_37  and  O2S_78 
REMARK       I    between atoms: S1_37  and  O3S_82 
REMARK       I    between atoms: C1_39  and  O4_71 
REMARK       I    between atoms: S_41  and  O2_63 
REMARK       I    between atoms: O3_43  and  C3_88 
REMARK       I    between atoms: O1S_44  and  S1_60 
REMARK       I    between atoms: N_45  and  S1_60 
REMARK       I    between atoms: C1_46  and  O4_85 
REMARK       I    between atoms: O4_48  and  C4_54 
REMARK       I    between atoms: O4_48  and  C1_90 
REMARK       I    between atoms: O3_49  and  C3_77 
REMARK       I    between atoms: C5_52  and  C6_61 
REMARK       I    between atoms: C6_57  and  C5_79 
REMARK       I    between atoms: C2_58  and  O2_63 
REMARK       I    between atoms: S1_60  and  O3S_75 
REMARK       I    between atoms: C3_64  and  O3_80 
REMARK       I    between atoms: O4_81  and  C1_84 
REMARK       I    between atoms: C4_83  and  O4_87 
ROOT
ATOM      1  C6  IDS d 304     -24.038  48.681 175.209  0.00  0.00     0.206 C 
ATOM      2  O61 IDS d 304     -25.188  48.684 174.820  0.00  0.00    -0.646 OA
ATOM      3  C4  IDS d 304     -21.870  48.081 174.179  0.00  0.00     0.103 C 
ATOM      4  O2  IDS d 304     -21.880  48.232 171.092  0.00  0.00    -0.244 OA
ATOM      5  O62 IDS d 304     -23.800  48.317 176.321  0.00  0.00    -0.646 OA
ATOM      6  C2  IDS d 304     -21.406  49.237 171.949  0.00  0.00     0.134 C 
ATOM      7  O1S IDS d 304     -20.559  47.992 169.118  0.00  0.00    -0.572 OA
ATOM      8  O3  IDS d 304     -19.992  49.474 173.891  0.00  0.00    -0.390 OA
ATOM      9  C5  IDS d 304     -22.953  49.115 174.333  0.00  0.00     0.152 C 
ATOM     10  O5  IDS d 304     -23.495  49.509 173.114  0.00  0.00    -0.340 OA
ATOM     11  O2S IDS d 304     -22.803  47.221 169.224  0.00  0.00    -0.572 OA
ATOM     12  O3S IDS d 304     -22.375  49.510 169.050  0.00  0.00    -0.572 OA
ATOM     13  S   IDS d 304     -21.903  48.262 169.537  0.00  0.00     0.252 S 
ATOM     14  O4  IDS d 304     -22.438  46.915 173.686  0.00  0.00    -0.348 OA
ATOM     15  C3  IDS d 304     -20.800  48.555 173.206  0.00  0.00     0.094 C 
ATOM     16  C1  IDS d 304     -22.566  50.183 172.283  0.00  0.00     0.161 C 
ATOM     17  H   IDS d 304     -21.414  47.913 175.133  0.00  0.00     0.092 H 
ATOM     18  H   IDS d 304     -20.637  49.825 171.494  0.00  0.00     0.097 H 
ATOM     19  H   IDS d 304     -19.613  49.048 174.676  0.00  0.00     0.210 HD
ATOM     20  H   IDS d 304     -22.461  49.951 174.785  0.00  0.00     0.104 H 
ATOM     21  H   IDS d 304     -20.242  47.710 172.863  0.00  0.00     0.091 H 
ATOM     22  H   IDS d 304     -23.088  50.481 171.398  0.00  0.00     0.133 H 
ATOM     23  O3  SGN d 303     -22.892  52.640 175.365  0.00  0.00    -0.391 OA
ATOM     24  S1  SGN d 303     -23.950  56.483 175.885  0.00  0.00     0.156 S 
ATOM     25  O5S SGN d 303     -26.369  52.064 169.508  0.00  0.00    -0.572 OA
ATOM     26  C4  SGN d 303     -22.847  52.482 172.932  0.00  0.00     0.095 C 
ATOM     27  C3  SGN d 303     -22.470  53.320 174.210  0.00  0.00     0.083 C 
ATOM     28  O2S SGN d 303     -24.921  55.585 176.429  0.00  0.00    -0.296 OA
ATOM     29  O6  SGN d 303     -24.186  52.466 170.353  0.00  0.00    -0.254 OA
ATOM     30  C2  SGN d 303     -23.187  54.677 174.162  0.00  0.00     0.081 C 
ATOM     31  O3S SGN d 303     -23.310  57.283 176.851  0.00  0.00    -0.296 OA
ATOM     32  O5  SGN d 303     -23.250  54.570 171.759  0.00  0.00    -0.349 OA
ATOM     33  C1  SGN d 303     -22.887  55.398 172.851  0.00  0.00     0.150 C 
ATOM     34  O4S SGN d 303     -24.458  51.339 168.261  0.00  0.00    -0.572 OA
ATOM     35  C6  SGN d 303     -22.831  52.724 170.381  0.00  0.00     0.067 C 
ATOM     36  O6S SGN d 303     -24.945  53.695 168.424  0.00  0.00    -0.572 OA
ATOM     37  N   SGN d 303     -22.801  55.532 175.282  0.00  0.00    -0.210 NA
ATOM     38  O1S SGN d 303     -24.499  57.244 174.788  0.00  0.00    -0.296 OA
ATOM     39  C5  SGN d 303     -22.526  53.348 171.708  0.00  0.00     0.091 C 
ATOM     40  O4  SGN d 303     -22.044  51.339 172.889  0.00  0.00    -0.348 OA
ATOM     41  S2  SGN d 303     -25.036  52.387 169.056  0.00  0.00     0.251 S 
ATOM     42  H   SGN d 303     -22.449  51.778 175.412  0.00  0.00     0.210 HD
ATOM     43  H   SGN d 303     -23.879  52.200 172.950  0.00  0.00     0.091 H 
ATOM     44  H   SGN d 303     -21.409  53.460 174.233  0.00  0.00     0.089 H 
ATOM     45  H   SGN d 303     -25.320  55.068 175.712  0.00  0.00     0.231 HD
ATOM     46  H   SGN d 303     -24.237  54.481 174.230  0.00  0.00     0.076 H 
ATOM     47  H   SGN d 303     -22.668  57.865 176.414  0.00  0.00     0.231 HD
ATOM     48  H   SGN d 303     -23.455  56.301 172.760  0.00  0.00     0.131 H 
ATOM     49  H   SGN d 303     -22.570  53.397 169.591  0.00  0.00     0.080 H 
ATOM     50  H   SGN d 303     -22.270  51.823 170.248  0.00  0.00     0.080 H 
ATOM     51  H   SGN d 303     -22.472  54.928 176.035  0.00  0.00     0.140 HD
ATOM     52  H   SGN d 303     -24.925  56.642 174.159  0.00  0.00     0.231 HD
ATOM     53  H   SGN d 303     -21.466  53.488 171.768  0.00  0.00     0.090 H 
ATOM     54  C2  SGN d 301     -15.102  58.180 169.439  0.00  0.00     0.081 C 
ATOM     55  C5  SGN d 301     -15.723  58.920 172.070  0.00  0.00     0.091 C 
ATOM     56  O6S SGN d 301     -13.502  58.774 174.846  0.00  0.00    -0.572 OA
ATOM     57  C3  SGN d 301     -16.531  58.474 169.875  0.00  0.00     0.083 C 
ATOM     58  O2S SGN d 301     -15.665  56.432 166.997  0.00  0.00    -0.296 OA
ATOM     59  O6  SGN d 301     -15.344  57.579 173.934  0.00  0.00    -0.254 OA
ATOM     60  O3  SGN d 301     -17.457  57.772 169.077  0.00  0.00    -0.391 OA
ATOM     61  O1  SGN d 301     -14.311  60.369 170.105  0.00  0.00    -0.369 OA
ATOM     62  C6  SGN d 301     -15.841  58.798 173.564  0.00  0.00     0.067 C 
ATOM     63  O5S SGN d 301     -13.184  56.646 173.682  0.00  0.00    -0.572 OA
ATOM     64  O4S SGN d 301     -14.239  56.689 175.842  0.00  0.00    -0.572 OA
ATOM     65  O1S SGN d 301     -13.296  56.633 167.597  0.00  0.00    -0.296 OA
ATOM     66  N   SGN d 301     -14.883  58.511 168.044  0.00  0.00    -0.210 NA
ATOM     67  O4  SGN d 301     -17.877  58.069 171.806  0.00  0.00    -0.348 OA
ATOM     68  C4  SGN d 301     -16.594  57.982 171.308  0.00  0.00     0.095 C 
ATOM     69  S1  SGN d 301     -14.491  57.285 167.037  0.00  0.00     0.156 S 
ATOM     70  S2  SGN d 301     -13.984  57.416 174.612  0.00  0.00     0.251 S 
ATOM     71  O3S SGN d 301     -14.273  57.921 165.761  0.00  0.00    -0.296 OA
ATOM     72  O5  SGN d 301     -14.387  58.685 171.694  0.00  0.00    -0.350 OA
ATOM     73  C1  SGN d 301     -14.146  58.968 170.339  0.00  0.00     0.147 C 
ATOM     74  H   SGN d 301     -14.919  57.130 169.537  0.00  0.00     0.076 H 
ATOM     75  H   SGN d 301     -16.045  59.910 171.826  0.00  0.00     0.090 H 
ATOM     76  H   SGN d 301     -16.776  59.511 169.780  0.00  0.00     0.089 H 
ATOM     77  H   SGN d 301     -15.792  56.015 167.864  0.00  0.00     0.231 HD
ATOM     78  H   SGN d 301     -17.275  56.821 169.131  0.00  0.00     0.210 HD
ATOM     79  H   SGN d 301     -14.144  60.563 169.169  0.00  0.00     0.212 HD
ATOM     80  H   SGN d 301     -16.869  58.874 173.854  0.00  0.00     0.080 H 
ATOM     81  H   SGN d 301     -15.293  59.582 174.043  0.00  0.00     0.080 H 
ATOM     82  H   SGN d 301     -13.519  56.230 168.451  0.00  0.00     0.231 HD
ATOM     83  H   SGN d 301     -14.126  59.193 168.006  0.00  0.00     0.140 HD
ATOM     84  H   SGN d 301     -16.289  56.959 171.380  0.00  0.00     0.091 H 
ATOM     85  H   SGN d 301     -14.033  57.251 165.102  0.00  0.00     0.231 HD
ATOM     86  H   SGN d 301     -13.144  58.677 170.104  0.00  0.00     0.131 H 
ATOM     87  O1S IDS d 302     -20.445  55.953 176.541  0.00  0.00    -0.572 OA
ATOM     88  O2S IDS d 302     -18.122  55.716 176.946  0.00  0.00    -0.572 OA
ATOM     89  O62 IDS d 302     -21.889  56.727 169.621  0.00  0.00    -0.646 OA
ATOM     90  C6  IDS d 302     -20.856  56.259 170.069  0.00  0.00     0.206 C 
ATOM     91  C4  IDS d 302     -21.157  57.003 172.430  0.00  0.00     0.103 C 
ATOM     92  S   IDS d 302     -19.140  56.457 176.287  0.00  0.00     0.252 S 
ATOM     93  O3S IDS d 302     -19.070  57.844 176.540  0.00  0.00    -0.572 OA
ATOM     94  C5  IDS d 302     -20.225  56.857 171.272  0.00  0.00     0.152 C 
ATOM     95  C2  IDS d 302     -18.978  57.341 173.787  0.00  0.00     0.134 C 
ATOM     96  O2  IDS d 302     -18.919  56.304 174.749  0.00  0.00    -0.244 OA
ATOM     97  C3  IDS d 302     -20.451  57.744 173.595  0.00  0.00     0.094 C 
ATOM     98  O61 IDS d 302     -20.345  55.299 169.517  0.00  0.00    -0.646 OA
ATOM     99  O5  IDS d 302     -19.108  56.132 171.681  0.00  0.00    -0.340 OA
ATOM    100  O3  IDS d 302     -20.499  59.126 173.324  0.00  0.00    -0.390 OA
ATOM    101  O4  IDS d 302     -21.516  55.717 172.843  0.00  0.00    -0.348 OA
ATOM    102  C1  IDS d 302     -18.265  56.913 172.496  0.00  0.00     0.161 C 
ATOM    103  H   IDS d 302     -22.018  57.570 172.145  0.00  0.00     0.092 H 
ATOM    104  H   IDS d 302     -19.931  57.838 170.964  0.00  0.00     0.104 H 
ATOM    105  H   IDS d 302     -18.454  58.213 174.120  0.00  0.00     0.097 H 
ATOM    106  H   IDS d 302     -20.967  57.479 174.494  0.00  0.00     0.091 H 
ATOM    107  H   IDS d 302     -20.019  59.311 172.502  0.00  0.00     0.210 HD
ATOM    108  H   IDS d 302     -17.413  56.315 172.745  0.00  0.00     0.133 H 
ATOM    109  O6  SGN d 305     -23.259  44.248 177.829  0.00  0.00    -0.254 OA
ATOM    110  C2  SGN d 305     -22.511  44.550 173.395  0.00  0.00     0.081 C 
ATOM    111  O1S SGN d 305     -19.643  44.775 172.500  0.00  0.00    -0.296 OA
ATOM    112  O5  SGN d 305     -22.321  45.530 175.596  0.00  0.00    -0.349 OA
ATOM    113  S1  SGN d 305     -20.566  44.081 171.654  0.00  0.00     0.156 S 
ATOM    114  O5S SGN d 305     -21.820  43.109 179.463  0.00  0.00    -0.572 OA
ATOM    115  C1  SGN d 305     -21.952  45.704 174.225  0.00  0.00     0.150 C 
ATOM    116  O3  SGN d 305     -24.632  43.532 172.761  0.00  0.00    -0.391 OA
ATOM    117  S2  SGN d 305     -23.053  43.883 179.350  0.00  0.00     0.251 S 
ATOM    118  O6S SGN d 305     -22.947  45.136 180.079  0.00  0.00    -0.572 OA
ATOM    119  C5  SGN d 305     -23.751  45.479 175.829  0.00  0.00     0.090 C 
ATOM    120  O4S SGN d 305     -24.236  43.117 179.679  0.00  0.00    -0.572 OA
ATOM    121  C6  SGN d 305     -23.963  45.351 177.340  0.00  0.00     0.067 C 
ATOM    122  N   SGN d 305     -22.051  44.656 171.996  0.00  0.00    -0.210 NA
ATOM    123  O2S SGN d 305     -20.549  42.679 171.961  0.00  0.00    -0.296 OA
ATOM    124  O3S SGN d 305     -20.392  44.361 170.268  0.00  0.00    -0.296 OA
ATOM    125  C4  SGN d 305     -24.403  44.359 175.003  0.00  0.00     0.089 C 
ATOM    126  O4  SGN d 305     -25.818  44.426 175.104  0.00  0.00    -0.390 OA
ATOM    127  C3  SGN d 305     -24.050  44.581 173.518  0.00  0.00     0.083 C 
ATOM    128  H   SGN d 305     -22.155  43.609 173.757  0.00  0.00     0.076 H 
ATOM    129  H   SGN d 305     -19.816  44.542 173.426  0.00  0.00     0.231 HD
ATOM    130  H   SGN d 305     -20.883  45.725 174.188  0.00  0.00     0.131 H 
ATOM    131  H   SGN d 305     -24.420  43.655 171.822  0.00  0.00     0.210 HD
ATOM    132  H   SGN d 305     -24.239  46.372 175.498  0.00  0.00     0.090 H 
ATOM    133  H   SGN d 305     -23.612  46.238 177.824  0.00  0.00     0.080 H 
ATOM    134  H   SGN d 305     -25.006  45.218 177.538  0.00  0.00     0.080 H 
ATOM    135  H   SGN d 305     -22.064  45.643 171.743  0.00  0.00     0.140 HD
ATOM    136  H   SGN d 305     -20.672  42.555 172.915  0.00  0.00     0.231 HD
ATOM    137  H   SGN d 305     -20.413  45.320 170.126  0.00  0.00     0.231 HD
ATOM    138  H   SGN d 305     -24.051  43.416 175.367  0.00  0.00     0.091 H 
ATOM    139  H   SGN d 305     -26.125  45.284 174.772  0.00  0.00     0.210 HD
ATOM    140  H   SGN d 305     -24.421  45.518 173.155  0.00  0.00     0.089 H 
ENDROOT
TORSDOF 45
ENDMDL
MODEL 15
REMARK VINA RESULT:      -9.1      2.925      4.026
REMARK  0 active torsions:
REMARK  status: ('A' for Active; 'I' for Inactive)
REMARK       I    between atoms: C6_1  and  C5_56 
REMARK       I    between atoms: O3_2  and  C3_19 
REMARK       I    between atoms: C2_3  and  N_45 
REMARK       I    between atoms: S1_4  and  N_72 
REMARK       I    between atoms: S1_4  and  O1S_74 
REMARK       I    between atoms: S1_4  and  O2S_20 
REMARK       I    between atoms: S1_4  and  O3S_35 
REMARK       I    between atoms: C5_5  and  C6_27 
REMARK       I    between atoms: C3_7  and  O3_15 
REMARK       I    between atoms: O2S_10  and  S1_60 
REMARK       I    between atoms: O6_11  and  C6_27 
REMARK       I    between atoms: O6_11  and  S2_67 
REMARK       I    between atoms: C4_14  and  O4_71 
REMARK       I    between atoms: C4_16  and  O4_81 
REMARK       I    between atoms: C6_18  and  C5_53 
REMARK       I    between atoms: O2_21  and  C2_30 
REMARK       I    between atoms: O2_21  and  S_68 
REMARK       I    between atoms: O6_22  and  C6_61 
REMARK       I    between atoms: O6_22  and  S2_47 
REMARK       I    between atoms: O1_23  and  C1_86 
REMARK       I    between atoms: O6_24  and  C6_57 
REMARK       I    between atoms: O6_24  and  S2_89 
REMARK       I    between atoms: C4_25  and  O4_85 
REMARK       I    between atoms: C2_26  and  N_73 
REMARK       I    between atoms: C2_28  and  N_72 
REMARK       I    between atoms: O1S_32  and  S1_37 
REMARK       I    between atoms: S1_37  and  N_73 
REMARK       I    between atoms: S1_37  and  O2S_78 
REMARK       I    between atoms: S1_37  and  O3S_82 
REMARK       I    between atoms: C1_39  and  O4_71 
REMARK       I    between atoms: S_41  and  O2_63 
REMARK       I    between atoms: O3_43  and  C3_88 
REMARK       I    between atoms: O1S_44  and  S1_60 
REMARK       I    between atoms: N_45  and  S1_60 
REMARK       I    between atoms: C1_46  and  O4_85 
REMARK       I    between atoms: O4_48  and  C4_54 
REMARK       I    between atoms: O4_48  and  C1_90 
REMARK       I    between atoms: O3_49  and  C3_77 
REMARK       I    between atoms: C5_52  and  C6_61 
REMARK       I    between atoms: C6_57  and  C5_79 
REMARK       I    between atoms: C2_58  and  O2_63 
REMARK       I    between atoms: S1_60  and  O3S_75 
REMARK       I    between atoms: C3_64  and  O3_80 
REMARK       I    between atoms: O4_81  and  C1_84 
REMARK       I    between atoms: C4_83  and  O4_87 
ROOT
ATOM      1  C6  IDS d 304     -11.294  46.568 175.721  0.00  0.00     0.206 C 
ATOM      2  O61 IDS d 304     -11.732  45.794 176.547  0.00  0.00    -0.646 OA
ATOM      3  C4  IDS d 304     -11.362  46.675 173.251  0.00  0.00     0.103 C 
ATOM      4  O2  IDS d 304     -13.724  45.116 172.006  0.00  0.00    -0.244 OA
ATOM      5  O62 IDS d 304     -10.206  47.034 175.878  0.00  0.00    -0.646 OA
ATOM      6  C2  IDS d 304     -13.706  46.498 172.251  0.00  0.00     0.134 C 
ATOM      7  O1S IDS d 304     -14.834  44.544 169.972  0.00  0.00    -0.572 OA
ATOM      8  O3  IDS d 304     -12.257  48.400 171.920  0.00  0.00    -0.390 OA
ATOM      9  C5  IDS d 304     -12.083  46.931 174.547  0.00  0.00     0.152 C 
ATOM     10  O5  IDS d 304     -13.310  46.278 174.615  0.00  0.00    -0.340 OA
ATOM     11  O2S IDS d 304     -14.535  42.966 171.722  0.00  0.00    -0.572 OA
ATOM     12  O3S IDS d 304     -16.137  44.650 171.946  0.00  0.00    -0.572 OA
ATOM     13  S   IDS d 304     -14.884  44.291 171.382  0.00  0.00     0.252 S 
ATOM     14  O4  IDS d 304     -11.017  45.332 173.193  0.00  0.00    -0.348 OA
ATOM     15  C3  IDS d 304     -12.250  47.006 172.060  0.00  0.00     0.094 C 
ATOM     16  C1  IDS d 304     -14.246  46.752 173.664  0.00  0.00     0.161 C 
ATOM     17  H   IDS d 304     -10.491  47.297 173.210  0.00  0.00     0.092 H 
ATOM     18  H   IDS d 304     -14.332  47.035 171.570  0.00  0.00     0.097 H 
ATOM     19  H   IDS d 304     -11.348  48.718 171.800  0.00  0.00     0.210 HD
ATOM     20  H   IDS d 304     -12.247  47.988 174.557  0.00  0.00     0.104 H 
ATOM     21  H   IDS d 304     -11.863  46.518 171.191  0.00  0.00     0.091 H 
ATOM     22  H   IDS d 304     -15.162  46.223 173.827  0.00  0.00     0.133 H 
ATOM     23  O3  SGN d 303     -13.677  49.926 175.952  0.00  0.00    -0.391 OA
ATOM     24  S1  SGN d 303     -16.006  52.312 178.198  0.00  0.00     0.156 S 
ATOM     25  O5S SGN d 303     -18.034  44.672 176.315  0.00  0.00    -0.572 OA
ATOM     26  C4  SGN d 303     -15.346  48.534 174.847  0.00  0.00     0.095 C 
ATOM     27  C3  SGN d 303     -14.921  49.980 175.303  0.00  0.00     0.083 C 
ATOM     28  O2S SGN d 303     -15.135  51.511 179.000  0.00  0.00    -0.296 OA
ATOM     29  O6  SGN d 303     -17.398  46.478 174.910  0.00  0.00    -0.254 OA
ATOM     30  C2  SGN d 303     -15.959  50.529 176.294  0.00  0.00     0.081 C 
ATOM     31  O3S SGN d 303     -15.750  53.694 178.286  0.00  0.00    -0.296 OA
ATOM     32  O5  SGN d 303     -17.654  49.134 175.307  0.00  0.00    -0.349 OA
ATOM     33  C1  SGN d 303     -17.361  50.466 175.695  0.00  0.00     0.150 C 
ATOM     34  O4S SGN d 303     -18.212  44.450 173.938  0.00  0.00    -0.572 OA
ATOM     35  C6  SGN d 303     -17.372  47.339 173.832  0.00  0.00     0.067 C 
ATOM     36  O6S SGN d 303     -19.731  45.909 175.110  0.00  0.00    -0.572 OA
ATOM     37  N   SGN d 303     -15.660  51.906 176.681  0.00  0.00    -0.210 NA
ATOM     38  O1S SGN d 303     -17.389  51.973 178.431  0.00  0.00    -0.296 OA
ATOM     39  C5  SGN d 303     -16.779  48.628 174.308  0.00  0.00     0.091 C 
ATOM     40  O4  SGN d 303     -14.508  48.125 173.806  0.00  0.00    -0.348 OA
ATOM     41  S2  SGN d 303     -18.406  45.308 175.073  0.00  0.00     0.251 S 
ATOM     42  H   SGN d 303     -13.008  49.581 175.341  0.00  0.00     0.210 HD
ATOM     43  H   SGN d 303     -15.279  47.841 175.659  0.00  0.00     0.091 H 
ATOM     44  H   SGN d 303     -14.859  50.612 174.441  0.00  0.00     0.089 H 
ATOM     45  H   SGN d 303     -15.366  50.575 178.892  0.00  0.00     0.231 HD
ATOM     46  H   SGN d 303     -15.916  49.913 177.168  0.00  0.00     0.076 H 
ATOM     47  H   SGN d 303     -16.374  54.175 177.720  0.00  0.00     0.231 HD
ATOM     48  H   SGN d 303     -18.106  50.756 176.407  0.00  0.00     0.131 H 
ATOM     49  H   SGN d 303     -18.366  47.504 173.471  0.00  0.00     0.080 H 
ATOM     50  H   SGN d 303     -16.794  46.927 173.031  0.00  0.00     0.080 H 
ATOM     51  H   SGN d 303     -14.662  52.059 176.539  0.00  0.00     0.140 HD
ATOM     52  H   SGN d 303     -17.503  51.013 178.357  0.00  0.00     0.231 HD
ATOM     53  H   SGN d 303     -16.689  49.279 173.463  0.00  0.00     0.090 H 
ATOM     54  C2  SGN d 301     -20.697  54.381 168.378  0.00  0.00     0.081 C 
ATOM     55  C5  SGN d 301     -19.348  55.993 170.231  0.00  0.00     0.091 C 
ATOM     56  O6S SGN d 301     -16.927  58.480 169.446  0.00  0.00    -0.572 OA
ATOM     57  C3  SGN d 301     -20.761  54.111 169.875  0.00  0.00     0.083 C 
ATOM     58  O2S SGN d 301     -21.388  51.596 167.328  0.00  0.00    -0.296 OA
ATOM     59  O6  SGN d 301     -17.037  56.263 170.299  0.00  0.00    -0.254 OA
ATOM     60  O3  SGN d 301     -20.997  52.745 170.132  0.00  0.00    -0.391 OA
ATOM     61  O1  SGN d 301     -21.569  56.627 168.614  0.00  0.00    -0.369 OA
ATOM     62  C6  SGN d 301     -18.188  56.654 170.926  0.00  0.00     0.067 C 
ATOM     63  O5S SGN d 301     -16.314  56.556 168.064  0.00  0.00    -0.572 OA
ATOM     64  O4S SGN d 301     -14.900  57.225 169.891  0.00  0.00    -0.572 OA
ATOM     65  O1S SGN d 301     -20.772  53.226 165.603  0.00  0.00    -0.296 OA
ATOM     66  N   SGN d 301     -21.910  53.967 167.700  0.00  0.00    -0.210 NA
ATOM     67  O4  SGN d 301     -19.254  54.206 171.725  0.00  0.00    -0.348 OA
ATOM     68  C4  SGN d 301     -19.392  54.512 170.388  0.00  0.00     0.095 C 
ATOM     69  S1  SGN d 301     -21.775  52.781 166.584  0.00  0.00     0.156 S 
ATOM     70  S2  SGN d 301     -16.253  57.188 169.367  0.00  0.00     0.251 S 
ATOM     71  O3S SGN d 301     -23.106  52.639 166.045  0.00  0.00    -0.296 OA
ATOM     72  O5  SGN d 301     -19.291  56.291 168.857  0.00  0.00    -0.350 OA
ATOM     73  C1  SGN d 301     -20.439  55.875 168.163  0.00  0.00     0.147 C 
ATOM     74  H   SGN d 301     -19.899  53.806 167.956  0.00  0.00     0.076 H 
ATOM     75  H   SGN d 301     -20.231  56.381 170.694  0.00  0.00     0.090 H 
ATOM     76  H   SGN d 301     -21.557  54.649 170.348  0.00  0.00     0.089 H 
ATOM     77  H   SGN d 301     -20.492  51.714 167.680  0.00  0.00     0.231 HD
ATOM     78  H   SGN d 301     -20.298  52.213 169.722  0.00  0.00     0.210 HD
ATOM     79  H   SGN d 301     -22.362  56.340 168.134  0.00  0.00     0.212 HD
ATOM     80  H   SGN d 301     -18.162  56.354 171.953  0.00  0.00     0.080 H 
ATOM     81  H   SGN d 301     -18.289  57.718 170.883  0.00  0.00     0.080 H 
ATOM     82  H   SGN d 301     -19.907  53.298 166.035  0.00  0.00     0.231 HD
ATOM     83  H   SGN d 301     -22.294  54.787 167.231  0.00  0.00     0.140 HD
ATOM     84  H   SGN d 301     -18.615  54.001 169.859  0.00  0.00     0.091 H 
ATOM     85  H   SGN d 301     -23.109  51.945 165.368  0.00  0.00     0.231 HD
ATOM     86  H   SGN d 301     -20.285  56.045 167.118  0.00  0.00     0.131 H 
ATOM     87  O1S IDS d 302     -14.711  54.033 175.306  0.00  0.00    -0.572 OA
ATOM     88  O2S IDS d 302     -13.952  55.234 173.411  0.00  0.00    -0.572 OA
ATOM     89  O62 IDS d 302     -20.483  50.134 173.867  0.00  0.00    -0.646 OA
ATOM     90  C6  IDS d 302     -19.706  50.565 173.031  0.00  0.00     0.206 C 
ATOM     91  C4  IDS d 302     -18.516  52.193 174.497  0.00  0.00     0.103 C 
ATOM     92  S   IDS d 302     -15.063  54.885 174.224  0.00  0.00     0.252 S 
ATOM     93  O3S IDS d 302     -15.796  56.005 174.674  0.00  0.00    -0.572 OA
ATOM     94  C5  IDS d 302     -19.143  51.931 173.167  0.00  0.00     0.152 C 
ATOM     95  C2  IDS d 302     -17.462  54.228 173.292  0.00  0.00     0.134 C 
ATOM     96  O2  IDS d 302     -16.057  54.064 173.343  0.00  0.00    -0.244 OA
ATOM     97  C3  IDS d 302     -18.066  53.674 174.595  0.00  0.00     0.094 C 
ATOM     98  O61 IDS d 302     -19.401  49.864 172.080  0.00  0.00    -0.646 OA
ATOM     99  O5  IDS d 302     -18.212  52.206 172.168  0.00  0.00    -0.340 OA
ATOM    100  O3  IDS d 302     -19.195  54.451 174.924  0.00  0.00    -0.390 OA
ATOM    101  O4  IDS d 302     -17.400  51.357 174.605  0.00  0.00    -0.348 OA
ATOM    102  C1  IDS d 302     -18.027  53.593 172.013  0.00  0.00     0.161 C 
ATOM    103  H   IDS d 302     -19.217  52.003 175.282  0.00  0.00     0.092 H 
ATOM    104  H   IDS d 302     -19.985  52.582 173.070  0.00  0.00     0.104 H 
ATOM    105  H   IDS d 302     -17.733  55.262 173.235  0.00  0.00     0.097 H 
ATOM    106  H   IDS d 302     -17.298  53.721 175.339  0.00  0.00     0.091 H 
ATOM    107  H   IDS d 302     -19.857  54.372 174.220  0.00  0.00     0.210 HD
ATOM    108  H   IDS d 302     -17.334  53.739 171.211  0.00  0.00     0.133 H 
ATOM    109  O6  SGN d 305      -6.310  45.326 174.863  0.00  0.00    -0.254 OA
ATOM    110  C2  SGN d 305      -9.658  43.522 172.445  0.00  0.00     0.081 C 
ATOM    111  O1S SGN d 305     -10.087  44.611 169.670  0.00  0.00    -0.296 OA
ATOM    112  O5  SGN d 305      -8.678  45.468 173.491  0.00  0.00    -0.349 OA
ATOM    113  S1  SGN d 305     -10.363  43.226 169.906  0.00  0.00     0.156 S 
ATOM    114  O5S SGN d 305      -4.164  46.134 173.981  0.00  0.00    -0.572 OA
ATOM    115  C1  SGN d 305      -9.749  45.033 172.649  0.00  0.00     0.150 C 
ATOM    116  O3  SGN d 305      -9.720  41.438 173.707  0.00  0.00    -0.391 OA
ATOM    117  S2  SGN d 305      -4.925  45.995 175.218  0.00  0.00     0.251 S 
ATOM    118  O6S SGN d 305      -5.216  47.295 175.798  0.00  0.00    -0.572 OA
ATOM    119  C5  SGN d 305      -8.661  44.852 174.804  0.00  0.00     0.090 C 
ATOM    120  O4S SGN d 305      -4.328  45.063 176.151  0.00  0.00    -0.572 OA
ATOM    121  C6  SGN d 305      -7.497  45.470 175.583  0.00  0.00     0.067 C 
ATOM    122  N   SGN d 305     -10.692  43.070 171.494  0.00  0.00    -0.210 NA
ATOM    123  O2S SGN d 305      -9.199  42.440 169.612  0.00  0.00    -0.296 OA
ATOM    124  O3S SGN d 305     -11.542  42.759 169.255  0.00  0.00    -0.296 OA
ATOM    125  C4  SGN d 305      -8.602  43.320 174.692  0.00  0.00     0.089 C 
ATOM    126  O4  SGN d 305      -8.759  42.722 175.970  0.00  0.00    -0.390 OA
ATOM    127  C3  SGN d 305      -9.791  42.849 173.829  0.00  0.00     0.083 C 
ATOM    128  H   SGN d 305      -8.717  43.248 172.018  0.00  0.00     0.076 H 
ATOM    129  H   SGN d 305      -9.276  44.864 170.139  0.00  0.00     0.231 HD
ATOM    130  H   SGN d 305      -9.650  45.556 171.721  0.00  0.00     0.131 H 
ATOM    131  H   SGN d 305     -10.461  41.122 173.166  0.00  0.00     0.210 HD
ATOM    132  H   SGN d 305      -9.565  45.044 175.344  0.00  0.00     0.090 H 
ATOM    133  H   SGN d 305      -7.691  46.511 175.743  0.00  0.00     0.080 H 
ATOM    134  H   SGN d 305      -7.400  44.971 176.525  0.00  0.00     0.080 H 
ATOM    135  H   SGN d 305     -11.540  43.603 171.686  0.00  0.00     0.140 HD
ATOM    136  H   SGN d 305      -8.434  42.807 170.083  0.00  0.00     0.231 HD
ATOM    137  H   SGN d 305     -12.290  43.329 169.493  0.00  0.00     0.231 HD
ATOM    138  H   SGN d 305      -7.659  43.044 174.268  0.00  0.00     0.091 H 
ATOM    139  H   SGN d 305      -9.616  42.979 176.344  0.00  0.00     0.210 HD
ATOM    140  H   SGN d 305     -10.732  43.112 174.268  0.00  0.00     0.089 H 
ENDROOT
TORSDOF 45
ENDMDL
MODEL 16
REMARK VINA RESULT:      -8.6      2.518     13.380
REMARK  0 active torsions:
REMARK  status: ('A' for Active; 'I' for Inactive)
REMARK       I    between atoms: C6_1  and  C5_56 
REMARK       I    between atoms: O3_2  and  C3_19 
REMARK       I    between atoms: C2_3  and  N_45 
REMARK       I    between atoms: S1_4  and  N_72 
REMARK       I    between atoms: S1_4  and  O1S_74 
REMARK       I    between atoms: S1_4  and  O2S_20 
REMARK       I    between atoms: S1_4  and  O3S_35 
REMARK       I    between atoms: C5_5  and  C6_27 
REMARK       I    between atoms: C3_7  and  O3_15 
REMARK       I    between atoms: O2S_10  and  S1_60 
REMARK       I    between atoms: O6_11  and  C6_27 
REMARK       I    between atoms: O6_11  and  S2_67 
REMARK       I    between atoms: C4_14  and  O4_71 
REMARK       I    between atoms: C4_16  and  O4_81 
REMARK       I    between atoms: C6_18  and  C5_53 
REMARK       I    between atoms: O2_21  and  C2_30 
REMARK       I    between atoms: O2_21  and  S_68 
REMARK       I    between atoms: O6_22  and  C6_61 
REMARK       I    between atoms: O6_22  and  S2_47 
REMARK       I    between atoms: O1_23  and  C1_86 
REMARK       I    between atoms: O6_24  and  C6_57 
REMARK       I    between atoms: O6_24  and  S2_89 
REMARK       I    between atoms: C4_25  and  O4_85 
REMARK       I    between atoms: C2_26  and  N_73 
REMARK       I    between atoms: C2_28  and  N_72 
REMARK       I    between atoms: O1S_32  and  S1_37 
REMARK       I    between atoms: S1_37  and  N_73 
REMARK       I    between atoms: S1_37  and  O2S_78 
REMARK       I    between atoms: S1_37  and  O3S_82 
REMARK       I    between atoms: C1_39  and  O4_71 
REMARK       I    between atoms: S_41  and  O2_63 
REMARK       I    between atoms: O3_43  and  C3_88 
REMARK       I    between atoms: O1S_44  and  S1_60 
REMARK       I    between atoms: N_45  and  S1_60 
REMARK       I    between atoms: C1_46  and  O4_85 
REMARK       I    between atoms: O4_48  and  C4_54 
REMARK       I    between atoms: O4_48  and  C1_90 
REMARK       I    between atoms: O3_49  and  C3_77 
REMARK       I    between atoms: C5_52  and  C6_61 
REMARK       I    between atoms: C6_57  and  C5_79 
REMARK       I    between atoms: C2_58  and  O2_63 
REMARK       I    between atoms: S1_60  and  O3S_75 
REMARK       I    between atoms: C3_64  and  O3_80 
REMARK       I    between atoms: O4_81  and  C1_84 
REMARK       I    between atoms: C4_83  and  O4_87 
ROOT
ATOM      1  C6  IDS d 304     -19.110  48.995 171.503  0.00  0.00     0.206 C 
ATOM      2  O61 IDS d 304     -19.730  48.122 172.076  0.00  0.00    -0.646 OA
ATOM      3  C4  IDS d 304     -18.173  51.179 172.190  0.00  0.00     0.103 C 
ATOM      4  O2  IDS d 304     -17.637  51.399 175.227  0.00  0.00    -0.244 OA
ATOM      5  O62 IDS d 304     -19.412  49.288 170.386  0.00  0.00    -0.646 OA
ATOM      6  C2  IDS d 304     -16.674  51.081 174.256  0.00  0.00     0.134 C 
ATOM      7  O1S IDS d 304     -16.782  52.794 176.966  0.00  0.00    -0.572 OA
ATOM      8  O3  IDS d 304     -15.920  51.860 172.099  0.00  0.00    -0.390 OA
ATOM      9  C5  IDS d 304     -18.007  49.684 172.167  0.00  0.00     0.152 C 
ATOM     10  O5  IDS d 304     -17.844  49.143 173.439  0.00  0.00    -0.340 OA
ATOM     11  O2S IDS d 304     -18.731  51.469 177.267  0.00  0.00    -0.572 OA
ATOM     12  O3S IDS d 304     -16.630  50.449 177.258  0.00  0.00    -0.572 OA
ATOM     13  S   IDS d 304     -17.415  51.523 176.760  0.00  0.00     0.252 S 
ATOM     14  O4  IDS d 304     -19.370  51.481 172.825  0.00  0.00    -0.348 OA
ATOM     15  C3  IDS d 304     -17.034  51.842 172.950  0.00  0.00     0.094 C 
ATOM     16  C1  IDS d 304     -16.648  49.560 174.073  0.00  0.00     0.161 C 
ATOM     17  H   IDS d 304     -18.170  51.544 171.184  0.00  0.00     0.092 H 
ATOM     18  H   IDS d 304     -15.691  51.384 174.550  0.00  0.00     0.097 H 
ATOM     19  H   IDS d 304     -16.144  52.335 171.283  0.00  0.00     0.210 HD
ATOM     20  H   IDS d 304     -17.112  49.524 171.601  0.00  0.00     0.104 H 
ATOM     21  H   IDS d 304     -17.333  52.828 173.237  0.00  0.00     0.091 H 
ATOM     22  H   IDS d 304     -16.595  49.058 175.016  0.00  0.00     0.133 H 
ATOM     23  O3  SGN d 303     -15.301  47.506 170.973  0.00  0.00    -0.391 OA
ATOM     24  S1  SGN d 303     -12.929  44.302 170.452  0.00  0.00     0.156 S 
ATOM     25  O5S SGN d 303     -17.003  45.701 177.342  0.00  0.00    -0.572 OA
ATOM     26  C4  SGN d 303     -15.068  47.887 173.370  0.00  0.00     0.095 C 
ATOM     27  C3  SGN d 303     -14.353  47.550 172.009  0.00  0.00     0.083 C 
ATOM     28  O2S SGN d 303     -14.290  44.017 170.118  0.00  0.00    -0.296 OA
ATOM     29  O6  SGN d 303     -15.516  47.102 176.132  0.00  0.00    -0.254 OA
ATOM     30  C2  SGN d 303     -13.685  46.170 172.110  0.00  0.00     0.081 C 
ATOM     31  O3S SGN d 303     -12.047  44.229 169.357  0.00  0.00    -0.296 OA
ATOM     32  O5  SGN d 303     -13.480  46.433 174.493  0.00  0.00    -0.349 OA
ATOM     33  C1  SGN d 303     -12.755  46.109 173.318  0.00  0.00     0.150 C 
ATOM     34  O4S SGN d 303     -16.288  47.779 178.292  0.00  0.00    -0.572 OA
ATOM     35  C6  SGN d 303     -14.517  48.017 175.869  0.00  0.00     0.067 C 
ATOM     36  O6S SGN d 303     -14.718  45.960 178.098  0.00  0.00    -0.572 OA
ATOM     37  N   SGN d 303     -12.930  45.846 170.901  0.00  0.00    -0.210 NA
ATOM     38  O1S SGN d 303     -12.495  43.523 171.586  0.00  0.00    -0.296 OA
ATOM     39  C5  SGN d 303     -14.022  47.746 174.482  0.00  0.00     0.091 C 
ATOM     40  O4  SGN d 303     -15.502  49.215 173.335  0.00  0.00    -0.348 OA
ATOM     41  S2  SGN d 303     -15.901  46.609 177.553  0.00  0.00     0.251 S 
ATOM     42  H   SGN d 303     -15.734  48.370 170.894  0.00  0.00     0.210 HD
ATOM     43  H   SGN d 303     -15.903  47.237 173.535  0.00  0.00     0.091 H 
ATOM     44  H   SGN d 303     -13.621  48.304 171.805  0.00  0.00     0.089 H 
ATOM     45  H   SGN d 303     -14.839  44.085 170.915  0.00  0.00     0.231 HD
ATOM     46  H   SGN d 303     -14.468  45.450 172.224  0.00  0.00     0.076 H 
ATOM     47  H   SGN d 303     -11.146  44.432 169.653  0.00  0.00     0.231 HD
ATOM     48  H   SGN d 303     -12.356  45.126 173.457  0.00  0.00     0.131 H 
ATOM     49  H   SGN d 303     -13.719  47.901 176.572  0.00  0.00     0.080 H 
ATOM     50  H   SGN d 303     -14.888  49.017 175.951  0.00  0.00     0.080 H 
ATOM     51  H   SGN d 303     -13.321  46.393 170.134  0.00  0.00     0.140 HD
ATOM     52  H   SGN d 303     -13.140  43.612 172.305  0.00  0.00     0.231 HD
ATOM     53  H   SGN d 303     -13.296  48.496 174.242  0.00  0.00     0.090 H 
ATOM     54  C2  SGN d 301      -5.495  50.955 175.267  0.00  0.00     0.081 C 
ATOM     55  C5  SGN d 301      -5.629  49.747 172.742  0.00  0.00     0.091 C 
ATOM     56  O6S SGN d 301      -4.820  51.308 169.648  0.00  0.00    -0.572 OA
ATOM     57  C3  SGN d 301      -6.160  49.601 175.058  0.00  0.00     0.083 C 
ATOM     58  O2S SGN d 301      -6.886  51.812 177.849  0.00  0.00    -0.296 OA
ATOM     59  O6  SGN d 301      -6.731  50.661 170.907  0.00  0.00    -0.254 OA
ATOM     60  O3  SGN d 301      -7.156  49.372 176.030  0.00  0.00    -0.391 OA
ATOM     61  O1  SGN d 301      -3.375  50.196 174.376  0.00  0.00    -0.369 OA
ATOM     62  C6  SGN d 301      -6.000  49.572 171.295  0.00  0.00     0.067 C 
ATOM     63  O5S SGN d 301      -6.171  52.960 170.845  0.00  0.00    -0.572 OA
ATOM     64  O4S SGN d 301      -7.051  51.876 168.887  0.00  0.00    -0.572 OA
ATOM     65  O1S SGN d 301      -5.416  53.506 176.858  0.00  0.00    -0.296 OA
ATOM     66  N   SGN d 301      -4.911  51.073 176.589  0.00  0.00    -0.210 NA
ATOM     67  O4  SGN d 301      -7.538  48.580 173.396  0.00  0.00    -0.348 OA
ATOM     68  C4  SGN d 301      -6.786  49.699 173.681  0.00  0.00     0.095 C 
ATOM     69  S1  SGN d 301      -5.522  52.225 177.576  0.00  0.00     0.156 S 
ATOM     70  S2  SGN d 301      -6.154  51.767 170.022  0.00  0.00     0.251 S 
ATOM     71  O3S SGN d 301      -4.711  52.147 178.767  0.00  0.00    -0.296 OA
ATOM     72  O5  SGN d 301      -4.980  50.985 172.904  0.00  0.00    -0.350 OA
ATOM     73  C1  SGN d 301      -4.428  51.146 174.186  0.00  0.00     0.147 C 
ATOM     74  H   SGN d 301      -6.238  51.721 175.191  0.00  0.00     0.076 H 
ATOM     75  H   SGN d 301      -4.995  48.921 172.987  0.00  0.00     0.090 H 
ATOM     76  H   SGN d 301      -5.464  48.793 175.142  0.00  0.00     0.089 H 
ATOM     77  H   SGN d 301      -7.411  51.873 177.035  0.00  0.00     0.231 HD
ATOM     78  H   SGN d 301      -7.814  50.083 175.992  0.00  0.00     0.210 HD
ATOM     79  H   SGN d 301      -2.995  50.308 175.262  0.00  0.00     0.212 HD
ATOM     80  H   SGN d 301      -6.583  48.683 171.175  0.00  0.00     0.080 H 
ATOM     81  H   SGN d 301      -5.118  49.486 170.695  0.00  0.00     0.080 H 
ATOM     82  H   SGN d 301      -5.985  53.484 176.073  0.00  0.00     0.231 HD
ATOM     83  H   SGN d 301      -3.918  51.267 176.470  0.00  0.00     0.140 HD
ATOM     84  H   SGN d 301      -7.432  50.549 173.608  0.00  0.00     0.091 H 
ATOM     85  H   SGN d 301      -5.015  52.808 179.409  0.00  0.00     0.231 HD
ATOM     86  H   SGN d 301      -4.039  52.139 174.266  0.00  0.00     0.131 H 
ATOM     87  O1S IDS d 302     -11.381  47.330 169.254  0.00  0.00    -0.572 OA
ATOM     88  O2S IDS d 302     -10.260  49.271 168.485  0.00  0.00    -0.572 OA
ATOM     89  O62 IDS d 302     -10.668  46.433 176.273  0.00  0.00    -0.646 OA
ATOM     90  C6  IDS d 302     -10.494  47.487 175.683  0.00  0.00     0.206 C 
ATOM     91  C4  IDS d 302     -10.400  46.558 173.372  0.00  0.00     0.103 C 
ATOM     92  S   IDS d 302     -10.178  48.086 169.266  0.00  0.00     0.252 S 
ATOM     93  O3S IDS d 302      -9.065  47.282 168.938  0.00  0.00    -0.572 OA
ATOM     94  C5  IDS d 302      -9.812  47.504 174.366  0.00  0.00     0.152 C 
ATOM     95  C2  IDS d 302      -9.036  47.941 171.660  0.00  0.00     0.134 C 
ATOM     96  O2  IDS d 302      -9.960  48.513 170.752  0.00  0.00    -0.244 OA
ATOM     97  C3  IDS d 302      -9.554  46.551 172.072  0.00  0.00     0.094 C 
ATOM     98  O61 IDS d 302     -10.884  48.527 176.189  0.00  0.00    -0.646 OA
ATOM     99  O5  IDS d 302      -9.789  48.782 173.814  0.00  0.00    -0.340 OA
ATOM    100  O3  IDS d 302      -8.443  45.710 172.281  0.00  0.00    -0.390 OA
ATOM    101  O4  IDS d 302     -11.694  47.005 173.085  0.00  0.00    -0.348 OA
ATOM    102  C1  IDS d 302      -8.782  48.896 172.836  0.00  0.00     0.161 C 
ATOM    103  H   IDS d 302     -10.415  45.564 173.767  0.00  0.00     0.092 H 
ATOM    104  H   IDS d 302      -8.814  47.179 174.575  0.00  0.00     0.104 H 
ATOM    105  H   IDS d 302      -8.078  47.797 171.204  0.00  0.00     0.097 H 
ATOM    106  H   IDS d 302     -10.191  46.210 171.283  0.00  0.00     0.091 H 
ATOM    107  H   IDS d 302      -7.901  46.064 173.003  0.00  0.00     0.210 HD
ATOM    108  H   IDS d 302      -8.792  49.905 172.479  0.00  0.00     0.133 H 
ATOM    109  O6  SGN d 305     -22.545  52.009 169.005  0.00  0.00    -0.254 OA
ATOM    110  C2  SGN d 305     -21.258  52.877 173.236  0.00  0.00     0.081 C 
ATOM    111  O1S SGN d 305     -19.272  55.105 173.636  0.00  0.00    -0.296 OA
ATOM    112  O5  SGN d 305     -20.666  52.211 170.990  0.00  0.00    -0.349 OA
ATOM    113  S1  SGN d 305     -20.252  54.879 174.654  0.00  0.00     0.156 S 
ATOM    114  O5S SGN d 305     -22.831  53.665 167.213  0.00  0.00    -0.572 OA
ATOM    115  C1  SGN d 305     -20.123  52.540 172.272  0.00  0.00     0.150 C 
ATOM    116  O3  SGN d 305     -23.231  51.874 174.258  0.00  0.00    -0.391 OA
ATOM    117  S2  SGN d 305     -22.923  52.235 167.490  0.00  0.00     0.251 S 
ATOM    118  O6S SGN d 305     -21.961  51.490 166.695  0.00  0.00    -0.572 OA
ATOM    119  C5  SGN d 305     -21.580  51.084 170.998  0.00  0.00     0.090 C 
ATOM    120  O4S SGN d 305     -24.274  51.724 167.397  0.00  0.00    -0.572 OA
ATOM    121  C6  SGN d 305     -22.013  50.838 169.550  0.00  0.00     0.067 C 
ATOM    122  N   SGN d 305     -20.714  53.321 174.534  0.00  0.00    -0.210 NA
ATOM    123  O2S SGN d 305     -21.401  55.704 174.416  0.00  0.00    -0.296 OA
ATOM    124  O3S SGN d 305     -19.737  54.992 175.979  0.00  0.00    -0.296 OA
ATOM    125  C4  SGN d 305     -22.743  51.327 171.972  0.00  0.00     0.089 C 
ATOM    126  O4  SGN d 305     -23.535  50.156 172.102  0.00  0.00    -0.390 OA
ATOM    127  C3  SGN d 305     -22.156  51.626 173.367  0.00  0.00     0.083 C 
ATOM    128  H   SGN d 305     -21.850  53.688 172.866  0.00  0.00     0.076 H 
ATOM    129  H   SGN d 305     -19.685  55.013 172.763  0.00  0.00     0.231 HD
ATOM    130  H   SGN d 305     -19.473  53.378 172.131  0.00  0.00     0.131 H 
ATOM    131  H   SGN d 305     -22.880  52.065 175.143  0.00  0.00     0.210 HD
ATOM    132  H   SGN d 305     -21.109  50.195 171.362  0.00  0.00     0.090 H 
ATOM    133  H   SGN d 305     -21.165  50.533 168.973  0.00  0.00     0.080 H 
ATOM    134  H   SGN d 305     -22.759  50.071 169.533  0.00  0.00     0.080 H 
ATOM    135  H   SGN d 305     -19.899  52.743 174.739  0.00  0.00     0.140 HD
ATOM    136  H   SGN d 305     -21.703  55.583 173.502  0.00  0.00     0.231 HD
ATOM    137  H   SGN d 305     -18.965  54.413 176.076  0.00  0.00     0.231 HD
ATOM    138  H   SGN d 305     -23.338  52.135 171.601  0.00  0.00     0.091 H 
ATOM    139  H   SGN d 305     -22.986  49.430 172.439  0.00  0.00     0.210 HD
ATOM    140  H   SGN d 305     -21.577  50.806 173.741  0.00  0.00     0.089 H 
ENDROOT
TORSDOF 45
ENDMDL
MODEL 17
REMARK VINA RESULT:      -8.6      3.200     13.167
REMARK  0 active torsions:
REMARK  status: ('A' for Active; 'I' for Inactive)
REMARK       I    between atoms: C6_1  and  C5_56 
REMARK       I    between atoms: O3_2  and  C3_19 
REMARK       I    between atoms: C2_3  and  N_45 
REMARK       I    between atoms: S1_4  and  N_72 
REMARK       I    between atoms: S1_4  and  O1S_74 
REMARK       I    between atoms: S1_4  and  O2S_20 
REMARK       I    between atoms: S1_4  and  O3S_35 
REMARK       I    between atoms: C5_5  and  C6_27 
REMARK       I    between atoms: C3_7  and  O3_15 
REMARK       I    between atoms: O2S_10  and  S1_60 
REMARK       I    between atoms: O6_11  and  C6_27 
REMARK       I    between atoms: O6_11  and  S2_67 
REMARK       I    between atoms: C4_14  and  O4_71 
REMARK       I    between atoms: C4_16  and  O4_81 
REMARK       I    between atoms: C6_18  and  C5_53 
REMARK       I    between atoms: O2_21  and  C2_30 
REMARK       I    between atoms: O2_21  and  S_68 
REMARK       I    between atoms: O6_22  and  C6_61 
REMARK       I    between atoms: O6_22  and  S2_47 
REMARK       I    between atoms: O1_23  and  C1_86 
REMARK       I    between atoms: O6_24  and  C6_57 
REMARK       I    between atoms: O6_24  and  S2_89 
REMARK       I    between atoms: C4_25  and  O4_85 
REMARK       I    between atoms: C2_26  and  N_73 
REMARK       I    between atoms: C2_28  and  N_72 
REMARK       I    between atoms: O1S_32  and  S1_37 
REMARK       I    between atoms: S1_37  and  N_73 
REMARK       I    between atoms: S1_37  and  O2S_78 
REMARK       I    between atoms: S1_37  and  O3S_82 
REMARK       I    between atoms: C1_39  and  O4_71 
REMARK       I    between atoms: S_41  and  O2_63 
REMARK       I    between atoms: O3_43  and  C3_88 
REMARK       I    between atoms: O1S_44  and  S1_60 
REMARK       I    between atoms: N_45  and  S1_60 
REMARK       I    between atoms: C1_46  and  O4_85 
REMARK       I    between atoms: O4_48  and  C4_54 
REMARK       I    between atoms: O4_48  and  C1_90 
REMARK       I    between atoms: O3_49  and  C3_77 
REMARK       I    between atoms: C5_52  and  C6_61 
REMARK       I    between atoms: C6_57  and  C5_79 
REMARK       I    between atoms: C2_58  and  O2_63 
REMARK       I    between atoms: S1_60  and  O3S_75 
REMARK       I    between atoms: C3_64  and  O3_80 
REMARK       I    between atoms: O4_81  and  C1_84 
REMARK       I    between atoms: C4_83  and  O4_87 
ROOT
ATOM      1  C6  IDS d 304     -17.761  44.703 174.126  0.00  0.00     0.206 C 
ATOM      2  O61 IDS d 304     -18.081  44.522 175.284  0.00  0.00    -0.646 OA
ATOM      3  C4  IDS d 304     -17.706  46.680 172.642  0.00  0.00     0.103 C 
ATOM      4  O2  IDS d 304     -17.527  49.367 174.160  0.00  0.00    -0.244 OA
ATOM      5  O62 IDS d 304     -18.055  43.887 173.306  0.00  0.00    -0.646 OA
ATOM      6  C2  IDS d 304     -16.439  48.682 173.598  0.00  0.00     0.134 C 
ATOM      7  O1S IDS d 304     -17.357  51.737 173.929  0.00  0.00    -0.572 OA
ATOM      8  O3  IDS d 304     -15.833  47.584 171.535  0.00  0.00    -0.390 OA
ATOM      9  C5  IDS d 304     -17.025  45.902 173.736  0.00  0.00     0.152 C 
ATOM     10  O5  IDS d 304     -16.788  46.670 174.871  0.00  0.00    -0.340 OA
ATOM     11  O2S IDS d 304     -18.737  50.736 175.583  0.00  0.00    -0.572 OA
ATOM     12  O3S IDS d 304     -16.418  50.749 175.865  0.00  0.00    -0.572 OA
ATOM     13  S   IDS d 304     -17.486  50.718 174.929  0.00  0.00     0.252 S 
ATOM     14  O4  IDS d 304     -18.980  47.026 173.071  0.00  0.00    -0.348 OA
ATOM     15  C3  IDS d 304     -16.935  47.952 172.319  0.00  0.00     0.094 C 
ATOM     16  C1  IDS d 304     -15.867  47.723 174.649  0.00  0.00     0.161 C 
ATOM     17  H   IDS d 304     -17.749  46.074 171.760  0.00  0.00     0.092 H 
ATOM     18  H   IDS d 304     -15.651  49.345 173.310  0.00  0.00     0.097 H 
ATOM     19  H   IDS d 304     -16.142  47.128 170.736  0.00  0.00     0.210 HD
ATOM     20  H   IDS d 304     -16.089  45.606 173.309  0.00  0.00     0.104 H 
ATOM     21  H   IDS d 304     -17.582  48.631 171.805  0.00  0.00     0.091 H 
ATOM     22  H   IDS d 304     -15.719  48.220 175.585  0.00  0.00     0.133 H 
ATOM     23  O3  SGN d 303     -13.642  44.508 174.055  0.00  0.00    -0.391 OA
ATOM     24  S1  SGN d 303     -10.267  43.008 175.642  0.00  0.00     0.156 S 
ATOM     25  O5S SGN d 303     -15.114  48.158 179.644  0.00  0.00    -0.572 OA
ATOM     26  C4  SGN d 303     -13.752  46.689 175.140  0.00  0.00     0.095 C 
ATOM     27  C3  SGN d 303     -12.856  45.615 174.417  0.00  0.00     0.083 C 
ATOM     28  O2S SGN d 303     -11.410  42.220 175.981  0.00  0.00    -0.296 OA
ATOM     29  O6  SGN d 303     -14.118  48.349 177.497  0.00  0.00    -0.254 OA
ATOM     30  C2  SGN d 303     -11.759  45.133 175.378  0.00  0.00     0.081 C 
ATOM     31  O3S SGN d 303      -9.329  42.334 174.836  0.00  0.00    -0.296 OA
ATOM     32  O5  SGN d 303     -11.851  47.232 176.551  0.00  0.00    -0.349 OA
ATOM     33  C1  SGN d 303     -10.967  46.316 175.927  0.00  0.00     0.150 C 
ATOM     34  O4S SGN d 303     -15.250  50.229 178.449  0.00  0.00    -0.572 OA
ATOM     35  C6  SGN d 303     -13.484  48.902 176.403  0.00  0.00     0.067 C 
ATOM     36  O6S SGN d 303     -13.133  49.519 179.358  0.00  0.00    -0.572 OA
ATOM     37  N   SGN d 303     -10.843  44.199 174.726  0.00  0.00    -0.210 NA
ATOM     38  O1S SGN d 303      -9.681  43.611 176.814  0.00  0.00    -0.296 OA
ATOM     39  C5  SGN d 303     -12.815  47.784 175.665  0.00  0.00     0.091 C 
ATOM     40  O4  SGN d 303     -14.618  47.259 174.203  0.00  0.00    -0.348 OA
ATOM     41  S2  SGN d 303     -14.420  49.114 178.814  0.00  0.00     0.251 S 
ATOM     42  H   SGN d 303     -14.342  44.793 173.447  0.00  0.00     0.210 HD
ATOM     43  H   SGN d 303     -14.317  46.245 175.933  0.00  0.00     0.091 H 
ATOM     44  H   SGN d 303     -12.420  46.056 173.545  0.00  0.00     0.089 H 
ATOM     45  H   SGN d 303     -12.011  42.744 176.534  0.00  0.00     0.231 HD
ATOM     46  H   SGN d 303     -12.247  44.624 176.183  0.00  0.00     0.076 H 
ATOM     47  H   SGN d 303      -8.583  42.924 174.645  0.00  0.00     0.231 HD
ATOM     48  H   SGN d 303     -10.262  46.005 176.670  0.00  0.00     0.131 H 
ATOM     49  H   SGN d 303     -12.756  49.617 176.724  0.00  0.00     0.080 H 
ATOM     50  H   SGN d 303     -14.186  49.406 175.772  0.00  0.00     0.080 H 
ATOM     51  H   SGN d 303     -11.338  43.775 173.942  0.00  0.00     0.140 HD
ATOM     52  H   SGN d 303     -10.372  44.059 177.327  0.00  0.00     0.231 HD
ATOM     53  H   SGN d 303     -12.380  48.192 174.776  0.00  0.00     0.090 H 
ATOM     54  C2  SGN d 301      -6.040  52.445 171.666  0.00  0.00     0.081 C 
ATOM     55  C5  SGN d 301      -5.540  49.743 171.116  0.00  0.00     0.091 C 
ATOM     56  O6S SGN d 301      -5.081  48.334 167.881  0.00  0.00    -0.572 OA
ATOM     57  C3  SGN d 301      -6.172  51.369 172.736  0.00  0.00     0.083 C 
ATOM     58  O2S SGN d 301      -7.847  54.591 172.878  0.00  0.00    -0.296 OA
ATOM     59  O6  SGN d 301      -6.740  48.473 169.578  0.00  0.00    -0.254 OA
ATOM     60  O3  SGN d 301      -7.099  51.752 173.726  0.00  0.00    -0.391 OA
ATOM     61  O1  SGN d 301      -3.725  51.899 171.217  0.00  0.00    -0.369 OA
ATOM     62  C6  SGN d 301      -5.708  48.394 170.473  0.00  0.00     0.067 C 
ATOM     63  O5S SGN d 301      -7.016  49.813 167.646  0.00  0.00    -0.572 OA
ATOM     64  O4S SGN d 301      -7.301  47.429 167.516  0.00  0.00    -0.572 OA
ATOM     65  O1S SGN d 301      -6.986  55.110 170.642  0.00  0.00    -0.296 OA
ATOM     66  N   SGN d 301      -5.644  53.722 172.228  0.00  0.00    -0.210 NA
ATOM     67  O4  SGN d 301      -6.966  49.120 172.851  0.00  0.00    -0.348 OA
ATOM     68  C4  SGN d 301      -6.679  50.154 171.985  0.00  0.00     0.095 C 
ATOM     69  S1  SGN d 301      -6.695  54.964 172.077  0.00  0.00     0.156 S 
ATOM     70  S2  SGN d 301      -6.517  48.519 168.066  0.00  0.00     0.251 S 
ATOM     71  O3S SGN d 301      -6.008  56.092 172.658  0.00  0.00    -0.296 OA
ATOM     72  O5  SGN d 301      -5.380  50.715 170.110  0.00  0.00    -0.350 OA
ATOM     73  C1  SGN d 301      -5.024  51.974 170.623  0.00  0.00     0.147 C 
ATOM     74  H   SGN d 301      -6.996  52.596 171.208  0.00  0.00     0.076 H 
ATOM     75  H   SGN d 301      -4.680  49.666 171.746  0.00  0.00     0.090 H 
ATOM     76  H   SGN d 301      -5.246  51.190 173.242  0.00  0.00     0.089 H 
ATOM     77  H   SGN d 301      -8.293  53.832 172.469  0.00  0.00     0.231 HD
ATOM     78  H   SGN d 301      -7.959  51.926 173.314  0.00  0.00     0.210 HD
ATOM     79  H   SGN d 301      -3.480  52.769 171.570  0.00  0.00     0.212 HD
ATOM     80  H   SGN d 301      -5.932  47.661 171.220  0.00  0.00     0.080 H 
ATOM     81  H   SGN d 301      -4.807  48.107 169.973  0.00  0.00     0.080 H 
ATOM     82  H   SGN d 301      -7.447  54.317 170.323  0.00  0.00     0.231 HD
ATOM     83  H   SGN d 301      -4.774  54.000 171.774  0.00  0.00     0.140 HD
ATOM     84  H   SGN d 301      -7.573  50.379 171.443  0.00  0.00     0.091 H 
ATOM     85  H   SGN d 301      -6.574  56.878 172.606  0.00  0.00     0.231 HD
ATOM     86  H   SGN d 301      -5.014  52.678 169.818  0.00  0.00     0.131 H 
ATOM     87  O1S IDS d 302      -9.783  44.102 172.240  0.00  0.00    -0.572 OA
ATOM     88  O2S IDS d 302      -9.353  44.836 170.029  0.00  0.00    -0.572 OA
ATOM     89  O62 IDS d 302      -9.370  49.413 176.951  0.00  0.00    -0.646 OA
ATOM     90  C6  IDS d 302      -9.529  49.557 175.750  0.00  0.00     0.206 C 
ATOM     91  C4  IDS d 302      -8.930  47.238 175.060  0.00  0.00     0.103 C 
ATOM     92  S   IDS d 302      -8.926  44.845 171.384  0.00  0.00     0.252 S 
ATOM     93  O3S IDS d 302      -7.579  44.451 171.543  0.00  0.00    -0.572 OA
ATOM     94  C5  IDS d 302      -8.791  48.700 174.791  0.00  0.00     0.152 C 
ATOM     95  C2  IDS d 302      -8.002  46.985 172.656  0.00  0.00     0.134 C 
ATOM     96  O2  IDS d 302      -8.990  46.319 171.894  0.00  0.00    -0.244 OA
ATOM     97  C3  IDS d 302      -8.033  46.426 174.090  0.00  0.00     0.094 C 
ATOM     98  O61 IDS d 302     -10.297  50.415 175.348  0.00  0.00    -0.646 OA
ATOM     99  O5  IDS d 302      -9.172  48.954 173.475  0.00  0.00    -0.340 OA
ATOM    100  O3  IDS d 302      -6.718  46.440 174.598  0.00  0.00    -0.390 OA
ATOM    101  O4  IDS d 302     -10.270  46.899 174.851  0.00  0.00    -0.348 OA
ATOM    102  C1  IDS d 302      -8.194  48.507 172.567  0.00  0.00     0.161 C 
ATOM    103  H   IDS d 302      -8.629  47.014 176.062  0.00  0.00     0.092 H 
ATOM    104  H   IDS d 302      -7.763  48.961 174.929  0.00  0.00     0.104 H 
ATOM    105  H   IDS d 302      -7.021  46.804 172.269  0.00  0.00     0.097 H 
ATOM    106  H   IDS d 302      -8.445  45.440 174.031  0.00  0.00     0.091 H 
ATOM    107  H   IDS d 302      -6.395  47.354 174.631  0.00  0.00     0.210 HD
ATOM    108  H   IDS d 302      -8.526  48.763 171.582  0.00  0.00     0.133 H 
ATOM    109  O6  SGN d 305     -21.820  43.403 171.133  0.00  0.00    -0.254 OA
ATOM    110  C2  SGN d 305     -21.263  47.594 172.691  0.00  0.00     0.081 C 
ATOM    111  O1S SGN d 305     -20.220  49.651 170.754  0.00  0.00    -0.296 OA
ATOM    112  O5  SGN d 305     -20.297  45.604 171.721  0.00  0.00    -0.349 OA
ATOM    113  S1  SGN d 305     -21.138  50.077 171.766  0.00  0.00     0.156 S 
ATOM    114  O5S SGN d 305     -22.520  42.787 168.860  0.00  0.00    -0.572 OA
ATOM    115  C1  SGN d 305     -20.008  46.950 172.106  0.00  0.00     0.150 C 
ATOM    116  O3  SGN d 305     -22.837  47.337 174.535  0.00  0.00    -0.391 OA
ATOM    117  S2  SGN d 305     -22.129  42.213 170.144  0.00  0.00     0.251 S 
ATOM    118  O6S SGN d 305     -20.907  41.438 170.014  0.00  0.00    -0.572 OA
ATOM    119  C5  SGN d 305     -20.756  44.756 172.805  0.00  0.00     0.090 C 
ATOM    120  O4S SGN d 305     -23.204  41.498 170.798  0.00  0.00    -0.572 OA
ATOM    121  C6  SGN d 305     -20.958  43.351 172.231  0.00  0.00     0.067 C 
ATOM    122  N   SGN d 305     -21.015  49.017 172.997  0.00  0.00    -0.210 NA
ATOM    123  O2S SGN d 305     -22.480  50.020 171.262  0.00  0.00    -0.296 OA
ATOM    124  O3S SGN d 305     -20.803  51.333 172.349  0.00  0.00    -0.296 OA
ATOM    125  C4  SGN d 305     -22.005  45.349 173.475  0.00  0.00     0.089 C 
ATOM    126  O4  SGN d 305     -22.346  44.608 174.636  0.00  0.00    -0.390 OA
ATOM    127  C3  SGN d 305     -21.674  46.782 173.940  0.00  0.00     0.083 C 
ATOM    128  H   SGN d 305     -22.068  47.576 171.988  0.00  0.00     0.076 H 
ATOM    129  H   SGN d 305     -20.503  48.793 170.400  0.00  0.00     0.231 HD
ATOM    130  H   SGN d 305     -19.682  47.465 171.227  0.00  0.00     0.131 H 
ATOM    131  H   SGN d 305     -22.647  48.240 174.835  0.00  0.00     0.210 HD
ATOM    132  H   SGN d 305     -20.035  44.695 173.593  0.00  0.00     0.090 H 
ATOM    133  H   SGN d 305     -20.013  42.956 171.921  0.00  0.00     0.080 H 
ATOM    134  H   SGN d 305     -21.385  42.722 172.984  0.00  0.00     0.080 H 
ATOM    135  H   SGN d 305     -20.068  49.089 173.371  0.00  0.00     0.140 HD
ATOM    136  H   SGN d 305     -22.646  49.144 170.880  0.00  0.00     0.231 HD
ATOM    137  H   SGN d 305     -19.889  51.308 172.670  0.00  0.00     0.231 HD
ATOM    138  H   SGN d 305     -22.813  45.327 172.773  0.00  0.00     0.091 H 
ATOM    139  H   SGN d 305     -21.607  44.635 175.265  0.00  0.00     0.210 HD
ATOM    140  H   SGN d 305     -20.878  46.796 174.655  0.00  0.00     0.089 H 
ENDROOT
TORSDOF 45
ENDMDL
MODEL 18
REMARK VINA RESULT:      -8.5      2.094     13.098
REMARK  0 active torsions:
REMARK  status: ('A' for Active; 'I' for Inactive)
REMARK       I    between atoms: C6_1  and  C5_56 
REMARK       I    between atoms: O3_2  and  C3_19 
REMARK       I    between atoms: C2_3  and  N_45 
REMARK       I    between atoms: S1_4  and  N_72 
REMARK       I    between atoms: S1_4  and  O1S_74 
REMARK       I    between atoms: S1_4  and  O2S_20 
REMARK       I    between atoms: S1_4  and  O3S_35 
REMARK       I    between atoms: C5_5  and  C6_27 
REMARK       I    between atoms: C3_7  and  O3_15 
REMARK       I    between atoms: O2S_10  and  S1_60 
REMARK       I    between atoms: O6_11  and  C6_27 
REMARK       I    between atoms: O6_11  and  S2_67 
REMARK       I    between atoms: C4_14  and  O4_71 
REMARK       I    between atoms: C4_16  and  O4_81 
REMARK       I    between atoms: C6_18  and  C5_53 
REMARK       I    between atoms: O2_21  and  C2_30 
REMARK       I    between atoms: O2_21  and  S_68 
REMARK       I    between atoms: O6_22  and  C6_61 
REMARK       I    between atoms: O6_22  and  S2_47 
REMARK       I    between atoms: O1_23  and  C1_86 
REMARK       I    between atoms: O6_24  and  C6_57 
REMARK       I    between atoms: O6_24  and  S2_89 
REMARK       I    between atoms: C4_25  and  O4_85 
REMARK       I    between atoms: C2_26  and  N_73 
REMARK       I    between atoms: C2_28  and  N_72 
REMARK       I    between atoms: O1S_32  and  S1_37 
REMARK       I    between atoms: S1_37  and  N_73 
REMARK       I    between atoms: S1_37  and  O2S_78 
REMARK       I    between atoms: S1_37  and  O3S_82 
REMARK       I    between atoms: C1_39  and  O4_71 
REMARK       I    between atoms: S_41  and  O2_63 
REMARK       I    between atoms: O3_43  and  C3_88 
REMARK       I    between atoms: O1S_44  and  S1_60 
REMARK       I    between atoms: N_45  and  S1_60 
REMARK       I    between atoms: C1_46  and  O4_85 
REMARK       I    between atoms: O4_48  and  C4_54 
REMARK       I    between atoms: O4_48  and  C1_90 
REMARK       I    between atoms: O3_49  and  C3_77 
REMARK       I    between atoms: C5_52  and  C6_61 
REMARK       I    between atoms: C6_57  and  C5_79 
REMARK       I    between atoms: C2_58  and  O2_63 
REMARK       I    between atoms: S1_60  and  O3S_75 
REMARK       I    between atoms: C3_64  and  O3_80 
REMARK       I    between atoms: O4_81  and  C1_84 
REMARK       I    between atoms: C4_83  and  O4_87 
ROOT
ATOM      1  C6  IDS d 304     -21.991  46.857 172.000  0.00  0.00     0.206 C 
ATOM      2  O61 IDS d 304     -22.741  47.053 172.935  0.00  0.00    -0.646 OA
ATOM      3  C4  IDS d 304     -20.773  48.330 170.430  0.00  0.00     0.103 C 
ATOM      4  O2  IDS d 304     -20.282  51.178 171.527  0.00  0.00    -0.244 OA
ATOM      5  O62 IDS d 304     -22.222  45.963 171.245  0.00  0.00    -0.646 OA
ATOM      6  C2  IDS d 304     -19.351  50.128 171.557  0.00  0.00     0.134 C 
ATOM      7  O1S IDS d 304     -19.281  53.300 171.082  0.00  0.00    -0.572 OA
ATOM      8  O3  IDS d 304     -18.445  48.440 170.088  0.00  0.00    -0.390 OA
ATOM      9  C5  IDS d 304     -20.817  47.702 171.797  0.00  0.00     0.152 C 
ATOM     10  O5  IDS d 304     -20.762  48.644 172.820  0.00  0.00    -0.340 OA
ATOM     11  O2S IDS d 304     -21.403  53.112 172.134  0.00  0.00    -0.572 OA
ATOM     12  O3S IDS d 304     -19.467  52.620 173.343  0.00  0.00    -0.572 OA
ATOM     13  S   IDS d 304     -20.081  52.624 172.062  0.00  0.00     0.252 S 
ATOM     14  O4  IDS d 304     -21.930  49.074 170.246  0.00  0.00    -0.348 OA
ATOM     15  C3  IDS d 304     -19.570  49.251 170.293  0.00  0.00     0.094 C 
ATOM     16  C1  IDS d 304     -19.534  49.348 172.864  0.00  0.00     0.161 C 
ATOM     17  H   IDS d 304     -20.695  47.555 169.695  0.00  0.00     0.092 H 
ATOM     18  H   IDS d 304     -18.343  50.484 171.537  0.00  0.00     0.097 H 
ATOM     19  H   IDS d 304     -18.581  47.892 169.299  0.00  0.00     0.210 HD
ATOM     20  H   IDS d 304     -19.942  47.089 171.837  0.00  0.00     0.104 H 
ATOM     21  H   IDS d 304     -19.734  49.920 169.475  0.00  0.00     0.091 H 
ATOM     22  H   IDS d 304     -19.575  50.009 173.705  0.00  0.00     0.133 H 
ATOM     23  O3  SGN d 303     -18.417  45.639 173.661  0.00  0.00    -0.391 OA
ATOM     24  S1  SGN d 303     -16.508  43.792 176.678  0.00  0.00     0.156 S 
ATOM     25  O5S SGN d 303     -20.505  50.804 177.622  0.00  0.00    -0.572 OA
ATOM     26  C4  SGN d 303     -18.190  47.978 174.313  0.00  0.00     0.095 C 
ATOM     27  C3  SGN d 303     -17.497  46.571 174.168  0.00  0.00     0.083 C 
ATOM     28  O2S SGN d 303     -17.887  43.420 176.614  0.00  0.00    -0.296 OA
ATOM     29  O6  SGN d 303     -18.808  50.206 176.073  0.00  0.00    -0.254 OA
ATOM     30  C2  SGN d 303     -17.033  46.086 175.550  0.00  0.00     0.081 C 
ATOM     31  O3S SGN d 303     -15.619  42.729 176.425  0.00  0.00    -0.296 OA
ATOM     32  O5  SGN d 303     -16.848  48.365 176.300  0.00  0.00    -0.349 OA
ATOM     33  C1  SGN d 303     -16.149  47.134 176.220  0.00  0.00     0.150 C 
ATOM     34  O4S SGN d 303     -19.527  52.482 176.222  0.00  0.00    -0.572 OA
ATOM     35  C6  SGN d 303     -17.685  50.297 175.277  0.00  0.00     0.067 C 
ATOM     36  O6S SGN d 303     -18.225  51.519 178.008  0.00  0.00    -0.572 OA
ATOM     37  N   SGN d 303     -16.302  44.824 175.461  0.00  0.00    -0.210 NA
ATOM     38  O1S SGN d 303     -16.214  44.502 177.899  0.00  0.00    -0.296 OA
ATOM     39  C5  SGN d 303     -17.199  48.902 175.032  0.00  0.00     0.091 C 
ATOM     40  O4  SGN d 303     -18.431  48.494 173.037  0.00  0.00    -0.348 OA
ATOM     41  S2  SGN d 303     -19.291  51.322 177.037  0.00  0.00     0.251 S 
ATOM     42  H   SGN d 303     -18.723  45.929 172.787  0.00  0.00     0.210 HD
ATOM     43  H   SGN d 303     -19.111  47.898 174.852  0.00  0.00     0.091 H 
ATOM     44  H   SGN d 303     -16.662  46.662 173.505  0.00  0.00     0.089 H 
ATOM     45  H   SGN d 303     -18.439  44.196 176.797  0.00  0.00     0.231 HD
ATOM     46  H   SGN d 303     -17.911  45.929 176.140  0.00  0.00     0.076 H 
ATOM     47  H   SGN d 303     -14.706  43.050 176.485  0.00  0.00     0.231 HD
ATOM     48  H   SGN d 303     -15.895  46.853 177.221  0.00  0.00     0.131 H 
ATOM     49  H   SGN d 303     -16.928  50.866 175.775  0.00  0.00     0.080 H 
ATOM     50  H   SGN d 303     -17.913  50.787 174.353  0.00  0.00     0.080 H 
ATOM     51  H   SGN d 303     -16.595  44.355 174.604  0.00  0.00     0.140 HD
ATOM     52  H   SGN d 303     -16.857  45.218 178.019  0.00  0.00     0.231 HD
ATOM     53  H   SGN d 303     -16.370  48.958 174.357  0.00  0.00     0.090 H 
ATOM     54  C2  SGN d 301      -8.327  50.607 173.621  0.00  0.00     0.081 C 
ATOM     55  C5  SGN d 301      -8.571  47.816 173.679  0.00  0.00     0.091 C 
ATOM     56  O6S SGN d 301      -7.478  45.583 171.133  0.00  0.00    -0.572 OA
ATOM     57  C3  SGN d 301      -9.171  49.896 174.670  0.00  0.00     0.083 C 
ATOM     58  O2S SGN d 301      -9.644  53.364 173.692  0.00  0.00    -0.296 OA
ATOM     59  O6  SGN d 301      -9.490  46.543 171.961  0.00  0.00    -0.254 OA
ATOM     60  O3  SGN d 301     -10.211  50.728 175.131  0.00  0.00    -0.391 OA
ATOM     61  O1  SGN d 301      -6.315  49.412 174.241  0.00  0.00    -0.369 OA
ATOM     62  C6  SGN d 301      -8.928  46.435 173.204  0.00  0.00     0.067 C 
ATOM     63  O5S SGN d 301      -8.611  47.389 169.933  0.00  0.00    -0.572 OA
ATOM     64  O4S SGN d 301      -9.589  45.193 170.005  0.00  0.00    -0.572 OA
ATOM     65  O1S SGN d 301      -7.928  53.085 171.963  0.00  0.00    -0.296 OA
ATOM     66  N   SGN d 301      -7.764  51.844 174.126  0.00  0.00    -0.210 NA
ATOM     67  O4  SGN d 301     -10.639  48.013 174.735  0.00  0.00    -0.348 OA
ATOM     68  C4  SGN d 301      -9.744  48.697 173.940  0.00  0.00     0.095 C 
ATOM     69  S1  SGN d 301      -8.229  53.231 173.397  0.00  0.00     0.156 S 
ATOM     70  S2  SGN d 301      -8.743  46.157 170.684  0.00  0.00     0.251 S 
ATOM     71  O3S SGN d 301      -7.466  54.261 174.058  0.00  0.00    -0.296 OA
ATOM     72  O5  SGN d 301      -7.758  48.439 172.713  0.00  0.00    -0.350 OA
ATOM     73  C1  SGN d 301      -7.219  49.656 173.160  0.00  0.00     0.147 C 
ATOM     74  H   SGN d 301      -8.953  50.871 172.794  0.00  0.00     0.076 H 
ATOM     75  H   SGN d 301      -8.065  47.687 174.613  0.00  0.00     0.090 H 
ATOM     76  H   SGN d 301      -8.598  49.624 175.531  0.00  0.00     0.089 H 
ATOM     77  H   SGN d 301     -10.137  52.662 173.237  0.00  0.00     0.231 HD
ATOM     78  H   SGN d 301     -10.763  51.003 174.382  0.00  0.00     0.210 HD
ATOM     79  H   SGN d 301      -5.944  50.254 174.549  0.00  0.00     0.212 HD
ATOM     80  H   SGN d 301      -9.628  45.988 173.880  0.00  0.00     0.080 H 
ATOM     81  H   SGN d 301      -8.054  45.820 173.162  0.00  0.00     0.080 H 
ATOM     82  H   SGN d 301      -8.476  52.377 171.588  0.00  0.00     0.231 HD
ATOM     83  H   SGN d 301      -6.750  51.778 174.040  0.00  0.00     0.140 HD
ATOM     84  H   SGN d 301     -10.263  48.995 173.053  0.00  0.00     0.091 H 
ATOM     85  H   SGN d 301      -7.689  55.125 173.677  0.00  0.00     0.231 HD
ATOM     86  H   SGN d 301      -6.696  50.115 172.347  0.00  0.00     0.131 H 
ATOM     87  O1S IDS d 302     -14.522  43.857 173.669  0.00  0.00    -0.572 OA
ATOM     88  O2S IDS d 302     -13.122  43.892 171.758  0.00  0.00    -0.572 OA
ATOM     89  O62 IDS d 302     -14.106  49.895 177.403  0.00  0.00    -0.646 OA
ATOM     90  C6  IDS d 302     -13.773  49.773 176.236  0.00  0.00     0.206 C 
ATOM     91  C4  IDS d 302     -13.756  47.281 176.160  0.00  0.00     0.103 C 
ATOM     92  S   IDS d 302     -13.225  44.129 173.155  0.00  0.00     0.252 S 
ATOM     93  O3S IDS d 302     -12.229  43.467 173.905  0.00  0.00    -0.572 OA
ATOM     94  C5  IDS d 302     -13.064  48.550 175.786  0.00  0.00     0.152 C 
ATOM     95  C2  IDS d 302     -12.171  46.221 174.408  0.00  0.00     0.134 C 
ATOM     96  O2  IDS d 302     -12.984  45.653 173.398  0.00  0.00    -0.244 OA
ATOM     97  C3  IDS d 302     -12.889  46.059 175.760  0.00  0.00     0.094 C 
ATOM     98  O61 IDS d 302     -14.024  50.667 175.446  0.00  0.00    -0.646 OA
ATOM     99  O5  IDS d 302     -12.849  48.557 174.410  0.00  0.00    -0.340 OA
ATOM    100  O3  IDS d 302     -11.912  45.873 176.759  0.00  0.00    -0.390 OA
ATOM    101  O4  IDS d 302     -14.967  47.243 175.462  0.00  0.00    -0.348 OA
ATOM    102  C1  IDS d 302     -11.814  47.672 174.052  0.00  0.00     0.161 C 
ATOM    103  H   IDS d 302     -13.920  47.244 177.217  0.00  0.00     0.092 H 
ATOM    104  H   IDS d 302     -12.127  48.575 176.301  0.00  0.00     0.104 H 
ATOM    105  H   IDS d 302     -11.233  45.713 174.487  0.00  0.00     0.097 H 
ATOM    106  H   IDS d 302     -13.549  45.222 175.664  0.00  0.00     0.091 H 
ATOM    107  H   IDS d 302     -11.344  46.657 176.804  0.00  0.00     0.210 HD
ATOM    108  H   IDS d 302     -11.673  47.751 172.994  0.00  0.00     0.133 H 
ATOM    109  O6  SGN d 305     -24.909  45.903 167.794  0.00  0.00    -0.254 OA
ATOM    110  C2  SGN d 305     -23.612  50.078 168.889  0.00  0.00     0.081 C 
ATOM    111  O1S SGN d 305     -21.342  51.268 167.307  0.00  0.00    -0.296 OA
ATOM    112  O5  SGN d 305     -23.067  47.734 168.669  0.00  0.00    -0.349 OA
ATOM    113  S1  SGN d 305     -22.368  52.144 167.786  0.00  0.00     0.156 S 
ATOM    114  O5S SGN d 305     -24.917  44.938 165.535  0.00  0.00    -0.572 OA
ATOM    115  C1  SGN d 305     -22.514  49.020 168.962  0.00  0.00     0.150 C 
ATOM    116  O3  SGN d 305     -25.730  50.680 169.935  0.00  0.00    -0.391 OA
ATOM    117  S2  SGN d 305     -25.216  44.620 166.927  0.00  0.00     0.251 S 
ATOM    118  O6S SGN d 305     -24.350  43.560 167.415  0.00  0.00    -0.572 OA
ATOM    119  C5  SGN d 305     -24.130  47.321 169.566  0.00  0.00     0.090 C 
ATOM    120  O4S SGN d 305     -26.622  44.378 167.166  0.00  0.00    -0.572 OA
ATOM    121  C6  SGN d 305     -24.559  45.913 169.146  0.00  0.00     0.067 C 
ATOM    122  N   SGN d 305     -23.041  51.425 169.084  0.00  0.00    -0.210 NA
ATOM    123  O2S SGN d 305     -23.384  52.298 166.785  0.00  0.00    -0.296 OA
ATOM    124  O3S SGN d 305     -21.874  53.383 168.288  0.00  0.00    -0.296 OA
ATOM    125  C4  SGN d 305     -25.270  48.351 169.578  0.00  0.00     0.089 C 
ATOM    126  O4  SGN d 305     -26.221  48.028 170.581  0.00  0.00    -0.390 OA
ATOM    127  C3  SGN d 305     -24.679  49.727 169.949  0.00  0.00     0.083 C 
ATOM    128  H   SGN d 305     -24.075  50.086 167.924  0.00  0.00     0.076 H 
ATOM    129  H   SGN d 305     -21.744  50.447 166.982  0.00  0.00     0.231 HD
ATOM    130  H   SGN d 305     -21.749  49.205 168.237  0.00  0.00     0.131 H 
ATOM    131  H   SGN d 305     -25.377  51.554 170.167  0.00  0.00     0.210 HD
ATOM    132  H   SGN d 305     -23.797  47.280 170.582  0.00  0.00     0.090 H 
ATOM    133  H   SGN d 305     -23.750  45.232 169.308  0.00  0.00     0.080 H 
ATOM    134  H   SGN d 305     -25.405  45.615 169.730  0.00  0.00     0.080 H 
ATOM    135  H   SGN d 305     -22.321  51.351 169.802  0.00  0.00     0.140 HD
ATOM    136  H   SGN d 305     -23.679  51.423 166.485  0.00  0.00     0.231 HD
ATOM    137  H   SGN d 305     -21.194  53.212 168.958  0.00  0.00     0.231 HD
ATOM    138  H   SGN d 305     -25.737  48.357 168.615  0.00  0.00     0.091 H 
ATOM    139  H   SGN d 305     -25.788  48.026 171.449  0.00  0.00     0.210 HD
ATOM    140  H   SGN d 305     -24.231  49.719 170.921  0.00  0.00     0.089 H 
ENDROOT
TORSDOF 45
ENDMDL
MODEL 19
REMARK VINA RESULT:      -8.5      7.075     11.033
REMARK  0 active torsions:
REMARK  status: ('A' for Active; 'I' for Inactive)
REMARK       I    between atoms: C6_1  and  C5_56 
REMARK       I    between atoms: O3_2  and  C3_19 
REMARK       I    between atoms: C2_3  and  N_45 
REMARK       I    between atoms: S1_4  and  N_72 
REMARK       I    between atoms: S1_4  and  O1S_74 
REMARK       I    between atoms: S1_4  and  O2S_20 
REMARK       I    between atoms: S1_4  and  O3S_35 
REMARK       I    between atoms: C5_5  and  C6_27 
REMARK       I    between atoms: C3_7  and  O3_15 
REMARK       I    between atoms: O2S_10  and  S1_60 
REMARK       I    between atoms: O6_11  and  C6_27 
REMARK       I    between atoms: O6_11  and  S2_67 
REMARK       I    between atoms: C4_14  and  O4_71 
REMARK       I    between atoms: C4_16  and  O4_81 
REMARK       I    between atoms: C6_18  and  C5_53 
REMARK       I    between atoms: O2_21  and  C2_30 
REMARK       I    between atoms: O2_21  and  S_68 
REMARK       I    between atoms: O6_22  and  C6_61 
REMARK       I    between atoms: O6_22  and  S2_47 
REMARK       I    between atoms: O1_23  and  C1_86 
REMARK       I    between atoms: O6_24  and  C6_57 
REMARK       I    between atoms: O6_24  and  S2_89 
REMARK       I    between atoms: C4_25  and  O4_85 
REMARK       I    between atoms: C2_26  and  N_73 
REMARK       I    between atoms: C2_28  and  N_72 
REMARK       I    between atoms: O1S_32  and  S1_37 
REMARK       I    between atoms: S1_37  and  N_73 
REMARK       I    between atoms: S1_37  and  O2S_78 
REMARK       I    between atoms: S1_37  and  O3S_82 
REMARK       I    between atoms: C1_39  and  O4_71 
REMARK       I    between atoms: S_41  and  O2_63 
REMARK       I    between atoms: O3_43  and  C3_88 
REMARK       I    between atoms: O1S_44  and  S1_60 
REMARK       I    between atoms: N_45  and  S1_60 
REMARK       I    between atoms: C1_46  and  O4_85 
REMARK       I    between atoms: O4_48  and  C4_54 
REMARK       I    between atoms: O4_48  and  C1_90 
REMARK       I    between atoms: O3_49  and  C3_77 
REMARK       I    between atoms: C5_52  and  C6_61 
REMARK       I    between atoms: C6_57  and  C5_79 
REMARK       I    between atoms: C2_58  and  O2_63 
REMARK       I    between atoms: S1_60  and  O3S_75 
REMARK       I    between atoms: C3_64  and  O3_80 
REMARK       I    between atoms: O4_81  and  C1_84 
REMARK       I    between atoms: C4_83  and  O4_87 
ROOT
ATOM      1  C6  IDS d 304     -19.166  56.776 170.128  0.00  0.00     0.206 C 
ATOM      2  O61 IDS d 304     -19.844  57.783 170.164  0.00  0.00    -0.646 OA
ATOM      3  C4  IDS d 304     -17.990  55.427 171.836  0.00  0.00     0.103 C 
ATOM      4  O2  IDS d 304     -19.145  55.755 174.685  0.00  0.00    -0.244 OA
ATOM      5  O62 IDS d 304     -18.387  56.630 169.236  0.00  0.00    -0.646 OA
ATOM      6  C2  IDS d 304     -19.454  54.709 173.803  0.00  0.00     0.134 C 
ATOM      7  O1S IDS d 304     -18.978  55.040 176.957  0.00  0.00    -0.572 OA
ATOM      8  O3  IDS d 304     -18.329  53.151 172.340  0.00  0.00    -0.390 OA
ATOM      9  C5  IDS d 304     -19.296  55.753 171.161  0.00  0.00     0.152 C 
ATOM     10  O5  IDS d 304     -20.279  56.150 172.062  0.00  0.00    -0.340 OA
ATOM     11  O2S IDS d 304     -19.379  57.311 176.385  0.00  0.00    -0.572 OA
ATOM     12  O3S IDS d 304     -21.100  55.745 176.176  0.00  0.00    -0.572 OA
ATOM     13  S   IDS d 304     -19.696  55.960 176.124  0.00  0.00     0.252 S 
ATOM     14  O4  IDS d 304     -17.474  56.592 172.386  0.00  0.00    -0.348 OA
ATOM     15  C3  IDS d 304     -18.192  54.408 172.947  0.00  0.00     0.094 C 
ATOM     16  C1  IDS d 304     -20.664  55.122 172.957  0.00  0.00     0.161 C 
ATOM     17  H   IDS d 304     -17.319  55.015 171.111  0.00  0.00     0.092 H 
ATOM     18  H   IDS d 304     -19.719  53.811 174.321  0.00  0.00     0.097 H 
ATOM     19  H   IDS d 304     -17.542  52.963 171.806  0.00  0.00     0.210 HD
ATOM     20  H   IDS d 304     -19.594  54.835 170.699  0.00  0.00     0.104 H 
ATOM     21  H   IDS d 304     -17.353  54.443 173.609  0.00  0.00     0.091 H 
ATOM     22  H   IDS d 304     -21.449  55.511 173.571  0.00  0.00     0.133 H 
ATOM     23  O3  SGN d 303     -21.796  53.672 169.457  0.00  0.00    -0.391 OA
ATOM     24  S1  SGN d 303     -25.258  52.418 167.843  0.00  0.00     0.156 S 
ATOM     25  O5S SGN d 303     -24.925  57.638 174.062  0.00  0.00    -0.572 OA
ATOM     26  C4  SGN d 303     -22.455  54.035 171.776  0.00  0.00     0.095 C 
ATOM     27  C3  SGN d 303     -22.534  53.104 170.509  0.00  0.00     0.083 C 
ATOM     28  O2S SGN d 303     -24.806  53.638 167.252  0.00  0.00    -0.296 OA
ATOM     29  O6  SGN d 303     -23.935  55.494 173.808  0.00  0.00    -0.254 OA
ATOM     30  C2  SGN d 303     -23.997  52.978 170.058  0.00  0.00     0.081 C 
ATOM     31  O3S SGN d 303     -25.285  51.329 166.951  0.00  0.00    -0.296 OA
ATOM     32  O5  SGN d 303     -24.738  53.400 172.308  0.00  0.00    -0.349 OA
ATOM     33  C1  SGN d 303     -24.878  52.510 171.213  0.00  0.00     0.150 C 
ATOM     34  O4S SGN d 303     -23.842  56.598 175.927  0.00  0.00    -0.572 OA
ATOM     35  C6  SGN d 303     -23.493  54.223 174.111  0.00  0.00     0.067 C 
ATOM     36  O6S SGN d 303     -25.938  55.715 175.129  0.00  0.00    -0.572 OA
ATOM     37  N   SGN d 303     -24.138  52.050 168.937  0.00  0.00    -0.210 NA
ATOM     38  O1S SGN d 303     -26.503  52.608 168.547  0.00  0.00    -0.296 OA
ATOM     39  C5  SGN d 303     -23.415  53.461 172.824  0.00  0.00     0.091 C 
ATOM     40  O4  SGN d 303     -21.157  53.987 172.291  0.00  0.00    -0.348 OA
ATOM     41  S2  SGN d 303     -24.706  56.413 174.794  0.00  0.00     0.251 S 
ATOM     42  H   SGN d 303     -20.868  53.760 169.724  0.00  0.00     0.210 HD
ATOM     43  H   SGN d 303     -22.709  55.045 171.526  0.00  0.00     0.091 H 
ATOM     44  H   SGN d 303     -22.137  52.143 170.759  0.00  0.00     0.089 H 
ATOM     45  H   SGN d 303     -24.813  54.342 167.919  0.00  0.00     0.231 HD
ATOM     46  H   SGN d 303     -24.313  53.948 169.738  0.00  0.00     0.076 H 
ATOM     47  H   SGN d 303     -25.599  50.537 167.416  0.00  0.00     0.231 HD
ATOM     48  H   SGN d 303     -25.913  52.509 170.941  0.00  0.00     0.131 H 
ATOM     49  H   SGN d 303     -24.179  53.746 174.779  0.00  0.00     0.080 H 
ATOM     50  H   SGN d 303     -22.536  54.258 174.590  0.00  0.00     0.080 H 
ATOM     51  H   SGN d 303     -23.239  52.004 168.457  0.00  0.00     0.140 HD
ATOM     52  H   SGN d 303     -26.424  53.368 169.144  0.00  0.00     0.231 HD
ATOM     53  H   SGN d 303     -23.006  52.495 173.040  0.00  0.00     0.090 H 
ATOM     54  C2  SGN d 301     -24.583  44.972 176.018  0.00  0.00     0.081 C 
ATOM     55  C5  SGN d 301     -24.606  44.750 173.224  0.00  0.00     0.091 C 
ATOM     56  O6S SGN d 301     -22.510  42.618 171.294  0.00  0.00    -0.572 OA
ATOM     57  C3  SGN d 301     -25.356  45.948 175.140  0.00  0.00     0.083 C 
ATOM     58  O2S SGN d 301     -24.237  46.699 178.515  0.00  0.00    -0.296 OA
ATOM     59  O6  SGN d 301     -22.714  44.914 171.879  0.00  0.00    -0.254 OA
ATOM     60  O3  SGN d 301     -25.489  47.200 175.773  0.00  0.00    -0.391 OA
ATOM     61  O1  SGN d 301     -25.770  43.049 175.149  0.00  0.00    -0.369 OA
ATOM     62  C6  SGN d 301     -24.067  44.720 171.820  0.00  0.00     0.067 C 
ATOM     63  O5S SGN d 301     -21.012  43.649 172.930  0.00  0.00    -0.572 OA
ATOM     64  O4S SGN d 301     -20.830  44.224 170.602  0.00  0.00    -0.572 OA
ATOM     65  O1S SGN d 301     -23.077  44.540 178.585  0.00  0.00    -0.296 OA
ATOM     66  N   SGN d 301     -25.213  44.792 177.312  0.00  0.00    -0.210 NA
ATOM     67  O4  SGN d 301     -25.023  47.036 173.040  0.00  0.00    -0.348 OA
ATOM     68  C4  SGN d 301     -24.509  46.079 173.890  0.00  0.00     0.095 C 
ATOM     69  S1  SGN d 301     -24.362  45.257 178.628  0.00  0.00     0.156 S 
ATOM     70  S2  SGN d 301     -21.710  43.781 171.667  0.00  0.00     0.251 S 
ATOM     71  O3S SGN d 301     -25.201  44.898 179.745  0.00  0.00    -0.296 OA
ATOM     72  O5  SGN d 301     -23.906  43.812 174.006  0.00  0.00    -0.350 OA
ATOM     73  C1  SGN d 301     -24.472  43.635 175.279  0.00  0.00     0.147 C 
ATOM     74  H   SGN d 301     -23.608  45.372 176.204  0.00  0.00     0.076 H 
ATOM     75  H   SGN d 301     -25.647  44.516 173.147  0.00  0.00     0.090 H 
ATOM     76  H   SGN d 301     -26.349  45.606 174.936  0.00  0.00     0.089 H 
ATOM     77  H   SGN d 301     -23.670  46.916 177.759  0.00  0.00     0.231 HD
ATOM     78  H   SGN d 301     -24.609  47.554 175.979  0.00  0.00     0.210 HD
ATOM     79  H   SGN d 301     -26.160  42.927 176.029  0.00  0.00     0.212 HD
ATOM     80  H   SGN d 301     -24.520  45.497 171.241  0.00  0.00     0.080 H 
ATOM     81  H   SGN d 301     -24.285  43.779 171.360  0.00  0.00     0.080 H 
ATOM     82  H   SGN d 301     -22.570  44.831 177.811  0.00  0.00     0.231 HD
ATOM     83  H   SGN d 301     -25.421  43.800 177.416  0.00  0.00     0.140 HD
ATOM     84  H   SGN d 301     -23.506  46.366 174.129  0.00  0.00     0.091 H 
ATOM     85  H   SGN d 301     -24.761  45.145 180.573  0.00  0.00     0.231 HD
ATOM     86  H   SGN d 301     -23.837  42.988 175.846  0.00  0.00     0.131 H 
ATOM     87  O1S IDS d 302     -22.944  49.698 168.342  0.00  0.00    -0.572 OA
ATOM     88  O2S IDS d 302     -21.514  47.839 168.675  0.00  0.00    -0.572 OA
ATOM     89  O62 IDS d 302     -26.561  51.383 174.228  0.00  0.00    -0.646 OA
ATOM     90  C6  IDS d 302     -25.540  50.716 174.204  0.00  0.00     0.206 C 
ATOM     91  C4  IDS d 302     -25.504  50.259 171.753  0.00  0.00     0.103 C 
ATOM     92  S   IDS d 302     -22.820  48.374 168.842  0.00  0.00     0.252 S 
ATOM     93  O3S IDS d 302     -23.833  47.535 168.326  0.00  0.00    -0.572 OA
ATOM     94  C5  IDS d 302     -25.327  49.713 173.132  0.00  0.00     0.152 C 
ATOM     95  C2  IDS d 302     -24.294  48.087 171.033  0.00  0.00     0.134 C 
ATOM     96  O2  IDS d 302     -23.101  48.471 170.375  0.00  0.00    -0.244 OA
ATOM     97  C3  IDS d 302     -25.386  49.122 170.706  0.00  0.00     0.094 C 
ATOM     98  O61 IDS d 302     -24.698  50.879 175.073  0.00  0.00    -0.646 OA
ATOM     99  O5  IDS d 302     -24.071  49.120 173.224  0.00  0.00    -0.340 OA
ATOM    100  O3  IDS d 302     -26.625  48.453 170.648  0.00  0.00    -0.390 OA
ATOM    101  O4  IDS d 302     -24.489  51.197 171.542  0.00  0.00    -0.348 OA
ATOM    102  C1  IDS d 302     -24.036  47.892 172.534  0.00  0.00     0.161 C 
ATOM    103  H   IDS d 302     -26.470  50.709 171.653  0.00  0.00     0.092 H 
ATOM    104  H   IDS d 302     -26.090  48.980 173.292  0.00  0.00     0.104 H 
ATOM    105  H   IDS d 302     -24.645  47.138 170.683  0.00  0.00     0.097 H 
ATOM    106  H   IDS d 302     -25.116  49.577 169.776  0.00  0.00     0.091 H 
ATOM    107  H   IDS d 302     -26.821  48.061 171.513  0.00  0.00     0.210 HD
ATOM    108  H   IDS d 302     -23.062  47.471 172.673  0.00  0.00     0.133 H 
ATOM    109  O6  SGN d 305     -14.313  58.173 168.856  0.00  0.00    -0.254 OA
ATOM    110  C2  SGN d 305     -15.678  57.963 173.146  0.00  0.00     0.081 C 
ATOM    111  O1S SGN d 305     -14.797  55.570 174.750  0.00  0.00    -0.296 OA
ATOM    112  O5  SGN d 305     -15.654  56.992 170.933  0.00  0.00    -0.349 OA
ATOM    113  S1  SGN d 305     -14.951  56.822 175.427  0.00  0.00     0.156 S 
ATOM    114  O5S SGN d 305     -12.159  57.375 167.985  0.00  0.00    -0.572 OA
ATOM    115  C1  SGN d 305     -16.077  56.769 172.282  0.00  0.00     0.150 C 
ATOM    116  O3  SGN d 305     -16.065  60.360 173.354  0.00  0.00    -0.391 OA
ATOM    117  S2  SGN d 305     -13.411  58.000 167.572  0.00  0.00     0.251 S 
ATOM    118  O6S SGN d 305     -14.140  57.144 166.653  0.00  0.00    -0.572 OA
ATOM    119  C5  SGN d 305     -16.214  58.180 170.319  0.00  0.00     0.090 C 
ATOM    120  O4S SGN d 305     -13.240  59.355 167.094  0.00  0.00    -0.572 OA
ATOM    121  C6  SGN d 305     -15.708  58.230 168.875  0.00  0.00     0.067 C 
ATOM    122  N   SGN d 305     -16.010  57.705 174.561  0.00  0.00    -0.210 NA
ATOM    123  O2S SGN d 305     -13.698  57.522 175.447  0.00  0.00    -0.296 OA
ATOM    124  O3S SGN d 305     -15.557  56.706 176.712  0.00  0.00    -0.296 OA
ATOM    125  C4  SGN d 305     -15.886  59.433 171.146  0.00  0.00     0.089 C 
ATOM    126  O4  SGN d 305     -16.578  60.562 170.635  0.00  0.00    -0.390 OA
ATOM    127  C3  SGN d 305     -16.393  59.212 172.587  0.00  0.00     0.083 C 
ATOM    128  H   SGN d 305     -14.621  58.126 173.112  0.00  0.00     0.076 H 
ATOM    129  H   SGN d 305     -14.381  55.718 173.886  0.00  0.00     0.231 HD
ATOM    130  H   SGN d 305     -15.599  55.871 172.616  0.00  0.00     0.131 H 
ATOM    131  H   SGN d 305     -16.377  60.239 174.265  0.00  0.00     0.210 HD
ATOM    132  H   SGN d 305     -17.284  58.149 170.298  0.00  0.00     0.090 H 
ATOM    133  H   SGN d 305     -16.104  57.397 168.332  0.00  0.00     0.080 H 
ATOM    134  H   SGN d 305     -16.029  59.144 168.422  0.00  0.00     0.080 H 
ATOM    135  H   SGN d 305     -16.906  57.217 174.581  0.00  0.00     0.140 HD
ATOM    136  H   SGN d 305     -13.338  57.567 174.547  0.00  0.00     0.231 HD
ATOM    137  H   SGN d 305     -16.395  56.226 176.632  0.00  0.00     0.231 HD
ATOM    138  H   SGN d 305     -14.829  59.600 171.110  0.00  0.00     0.091 H 
ATOM    139  H   SGN d 305     -17.534  60.399 170.674  0.00  0.00     0.210 HD
ATOM    140  H   SGN d 305     -17.452  59.064 172.619  0.00  0.00     0.089 H 
ENDROOT
TORSDOF 45
ENDMDL
MODEL 20
REMARK VINA RESULT:      -8.1      3.749     13.523
REMARK  0 active torsions:
REMARK  status: ('A' for Active; 'I' for Inactive)
REMARK       I    between atoms: C6_1  and  C5_56 
REMARK       I    between atoms: O3_2  and  C3_19 
REMARK       I    between atoms: C2_3  and  N_45 
REMARK       I    between atoms: S1_4  and  N_72 
REMARK       I    between atoms: S1_4  and  O1S_74 
REMARK       I    between atoms: S1_4  and  O2S_20 
REMARK       I    between atoms: S1_4  and  O3S_35 
REMARK       I    between atoms: C5_5  and  C6_27 
REMARK       I    between atoms: C3_7  and  O3_15 
REMARK       I    between atoms: O2S_10  and  S1_60 
REMARK       I    between atoms: O6_11  and  C6_27 
REMARK       I    between atoms: O6_11  and  S2_67 
REMARK       I    between atoms: C4_14  and  O4_71 
REMARK       I    between atoms: C4_16  and  O4_81 
REMARK       I    between atoms: C6_18  and  C5_53 
REMARK       I    between atoms: O2_21  and  C2_30 
REMARK       I    between atoms: O2_21  and  S_68 
REMARK       I    between atoms: O6_22  and  C6_61 
REMARK       I    between atoms: O6_22  and  S2_47 
REMARK       I    between atoms: O1_23  and  C1_86 
REMARK       I    between atoms: O6_24  and  C6_57 
REMARK       I    between atoms: O6_24  and  S2_89 
REMARK       I    between atoms: C4_25  and  O4_85 
REMARK       I    between atoms: C2_26  and  N_73 
REMARK       I    between atoms: C2_28  and  N_72 
REMARK       I    between atoms: O1S_32  and  S1_37 
REMARK       I    between atoms: S1_37  and  N_73 
REMARK       I    between atoms: S1_37  and  O2S_78 
REMARK       I    between atoms: S1_37  and  O3S_82 
REMARK       I    between atoms: C1_39  and  O4_71 
REMARK       I    between atoms: S_41  and  O2_63 
REMARK       I    between atoms: O3_43  and  C3_88 
REMARK       I    between atoms: O1S_44  and  S1_60 
REMARK       I    between atoms: N_45  and  S1_60 
REMARK       I    between atoms: C1_46  and  O4_85 
REMARK       I    between atoms: O4_48  and  C4_54 
REMARK       I    between atoms: O4_48  and  C1_90 
REMARK       I    between atoms: O3_49  and  C3_77 
REMARK       I    between atoms: C5_52  and  C6_61 
REMARK       I    between atoms: C6_57  and  C5_79 
REMARK       I    between atoms: C2_58  and  O2_63 
REMARK       I    between atoms: S1_60  and  O3S_75 
REMARK       I    between atoms: C3_64  and  O3_80 
REMARK       I    between atoms: O4_81  and  C1_84 
REMARK       I    between atoms: C4_83  and  O4_87 
ROOT
ATOM      1  C6  IDS d 304     -19.182  52.995 172.093  0.00  0.00     0.206 C 
ATOM      2  O61 IDS d 304     -19.930  52.772 173.024  0.00  0.00    -0.646 OA
ATOM      3  C4  IDS d 304     -17.351  54.611 171.700  0.00  0.00     0.103 C 
ATOM      4  O2  IDS d 304     -16.057  55.675 174.298  0.00  0.00    -0.244 OA
ATOM      5  O62 IDS d 304     -19.610  52.954 170.979  0.00  0.00    -0.646 OA
ATOM      6  C2  IDS d 304     -15.552  54.628 173.513  0.00  0.00     0.134 C 
ATOM      7  O1S IDS d 304     -14.346  57.075 175.199  0.00  0.00    -0.572 OA
ATOM      8  O3  IDS d 304     -15.102  54.126 171.194  0.00  0.00    -0.390 OA
ATOM      9  C5  IDS d 304     -17.775  53.309 172.325  0.00  0.00     0.152 C 
ATOM     10  O5  IDS d 304     -17.529  53.268 173.694  0.00  0.00    -0.340 OA
ATOM     11  O2S IDS d 304     -16.517  56.976 176.158  0.00  0.00    -0.572 OA
ATOM     12  O3S IDS d 304     -15.030  55.204 176.481  0.00  0.00    -0.572 OA
ATOM     13  S   IDS d 304     -15.443  56.246 175.607  0.00  0.00     0.252 S 
ATOM     14  O4  IDS d 304     -18.153  55.626 172.203  0.00  0.00    -0.348 OA
ATOM     15  C3  IDS d 304     -15.899  54.924 172.028  0.00  0.00     0.094 C 
ATOM     16  C1  IDS d 304     -16.150  53.308 174.014  0.00  0.00     0.161 C 
ATOM     17  H   IDS d 304     -17.452  54.534 170.637  0.00  0.00     0.092 H 
ATOM     18  H   IDS d 304     -14.488  54.545 173.590  0.00  0.00     0.097 H 
ATOM     19  H   IDS d 304     -15.318  54.311 170.267  0.00  0.00     0.210 HD
ATOM     20  H   IDS d 304     -17.174  52.571 171.838  0.00  0.00     0.104 H 
ATOM     21  H   IDS d 304     -15.723  55.967 171.870  0.00  0.00     0.091 H 
ATOM     22  H   IDS d 304     -16.066  53.225 175.077  0.00  0.00     0.133 H 
ATOM     23  O3  SGN d 303     -16.473  49.886 172.058  0.00  0.00    -0.391 OA
ATOM     24  S1  SGN d 303     -15.696  46.024 172.863  0.00  0.00     0.156 S 
ATOM     25  O5S SGN d 303     -17.145  51.534 178.658  0.00  0.00    -0.572 OA
ATOM     26  C4  SGN d 303     -15.543  50.980 174.028  0.00  0.00     0.095 C 
ATOM     27  C3  SGN d 303     -15.360  49.882 172.915  0.00  0.00     0.083 C 
ATOM     28  O2S SGN d 303     -17.099  46.275 172.764  0.00  0.00    -0.296 OA
ATOM     29  O6  SGN d 303     -15.576  51.563 176.876  0.00  0.00    -0.254 OA
ATOM     30  C2  SGN d 303     -15.263  48.498 173.574  0.00  0.00     0.081 C 
ATOM     31  O3S SGN d 303     -15.199  45.166 171.864  0.00  0.00    -0.296 OA
ATOM     32  O5  SGN d 303     -14.406  49.503 175.585  0.00  0.00    -0.349 OA
ATOM     33  C1  SGN d 303     -14.164  48.481 174.632  0.00  0.00     0.150 C 
ATOM     34  O4S SGN d 303     -15.488  53.260 178.559  0.00  0.00    -0.572 OA
ATOM     35  C6  SGN d 303     -14.400  51.766 176.183  0.00  0.00     0.067 C 
ATOM     36  O6S SGN d 303     -14.823  51.006 179.095  0.00  0.00    -0.572 OA
ATOM     37  N   SGN d 303     -15.002  47.450 172.589  0.00  0.00    -0.210 NA
ATOM     38  O1S SGN d 303     -15.331  45.616 174.198  0.00  0.00    -0.296 OA
ATOM     39  C5  SGN d 303     -14.394  50.811 175.029  0.00  0.00     0.091 C 
ATOM     40  O4  SGN d 303     -15.435  52.243 173.440  0.00  0.00    -0.348 OA
ATOM     41  S2  SGN d 303     -15.765  51.860 178.388  0.00  0.00     0.251 S 
ATOM     42  H   SGN d 303     -16.550  50.754 171.633  0.00  0.00     0.210 HD
ATOM     43  H   SGN d 303     -16.495  50.884 174.508  0.00  0.00     0.091 H 
ATOM     44  H   SGN d 303     -14.469  50.095 172.361  0.00  0.00     0.089 H 
ATOM     45  H   SGN d 303     -17.372  46.871 173.479  0.00  0.00     0.231 HD
ATOM     46  H   SGN d 303     -16.208  48.302 174.036  0.00  0.00     0.076 H 
ATOM     47  H   SGN d 303     -14.245  45.039 171.990  0.00  0.00     0.231 HD
ATOM     48  H   SGN d 303     -14.147  47.553 175.166  0.00  0.00     0.131 H 
ATOM     49  H   SGN d 303     -13.562  51.576 176.820  0.00  0.00     0.080 H 
ATOM     50  H   SGN d 303     -14.331  52.777 175.839  0.00  0.00     0.080 H 
ATOM     51  H   SGN d 303     -15.329  47.785 171.684  0.00  0.00     0.140 HD
ATOM     52  H   SGN d 303     -15.699  46.243 174.839  0.00  0.00     0.231 HD
ATOM     53  H   SGN d 303     -13.519  51.009 174.446  0.00  0.00     0.090 H 
ATOM     54  C2  SGN d 301      -5.370  49.913 173.854  0.00  0.00     0.081 C 
ATOM     55  C5  SGN d 301      -6.557  48.053 172.125  0.00  0.00     0.091 C 
ATOM     56  O6S SGN d 301      -5.986  47.818 168.621  0.00  0.00    -0.572 OA
ATOM     57  C3  SGN d 301      -6.528  49.029 174.296  0.00  0.00     0.083 C 
ATOM     58  O2S SGN d 301      -5.666  52.188 175.871  0.00  0.00    -0.296 OA
ATOM     59  O6  SGN d 301      -7.636  48.610 170.139  0.00  0.00    -0.254 OA
ATOM     60  O3  SGN d 301      -7.271  49.646 175.324  0.00  0.00    -0.391 OA
ATOM     61  O1  SGN d 301      -3.979  48.019 173.269  0.00  0.00    -0.369 OA
ATOM     62  C6  SGN d 301      -7.302  47.540 170.924  0.00  0.00     0.067 C 
ATOM     63  O5S SGN d 301      -6.277  50.210 169.045  0.00  0.00    -0.572 OA
ATOM     64  O4S SGN d 301      -7.947  48.994 167.813  0.00  0.00    -0.572 OA
ATOM     65  O1S SGN d 301      -3.948  52.545 174.159  0.00  0.00    -0.296 OA
ATOM     66  N   SGN d 301      -4.486  50.239 174.956  0.00  0.00    -0.210 NA
ATOM     67  O4  SGN d 301      -8.547  48.195 173.330  0.00  0.00    -0.348 OA
ATOM     68  C4  SGN d 301      -7.381  48.878 173.052  0.00  0.00     0.095 C 
ATOM     69  S1  SGN d 301      -4.356  51.815 175.370  0.00  0.00     0.156 S 
ATOM     70  S2  SGN d 301      -6.913  48.926 168.829  0.00  0.00     0.251 S 
ATOM     71  O3S SGN d 301      -3.375  51.831 176.427  0.00  0.00    -0.296 OA
ATOM     72  O5  SGN d 301      -5.467  48.832 171.692  0.00  0.00    -0.350 OA
ATOM     73  C1  SGN d 301      -4.605  49.192 172.741  0.00  0.00     0.147 C 
ATOM     74  H   SGN d 301      -5.761  50.840 173.490  0.00  0.00     0.076 H 
ATOM     75  H   SGN d 301      -6.245  47.188 172.672  0.00  0.00     0.090 H 
ATOM     76  H   SGN d 301      -6.193  48.091 174.688  0.00  0.00     0.089 H 
ATOM     77  H   SGN d 301      -6.308  52.171 175.144  0.00  0.00     0.231 HD
ATOM     78  H   SGN d 301      -7.599  50.505 175.015  0.00  0.00     0.210 HD
ATOM     79  H   SGN d 301      -3.384  48.269 173.994  0.00  0.00     0.212 HD
ATOM     80  H   SGN d 301      -8.190  47.031 171.239  0.00  0.00     0.080 H 
ATOM     81  H   SGN d 301      -6.692  46.854 170.375  0.00  0.00     0.080 H 
ATOM     82  H   SGN d 301      -4.654  52.490 173.495  0.00  0.00     0.231 HD
ATOM     83  H   SGN d 301      -3.553  49.909 174.709  0.00  0.00     0.140 HD
ATOM     84  H   SGN d 301      -7.654  49.832 172.651  0.00  0.00     0.091 H 
ATOM     85  H   SGN d 301      -3.241  52.742 176.731  0.00  0.00     0.231 HD
ATOM     86  H   SGN d 301      -3.861  49.857 172.356  0.00  0.00     0.131 H 
ATOM     87  O1S IDS d 302     -13.452  47.357 170.375  0.00  0.00    -0.572 OA
ATOM     88  O2S IDS d 302     -11.899  48.154 168.772  0.00  0.00    -0.572 OA
ATOM     89  O62 IDS d 302     -11.465  48.908 177.025  0.00  0.00    -0.646 OA
ATOM     90  C6  IDS d 302     -11.052  49.472 176.025  0.00  0.00     0.206 C 
ATOM     91  C4  IDS d 302     -11.877  47.816 174.353  0.00  0.00     0.103 C 
ATOM     92  S   IDS d 302     -12.087  47.442 169.988  0.00  0.00     0.252 S 
ATOM     93  O3S IDS d 302     -11.477  46.168 169.984  0.00  0.00    -0.572 OA
ATOM     94  C5  IDS d 302     -10.753  48.693 174.798  0.00  0.00     0.152 C 
ATOM     95  C2  IDS d 302     -10.546  47.700 172.135  0.00  0.00     0.134 C 
ATOM     96  O2  IDS d 302     -11.372  48.242 171.122  0.00  0.00    -0.244 OA
ATOM     97  C3  IDS d 302     -11.437  46.952 173.143  0.00  0.00     0.094 C 
ATOM     98  O61 IDS d 302     -10.884  50.680 176.045  0.00  0.00    -0.646 OA
ATOM     99  O5  IDS d 302     -10.380  49.520 173.741  0.00  0.00    -0.340 OA
ATOM    100  O3  IDS d 302     -10.713  45.848 173.638  0.00  0.00    -0.390 OA
ATOM    101  O4  IDS d 302     -12.932  48.651 173.972  0.00  0.00    -0.348 OA
ATOM    102  C1  IDS d 302      -9.673  48.801 172.758  0.00  0.00     0.161 C 
ATOM    103  H   IDS d 302     -12.173  47.160 175.144  0.00  0.00     0.092 H 
ATOM    104  H   IDS d 302      -9.935  48.060 175.072  0.00  0.00     0.104 H 
ATOM    105  H   IDS d 302      -9.854  46.987 171.736  0.00  0.00     0.097 H 
ATOM    106  H   IDS d 302     -12.326  46.666 172.621  0.00  0.00     0.091 H 
ATOM    107  H   IDS d 302      -9.921  46.162 174.100  0.00  0.00     0.210 HD
ATOM    108  H   IDS d 302      -9.385  49.495 171.996  0.00  0.00     0.133 H 
ATOM    109  O6  SGN d 305     -21.709  56.057 168.722  0.00  0.00    -0.254 OA
ATOM    110  C2  SGN d 305     -19.211  57.757 172.066  0.00  0.00     0.081 C 
ATOM    111  O1S SGN d 305     -16.494  58.835 171.337  0.00  0.00    -0.296 OA
ATOM    112  O5  SGN d 305     -19.476  56.119 170.309  0.00  0.00    -0.349 OA
ATOM    113  S1  SGN d 305     -17.211  59.465 172.404  0.00  0.00     0.156 S 
ATOM    114  O5S SGN d 305     -21.766  56.870 166.404  0.00  0.00    -0.572 OA
ATOM    115  C1  SGN d 305     -18.557  56.619 171.285  0.00  0.00     0.150 C 
ATOM    116  O3  SGN d 305     -21.108  58.199 173.532  0.00  0.00    -0.391 OA
ATOM    117  S2  SGN d 305     -22.325  55.848 167.284  0.00  0.00     0.251 S 
ATOM    118  O6S SGN d 305     -21.940  54.518 166.845  0.00  0.00    -0.572 OA
ATOM    119  C5  SGN d 305     -20.717  55.611 170.861  0.00  0.00     0.090 C 
ATOM    120  O4S SGN d 305     -23.748  56.000 167.500  0.00  0.00    -0.572 OA
ATOM    121  C6  SGN d 305     -21.546  55.067 169.694  0.00  0.00     0.067 C 
ATOM    122  N   SGN d 305     -18.243  58.357 173.005  0.00  0.00    -0.210 NA
ATOM    123  O2S SGN d 305     -17.981  60.562 171.893  0.00  0.00    -0.296 OA
ATOM    124  O3S SGN d 305     -16.389  59.818 173.514  0.00  0.00    -0.296 OA
ATOM    125  C4  SGN d 305     -21.430  56.688 171.693  0.00  0.00     0.089 C 
ATOM    126  O4  SGN d 305     -22.550  56.136 172.367  0.00  0.00    -0.390 OA
ATOM    127  C3  SGN d 305     -20.456  57.187 172.781  0.00  0.00     0.083 C 
ATOM    128  H   SGN d 305     -19.520  58.545 171.411  0.00  0.00     0.076 H 
ATOM    129  H   SGN d 305     -17.109  58.621 170.617  0.00  0.00     0.231 HD
ATOM    130  H   SGN d 305     -17.692  56.960 170.755  0.00  0.00     0.131 H 
ATOM    131  H   SGN d 305     -20.509  58.526 174.222  0.00  0.00     0.210 HD
ATOM    132  H   SGN d 305     -20.546  54.811 171.551  0.00  0.00     0.090 H 
ATOM    133  H   SGN d 305     -21.044  54.227 169.264  0.00  0.00     0.080 H 
ATOM    134  H   SGN d 305     -22.508  54.769 170.056  0.00  0.00     0.080 H 
ATOM    135  H   SGN d 305     -17.686  57.598 173.397  0.00  0.00     0.140 HD
ATOM    136  H   SGN d 305     -18.517  60.259 171.143  0.00  0.00     0.231 HD
ATOM    137  H   SGN d 305     -15.896  59.038 173.812  0.00  0.00     0.231 HD
ATOM    138  H   SGN d 305     -21.744  57.475 171.039  0.00  0.00     0.091 H 
ATOM    139  H   SGN d 305     -22.254  55.424 172.957  0.00  0.00     0.210 HD
ATOM    140  H   SGN d 305     -20.160  56.400 173.443  0.00  0.00     0.089 H 
ENDROOT
TORSDOF 45
ENDMDL
MODEL 21
REMARK VINA RESULT:      -7.6      3.565     12.545
REMARK  0 active torsions:
REMARK  status: ('A' for Active; 'I' for Inactive)
REMARK       I    between atoms: C6_1  and  C5_56 
REMARK       I    between atoms: O3_2  and  C3_19 
REMARK       I    between atoms: C2_3  and  N_45 
REMARK       I    between atoms: S1_4  and  N_72 
REMARK       I    between atoms: S1_4  and  O1S_74 
REMARK       I    between atoms: S1_4  and  O2S_20 
REMARK       I    between atoms: S1_4  and  O3S_35 
REMARK       I    between atoms: C5_5  and  C6_27 
REMARK       I    between atoms: C3_7  and  O3_15 
REMARK       I    between atoms: O2S_10  and  S1_60 
REMARK       I    between atoms: O6_11  and  C6_27 
REMARK       I    between atoms: O6_11  and  S2_67 
REMARK       I    between atoms: C4_14  and  O4_71 
REMARK       I    between atoms: C4_16  and  O4_81 
REMARK       I    between atoms: C6_18  and  C5_53 
REMARK       I    between atoms: O2_21  and  C2_30 
REMARK       I    between atoms: O2_21  and  S_68 
REMARK       I    between atoms: O6_22  and  C6_61 
REMARK       I    between atoms: O6_22  and  S2_47 
REMARK       I    between atoms: O1_23  and  C1_86 
REMARK       I    between atoms: O6_24  and  C6_57 
REMARK       I    between atoms: O6_24  and  S2_89 
REMARK       I    between atoms: C4_25  and  O4_85 
REMARK       I    between atoms: C2_26  and  N_73 
REMARK       I    between atoms: C2_28  and  N_72 
REMARK       I    between atoms: O1S_32  and  S1_37 
REMARK       I    between atoms: S1_37  and  N_73 
REMARK       I    between atoms: S1_37  and  O2S_78 
REMARK       I    between atoms: S1_37  and  O3S_82 
REMARK       I    between atoms: C1_39  and  O4_71 
REMARK       I    between atoms: S_41  and  O2_63 
REMARK       I    between atoms: O3_43  and  C3_88 
REMARK       I    between atoms: O1S_44  and  S1_60 
REMARK       I    between atoms: N_45  and  S1_60 
REMARK       I    between atoms: C1_46  and  O4_85 
REMARK       I    between atoms: O4_48  and  C4_54 
REMARK       I    between atoms: O4_48  and  C1_90 
REMARK       I    between atoms: O3_49  and  C3_77 
REMARK       I    between atoms: C5_52  and  C6_61 
REMARK       I    between atoms: C6_57  and  C5_79 
REMARK       I    between atoms: C2_58  and  O2_63 
REMARK       I    between atoms: S1_60  and  O3S_75 
REMARK       I    between atoms: C3_64  and  O3_80 
REMARK       I    between atoms: O4_81  and  C1_84 
REMARK       I    between atoms: C4_83  and  O4_87 
ROOT
ATOM      1  C6  IDS d 304     -19.639  52.259 173.079  0.00  0.00     0.206 C 
ATOM      2  O61 IDS d 304     -20.169  52.613 174.113  0.00  0.00    -0.646 OA
ATOM      3  C4  IDS d 304     -17.510  52.822 171.952  0.00  0.00     0.103 C 
ATOM      4  O2  IDS d 304     -15.341  53.907 173.869  0.00  0.00    -0.244 OA
ATOM      5  O62 IDS d 304     -20.308  52.105 172.104  0.00  0.00    -0.646 OA
ATOM      6  C2  IDS d 304     -15.439  52.579 173.427  0.00  0.00     0.134 C 
ATOM      7  O1S IDS d 304     -13.085  54.669 174.038  0.00  0.00    -0.572 OA
ATOM      8  O3  IDS d 304     -15.765  51.348 171.376  0.00  0.00    -0.390 OA
ATOM      9  C5  IDS d 304     -18.199  52.021 173.024  0.00  0.00     0.152 C 
ATOM     10  O5  IDS d 304     -17.661  52.243 174.288  0.00  0.00    -0.340 OA
ATOM     11  O2S IDS d 304     -14.854  55.720 175.226  0.00  0.00    -0.572 OA
ATOM     12  O3S IDS d 304     -14.050  53.649 175.945  0.00  0.00    -0.572 OA
ATOM     13  S   IDS d 304     -14.270  54.498 174.828  0.00  0.00     0.252 S 
ATOM     14  O4  IDS d 304     -17.760  54.168 172.177  0.00  0.00    -0.348 OA
ATOM     15  C3  IDS d 304     -16.007  52.589 171.981  0.00  0.00     0.094 C 
ATOM     16  C1  IDS d 304     -16.322  51.800 174.409  0.00  0.00     0.161 C 
ATOM     17  H   IDS d 304     -17.885  52.517 170.997  0.00  0.00     0.092 H 
ATOM     18  H   IDS d 304     -14.487  52.092 173.401  0.00  0.00     0.097 H 
ATOM     19  H   IDS d 304     -16.120  51.354 170.473  0.00  0.00     0.210 HD
ATOM     20  H   IDS d 304     -18.030  51.001 172.745  0.00  0.00     0.104 H 
ATOM     21  H   IDS d 304     -15.521  53.389 171.463  0.00  0.00     0.091 H 
ATOM     22  H   IDS d 304     -16.019  51.973 175.421  0.00  0.00     0.133 H 
ATOM     23  O3  SGN d 303     -18.282  48.425 173.770  0.00  0.00    -0.391 OA
ATOM     24  S1  SGN d 303     -18.737  44.943 175.726  0.00  0.00     0.156 S 
ATOM     25  O5S SGN d 303     -16.726  51.873 179.463  0.00  0.00    -0.572 OA
ATOM     26  C4  SGN d 303     -16.584  49.521 175.133  0.00  0.00     0.095 C 
ATOM     27  C3  SGN d 303     -17.070  48.194 174.440  0.00  0.00     0.083 C 
ATOM     28  O2S SGN d 303     -19.944  45.709 175.716  0.00  0.00    -0.296 OA
ATOM     29  O6  SGN d 303     -15.724  50.791 177.601  0.00  0.00    -0.254 OA
ATOM     30  C2  SGN d 303     -17.308  47.116 175.508  0.00  0.00     0.081 C 
ATOM     31  O3S SGN d 303     -18.828  43.727 175.021  0.00  0.00    -0.296 OA
ATOM     32  O5  SGN d 303     -15.696  48.173 176.948  0.00  0.00    -0.349 OA
ATOM     33  C1  SGN d 303     -16.065  46.931 176.373  0.00  0.00     0.150 C 
ATOM     34  O4S SGN d 303     -14.646  52.681 178.594  0.00  0.00    -0.572 OA
ATOM     35  C6  SGN d 303     -14.755  50.307 176.747  0.00  0.00     0.067 C 
ATOM     36  O6S SGN d 303     -14.703  50.579 179.774  0.00  0.00    -0.572 OA
ATOM     37  N   SGN d 303     -17.675  45.834 174.909  0.00  0.00    -0.210 NA
ATOM     38  O1S SGN d 303     -18.228  44.787 177.067  0.00  0.00    -0.296 OA
ATOM     39  C5  SGN d 303     -15.361  49.166 175.989  0.00  0.00     0.091 C 
ATOM     40  O4  SGN d 303     -16.185  50.426 174.146  0.00  0.00    -0.348 OA
ATOM     41  S2  SGN d 303     -15.427  51.524 178.937  0.00  0.00     0.251 S 
ATOM     42  H   SGN d 303     -18.151  49.105 173.090  0.00  0.00     0.210 HD
ATOM     43  H   SGN d 303     -17.364  49.951 175.726  0.00  0.00     0.091 H 
ATOM     44  H   SGN d 303     -16.322  47.870 173.745  0.00  0.00     0.089 H 
ATOM     45  H   SGN d 303     -19.810  46.529 176.216  0.00  0.00     0.231 HD
ATOM     46  H   SGN d 303     -18.121  47.451 176.118  0.00  0.00     0.076 H 
ATOM     47  H   SGN d 303     -17.979  43.261 175.069  0.00  0.00     0.231 HD
ATOM     48  H   SGN d 303     -16.246  46.253 177.181  0.00  0.00     0.131 H 
ATOM     49  H   SGN d 303     -13.909  49.966 177.306  0.00  0.00     0.080 H 
ATOM     50  H   SGN d 303     -14.422  51.073 176.077  0.00  0.00     0.080 H 
ATOM     51  H   SGN d 303     -18.072  46.024 173.989  0.00  0.00     0.140 HD
ATOM     52  H   SGN d 303     -18.188  45.654 177.500  0.00  0.00     0.231 HD
ATOM     53  H   SGN d 303     -14.640  48.829 175.273  0.00  0.00     0.090 H 
ATOM     54  C2  SGN d 301      -7.789  44.392 174.121  0.00  0.00     0.081 C 
ATOM     55  C5  SGN d 301      -9.931  42.796 173.271  0.00  0.00     0.091 C 
ATOM     56  O6S SGN d 301     -10.340  41.438 170.008  0.00  0.00    -0.572 OA
ATOM     57  C3  SGN d 301      -9.041  44.208 174.969  0.00  0.00     0.083 C 
ATOM     58  O2S SGN d 301      -6.775  47.032 175.278  0.00  0.00    -0.296 OA
ATOM     59  O6  SGN d 301     -11.191  43.202 171.356  0.00  0.00    -0.254 OA
ATOM     60  O3  SGN d 301      -9.250  45.320 175.810  0.00  0.00    -0.391 OA
ATOM     61  O1  SGN d 301      -7.334  42.015 174.046  0.00  0.00    -0.369 OA
ATOM     62  C6  SGN d 301     -11.075  42.336 172.410  0.00  0.00     0.067 C 
ATOM     63  O5S SGN d 301      -9.664  43.760 169.635  0.00  0.00    -0.572 OA
ATOM     64  O4S SGN d 301     -11.898  43.054 169.091  0.00  0.00    -0.572 OA
ATOM     65  O1S SGN d 301      -5.508  46.194 173.353  0.00  0.00    -0.296 OA
ATOM     66  N   SGN d 301      -6.609  44.605 174.936  0.00  0.00    -0.210 NA
ATOM     67  O4  SGN d 301     -11.393  44.048 174.585  0.00  0.00    -0.348 OA
ATOM     68  C4  SGN d 301     -10.166  44.097 173.958  0.00  0.00     0.095 C 
ATOM     69  S1  SGN d 301      -5.841  46.039 174.779  0.00  0.00     0.156 S 
ATOM     70  S2  SGN d 301     -10.742  42.840 169.941  0.00  0.00     0.251 S 
ATOM     71  O3S SGN d 301      -4.693  45.931 175.645  0.00  0.00    -0.296 OA
ATOM     72  O5  SGN d 301      -8.776  42.919 172.475  0.00  0.00    -0.350 OA
ATOM     73  C1  SGN d 301      -7.617  43.157 173.232  0.00  0.00     0.147 C 
ATOM     74  H   SGN d 301      -7.906  45.267 173.517  0.00  0.00     0.076 H 
ATOM     75  H   SGN d 301      -9.819  42.056 174.036  0.00  0.00     0.090 H 
ATOM     76  H   SGN d 301      -8.971  43.353 175.609  0.00  0.00     0.089 H 
ATOM     77  H   SGN d 301      -7.538  47.088 174.680  0.00  0.00     0.231 HD
ATOM     78  H   SGN d 301      -9.320  46.124 175.272  0.00  0.00     0.210 HD
ATOM     79  H   SGN d 301      -6.533  42.181 174.568  0.00  0.00     0.212 HD
ATOM     80  H   SGN d 301     -11.980  42.335 172.980  0.00  0.00     0.080 H 
ATOM     81  H   SGN d 301     -10.894  41.343 172.054  0.00  0.00     0.080 H 
ATOM     82  H   SGN d 301      -6.325  46.260 172.835  0.00  0.00     0.231 HD
ATOM     83  H   SGN d 301      -5.940  43.872 174.705  0.00  0.00     0.140 HD
ATOM     84  H   SGN d 301     -10.175  44.937 173.296  0.00  0.00     0.091 H 
ATOM     85  H   SGN d 301      -4.179  46.753 175.607  0.00  0.00     0.231 HD
ATOM     86  H   SGN d 301      -6.804  43.334 172.561  0.00  0.00     0.131 H 
ATOM     87  O1S IDS d 302     -16.837  44.540 172.688  0.00  0.00    -0.572 OA
ATOM     88  O2S IDS d 302     -15.539  44.183 170.738  0.00  0.00    -0.572 OA
ATOM     89  O62 IDS d 302     -12.895  46.832 178.145  0.00  0.00    -0.646 OA
ATOM     90  C6  IDS d 302     -12.565  46.893 176.972  0.00  0.00     0.206 C 
ATOM     91  C4  IDS d 302     -14.294  45.343 176.063  0.00  0.00     0.103 C 
ATOM     92  S   IDS d 302     -15.666  43.956 172.135  0.00  0.00     0.252 S 
ATOM     93  O3S IDS d 302     -15.560  42.592 172.487  0.00  0.00    -0.572 OA
ATOM     94  C5  IDS d 302     -12.862  45.768 176.052  0.00  0.00     0.152 C 
ATOM     95  C2  IDS d 302     -13.663  44.117 173.872  0.00  0.00     0.134 C 
ATOM     96  O2  IDS d 302     -14.466  44.662 172.842  0.00  0.00    -0.244 OA
ATOM     97  C3  IDS d 302     -14.489  44.090 175.171  0.00  0.00     0.094 C 
ATOM     98  O61 IDS d 302     -11.985  47.887 176.565  0.00  0.00    -0.646 OA
ATOM     99  O5  IDS d 302     -12.490  46.062 174.742  0.00  0.00    -0.340 OA
ATOM    100  O3  IDS d 302     -14.101  42.960 175.918  0.00  0.00    -0.390 OA
ATOM    101  O4  IDS d 302     -15.049  46.404 175.552  0.00  0.00    -0.348 OA
ATOM    102  C1  IDS d 302     -12.338  44.887 173.981  0.00  0.00     0.161 C 
ATOM    103  H   IDS d 302     -14.601  45.098 177.059  0.00  0.00     0.092 H 
ATOM    104  H   IDS d 302     -12.278  44.953 176.423  0.00  0.00     0.104 H 
ATOM    105  H   IDS d 302     -13.383  43.107 173.657  0.00  0.00     0.097 H 
ATOM    106  H   IDS d 302     -15.520  44.066 174.884  0.00  0.00     0.091 H 
ATOM    107  H   IDS d 302     -13.163  43.033 176.151  0.00  0.00     0.210 HD
ATOM    108  H   IDS d 302     -12.018  45.177 173.001  0.00  0.00     0.133 H 
ATOM    109  O6  SGN d 305     -21.666  55.082 169.201  0.00  0.00    -0.254 OA
ATOM    110  C2  SGN d 305     -18.005  56.428 171.458  0.00  0.00     0.081 C 
ATOM    111  O1S SGN d 305     -15.343  56.071 170.094  0.00  0.00    -0.296 OA
ATOM    112  O5  SGN d 305     -19.241  54.642 170.399  0.00  0.00    -0.349 OA
ATOM    113  S1  SGN d 305     -15.515  57.195 170.964  0.00  0.00     0.156 S 
ATOM    114  O5S SGN d 305     -21.991  55.208 166.769  0.00  0.00    -0.572 OA
ATOM    115  C1  SGN d 305     -17.999  54.961 171.033  0.00  0.00     0.150 C 
ATOM    116  O3  SGN d 305     -19.214  57.973 172.905  0.00  0.00    -0.391 OA
ATOM    117  S2  SGN d 305     -22.643  54.774 168.001  0.00  0.00     0.251 S 
ATOM    118  O6S SGN d 305     -22.866  53.338 167.991  0.00  0.00    -0.572 OA
ATOM    119  C5  SGN d 305     -20.409  54.849 171.232  0.00  0.00     0.090 C 
ATOM    120  O4S SGN d 305     -23.826  55.544 168.320  0.00  0.00    -0.572 OA
ATOM    121  C6  SGN d 305     -21.631  54.406 170.423  0.00  0.00     0.067 C 
ATOM    122  N   SGN d 305     -16.692  56.805 172.020  0.00  0.00    -0.210 NA
ATOM    123  O2S SGN d 305     -15.951  58.334 170.209  0.00  0.00    -0.296 OA
ATOM    124  O3S SGN d 305     -14.380  57.459 171.786  0.00  0.00    -0.296 OA
ATOM    125  C4  SGN d 305     -20.477  56.301 171.733  0.00  0.00     0.089 C 
ATOM    126  O4  SGN d 305     -21.523  56.451 172.681  0.00  0.00    -0.390 OA
ATOM    127  C3  SGN d 305     -19.159  56.624 172.466  0.00  0.00     0.083 C 
ATOM    128  H   SGN d 305     -18.167  57.071 170.619  0.00  0.00     0.076 H 
ATOM    129  H   SGN d 305     -16.148  55.946 169.565  0.00  0.00     0.231 HD
ATOM    130  H   SGN d 305     -17.224  54.767 170.322  0.00  0.00     0.131 H 
ATOM    131  H   SGN d 305     -18.392  58.195 173.370  0.00  0.00     0.210 HD
ATOM    132  H   SGN d 305     -20.368  54.261 172.125  0.00  0.00     0.090 H 
ATOM    133  H   SGN d 305     -21.574  53.353 170.243  0.00  0.00     0.080 H 
ATOM    134  H   SGN d 305     -22.519  54.632 170.975  0.00  0.00     0.080 H 
ATOM    135  H   SGN d 305     -16.359  56.016 172.574  0.00  0.00     0.140 HD
ATOM    136  H   SGN d 305     -16.723  58.091 169.674  0.00  0.00     0.231 HD
ATOM    137  H   SGN d 305     -14.135  56.654 172.267  0.00  0.00     0.231 HD
ATOM    138  H   SGN d 305     -20.644  56.945 170.894  0.00  0.00     0.091 H 
ATOM    139  H   SGN d 305     -21.361  55.863 173.436  0.00  0.00     0.210 HD
ATOM    140  H   SGN d 305     -19.007  55.989 173.314  0.00  0.00     0.089 H 
ENDROOT
TORSDOF 45
ENDMDL
MODEL 22
REMARK VINA RESULT:      -7.2      7.130     11.971
REMARK  0 active torsions:
REMARK  status: ('A' for Active; 'I' for Inactive)
REMARK       I    between atoms: C6_1  and  C5_56 
REMARK       I    between atoms: O3_2  and  C3_19 
REMARK       I    between atoms: C2_3  and  N_45 
REMARK       I    between atoms: S1_4  and  N_72 
REMARK       I    between atoms: S1_4  and  O1S_74 
REMARK       I    between atoms: S1_4  and  O2S_20 
REMARK       I    between atoms: S1_4  and  O3S_35 
REMARK       I    between atoms: C5_5  and  C6_27 
REMARK       I    between atoms: C3_7  and  O3_15 
REMARK       I    between atoms: O2S_10  and  S1_60 
REMARK       I    between atoms: O6_11  and  C6_27 
REMARK       I    between atoms: O6_11  and  S2_67 
REMARK       I    between atoms: C4_14  and  O4_71 
REMARK       I    between atoms: C4_16  and  O4_81 
REMARK       I    between atoms: C6_18  and  C5_53 
REMARK       I    between atoms: O2_21  and  C2_30 
REMARK       I    between atoms: O2_21  and  S_68 
REMARK       I    between atoms: O6_22  and  C6_61 
REMARK       I    between atoms: O6_22  and  S2_47 
REMARK       I    between atoms: O1_23  and  C1_86 
REMARK       I    between atoms: O6_24  and  C6_57 
REMARK       I    between atoms: O6_24  and  S2_89 
REMARK       I    between atoms: C4_25  and  O4_85 
REMARK       I    between atoms: C2_26  and  N_73 
REMARK       I    between atoms: C2_28  and  N_72 
REMARK       I    between atoms: O1S_32  and  S1_37 
REMARK       I    between atoms: S1_37  and  N_73 
REMARK       I    between atoms: S1_37  and  O2S_78 
REMARK       I    between atoms: S1_37  and  O3S_82 
REMARK       I    between atoms: C1_39  and  O4_71 
REMARK       I    between atoms: S_41  and  O2_63 
REMARK       I    between atoms: O3_43  and  C3_88 
REMARK       I    between atoms: O1S_44  and  S1_60 
REMARK       I    between atoms: N_45  and  S1_60 
REMARK       I    between atoms: C1_46  and  O4_85 
REMARK       I    between atoms: O4_48  and  C4_54 
REMARK       I    between atoms: O4_48  and  C1_90 
REMARK       I    between atoms: O3_49  and  C3_77 
REMARK       I    between atoms: C5_52  and  C6_61 
REMARK       I    between atoms: C6_57  and  C5_79 
REMARK       I    between atoms: C2_58  and  O2_63 
REMARK       I    between atoms: S1_60  and  O3S_75 
REMARK       I    between atoms: C3_64  and  O3_80 
REMARK       I    between atoms: O4_81  and  C1_84 
REMARK       I    between atoms: C4_83  and  O4_87 
ROOT
ATOM      1  C6  IDS d 304     -25.141  48.108 174.309  0.00  0.00     0.206 C 
ATOM      2  O61 IDS d 304     -26.203  48.019 173.727  0.00  0.00    -0.646 OA
ATOM      3  C4  IDS d 304     -22.795  47.611 173.703  0.00  0.00     0.103 C 
ATOM      4  O2  IDS d 304     -22.269  47.633 170.657  0.00  0.00    -0.244 OA
ATOM      5  O62 IDS d 304     -25.082  47.807 175.462  0.00  0.00    -0.646 OA
ATOM      6  C2  IDS d 304     -22.013  48.702 171.529  0.00  0.00     0.134 C 
ATOM      7  O1S IDS d 304     -20.609  47.400 168.957  0.00  0.00    -0.572 OA
ATOM      8  O3  IDS d 304     -20.979  49.112 173.672  0.00  0.00    -0.390 OA
ATOM      9  C5  IDS d 304     -23.946  48.577 173.613  0.00  0.00     0.152 C 
ATOM     10  O5  IDS d 304     -24.286  48.883 172.299  0.00  0.00    -0.340 OA
ATOM     11  O2S IDS d 304     -22.788  46.486 168.713  0.00  0.00    -0.572 OA
ATOM     12  O3S IDS d 304     -22.470  48.790 168.497  0.00  0.00    -0.572 OA
ATOM     13  S   IDS d 304     -22.020  47.597 169.123  0.00  0.00     0.252 S 
ATOM     14  O4  IDS d 304     -23.199  46.391 173.181  0.00  0.00    -0.348 OA
ATOM     15  C3  IDS d 304     -21.600  48.115 172.907  0.00  0.00     0.094 C 
ATOM     16  C1  IDS d 304     -23.266  49.582 171.608  0.00  0.00     0.161 C 
ATOM     17  H   IDS d 304     -22.505  47.513 174.729  0.00  0.00     0.092 H 
ATOM     18  H   IDS d 304     -21.212  49.321 171.184  0.00  0.00     0.097 H 
ATOM     19  H   IDS d 304     -20.721  48.746 174.533  0.00  0.00     0.210 HD
ATOM     20  H   IDS d 304     -23.591  49.462 174.099  0.00  0.00     0.104 H 
ATOM     21  H   IDS d 304     -20.942  47.294 172.710  0.00  0.00     0.091 H 
ATOM     22  H   IDS d 304     -23.641  49.808 170.631  0.00  0.00     0.133 H 
ATOM     23  O3  SGN d 303     -24.273  52.137 174.453  0.00  0.00    -0.391 OA
ATOM     24  S1  SGN d 303     -25.628  55.920 174.580  0.00  0.00     0.156 S 
ATOM     25  O5S SGN d 303     -26.624  51.090 168.121  0.00  0.00    -0.572 OA
ATOM     26  C4  SGN d 303     -23.791  51.882 172.077  0.00  0.00     0.095 C 
ATOM     27  C3  SGN d 303     -23.694  52.795 173.355  0.00  0.00     0.083 C 
ATOM     28  O2S SGN d 303     -26.625  54.983 174.994  0.00  0.00    -0.296 OA
ATOM     29  O6  SGN d 303     -24.651  51.670 169.309  0.00  0.00    -0.254 OA
ATOM     30  C2  SGN d 303     -24.469  54.099 173.112  0.00  0.00     0.081 C 
ATOM     31  O3S SGN d 303     -25.215  56.800 175.599  0.00  0.00    -0.296 OA
ATOM     32  O5  SGN d 303     -24.101  53.888 170.743  0.00  0.00    -0.349 OA
ATOM     33  C1  SGN d 303     -23.986  54.783 171.837  0.00  0.00     0.150 C 
ATOM     34  O4S SGN d 303     -24.485  50.442 167.263  0.00  0.00    -0.572 OA
ATOM     35  C6  SGN d 303     -23.340  52.019 169.558  0.00  0.00     0.067 C 
ATOM     36  O6S SGN d 303     -25.129  52.765 167.216  0.00  0.00    -0.572 OA
ATOM     37  N   SGN d 303     -24.337  55.023 174.236  0.00  0.00    -0.210 NA
ATOM     38  O1S SGN d 303     -26.018  56.596 173.366  0.00  0.00    -0.296 OA
ATOM     39  C5  SGN d 303     -23.310  52.716 170.883  0.00  0.00     0.091 C 
ATOM     40  O4  SGN d 303     -22.928  50.794 172.233  0.00  0.00    -0.348 OA
ATOM     41  S2  SGN d 303     -25.254  51.481 167.890  0.00  0.00     0.251 S 
ATOM     42  H   SGN d 303     -23.795  51.310 174.622  0.00  0.00     0.210 HD
ATOM     43  H   SGN d 303     -24.792  51.533 171.930  0.00  0.00     0.091 H 
ATOM     44  H   SGN d 303     -22.664  53.006 173.554  0.00  0.00     0.089 H 
ATOM     45  H   SGN d 303     -26.861  54.411 174.246  0.00  0.00     0.231 HD
ATOM     46  H   SGN d 303     -25.501  53.837 173.008  0.00  0.00     0.076 H 
ATOM     47  H   SGN d 303     -24.541  57.404 175.250  0.00  0.00     0.231 HD
ATOM     48  H   SGN d 303     -24.580  55.642 171.602  0.00  0.00     0.131 H 
ATOM     49  H   SGN d 303     -22.983  52.674 168.791  0.00  0.00     0.080 H 
ATOM     50  H   SGN d 303     -22.712  51.152 169.571  0.00  0.00     0.080 H 
ATOM     51  H   SGN d 303     -24.112  54.474 175.065  0.00  0.00     0.140 HD
ATOM     52  H   SGN d 303     -26.290  55.942 172.705  0.00  0.00     0.231 HD
ATOM     53  H   SGN d 303     -22.287  52.928 171.118  0.00  0.00     0.090 H 
ATOM     54  C2  SGN d 301     -15.896  57.932 169.684  0.00  0.00     0.081 C 
ATOM     55  C5  SGN d 301     -17.012  58.737 172.125  0.00  0.00     0.091 C 
ATOM     56  O6S SGN d 301     -15.311  58.854 175.248  0.00  0.00    -0.572 OA
ATOM     57  C3  SGN d 301     -17.394  58.148 169.850  0.00  0.00     0.083 C 
ATOM     58  O2S SGN d 301     -15.917  56.051 167.276  0.00  0.00    -0.296 OA
ATOM     59  O6  SGN d 301     -16.891  57.503 174.095  0.00  0.00    -0.254 OA
ATOM     60  O3  SGN d 301     -18.123  57.354 168.942  0.00  0.00    -0.391 OA
ATOM     61  O1  SGN d 301     -15.363  60.195 170.362  0.00  0.00    -0.369 OA
ATOM     62  C6  SGN d 301     -17.385  58.671 173.581  0.00  0.00     0.067 C 
ATOM     63  O5S SGN d 301     -14.669  56.706 174.270  0.00  0.00    -0.572 OA
ATOM     64  O4S SGN d 301     -16.089  56.768 176.209  0.00  0.00    -0.572 OA
ATOM     65  O1S SGN d 301     -13.707  56.434 168.267  0.00  0.00    -0.296 OA
ATOM     66  N   SGN d 301     -15.454  58.219 168.333  0.00  0.00    -0.210 NA
ATOM     67  O4  SGN d 301     -19.033  57.735 171.538  0.00  0.00    -0.348 OA
ATOM     68  C4  SGN d 301     -17.680  57.713 171.274  0.00  0.00     0.095 C 
ATOM     69  S1  SGN d 301     -14.820  56.981 167.475  0.00  0.00     0.156 S 
ATOM     70  S2  SGN d 301     -15.664  57.459 175.006  0.00  0.00     0.251 S 
ATOM     71  O3S SGN d 301     -14.418  57.577 166.224  0.00  0.00    -0.296 OA
ATOM     72  O5  SGN d 301     -15.620  58.577 171.999  0.00  0.00    -0.350 OA
ATOM     73  C1  SGN d 301     -15.161  58.818 170.694  0.00  0.00     0.147 C 
ATOM     74  H   SGN d 301     -15.672  56.902 169.867  0.00  0.00     0.076 H 
ATOM     75  H   SGN d 301     -17.344  59.693 171.778  0.00  0.00     0.090 H 
ATOM     76  H   SGN d 301     -17.678  59.162 169.660  0.00  0.00     0.089 H 
ATOM     77  H   SGN d 301     -16.170  55.663 168.129  0.00  0.00     0.231 HD
ATOM     78  H   SGN d 301     -17.898  56.420 169.077  0.00  0.00     0.210 HD
ATOM     79  H   SGN d 301     -15.046  60.360 169.460  0.00  0.00     0.212 HD
ATOM     80  H   SGN d 301     -18.450  58.690 173.684  0.00  0.00     0.080 H 
ATOM     81  H   SGN d 301     -16.976  59.508 174.106  0.00  0.00     0.080 H 
ATOM     82  H   SGN d 301     -14.053  56.052 169.089  0.00  0.00     0.231 HD
ATOM     83  H   SGN d 301     -14.743  58.947 168.391  0.00  0.00     0.140 HD
ATOM     84  H   SGN d 301     -17.334  56.716 171.451  0.00  0.00     0.091 H 
ATOM     85  H   SGN d 301     -14.028  56.897 165.652  0.00  0.00     0.231 HD
ATOM     86  H   SGN d 301     -14.118  58.585 170.652  0.00  0.00     0.131 H 
ATOM     87  O1S IDS d 302     -22.268  55.652 175.860  0.00  0.00    -0.572 OA
ATOM     88  O2S IDS d 302     -20.043  55.586 176.673  0.00  0.00    -0.572 OA
ATOM     89  O62 IDS d 302     -22.513  56.041 168.763  0.00  0.00    -0.646 OA
ATOM     90  C6  IDS d 302     -21.549  55.661 169.408  0.00  0.00     0.206 C 
ATOM     91  C4  IDS d 302     -22.304  56.481 171.638  0.00  0.00     0.103 C 
ATOM     92  S   IDS d 302     -20.971  56.230 175.810  0.00  0.00     0.252 S 
ATOM     93  O3S IDS d 302     -21.026  57.628 175.999  0.00  0.00    -0.572 OA
ATOM     94  C5  IDS d 302     -21.176  56.348 170.669  0.00  0.00     0.152 C 
ATOM     95  C2  IDS d 302     -20.422  57.019 173.333  0.00  0.00     0.134 C 
ATOM     96  O2  IDS d 302     -20.473  56.028 174.343  0.00  0.00    -0.244 OA
ATOM     97  C3  IDS d 302     -21.859  57.315 172.868  0.00  0.00     0.094 C 
ATOM     98  O61 IDS d 302     -20.894  54.715 169.003  0.00  0.00    -0.646 OA
ATOM     99  O5  IDS d 302     -20.108  55.717 171.303  0.00  0.00    -0.340 OA
ATOM    100  O3  IDS d 302     -21.938  58.678 172.521  0.00  0.00    -0.390 OA
ATOM    101  O4  IDS d 302     -22.655  55.192 172.050  0.00  0.00    -0.348 OA
ATOM    102  C1  IDS d 302     -19.469  56.585 172.209  0.00  0.00     0.161 C 
ATOM    103  H   IDS d 302     -23.133  56.977 171.179  0.00  0.00     0.092 H 
ATOM    104  H   IDS d 302     -20.889  57.333 170.365  0.00  0.00     0.104 H 
ATOM    105  H   IDS d 302     -20.016  57.936 173.706  0.00  0.00     0.097 H 
ATOM    106  H   IDS d 302     -22.509  57.053 173.677  0.00  0.00     0.091 H 
ATOM    107  H   IDS d 302     -21.333  58.860 171.786  0.00  0.00     0.210 HD
ATOM    108  H   IDS d 302     -18.641  56.057 172.633  0.00  0.00     0.133 H 
ATOM    109  O6  SGN d 305     -24.580  43.849 177.253  0.00  0.00    -0.254 OA
ATOM    110  C2  SGN d 305     -23.081  44.016 173.006  0.00  0.00     0.081 C 
ATOM    111  O1S SGN d 305     -20.119  44.394 172.611  0.00  0.00    -0.296 OA
ATOM    112  O5  SGN d 305     -23.339  45.097 175.152  0.00  0.00    -0.349 OA
ATOM    113  S1  SGN d 305     -20.836  43.605 171.655  0.00  0.00     0.156 S 
ATOM    114  O5S SGN d 305     -23.387  42.877 179.169  0.00  0.00    -0.572 OA
ATOM    115  C1  SGN d 305     -22.745  45.238 173.859  0.00  0.00     0.150 C 
ATOM    116  O3  SGN d 305     -24.994  42.834 172.068  0.00  0.00    -0.391 OA
ATOM    117  S2  SGN d 305     -24.624  43.561 178.804  0.00  0.00     0.251 S 
ATOM    118  O6S SGN d 305     -24.721  44.848 179.473  0.00  0.00    -0.572 OA
ATOM    119  C5  SGN d 305     -24.783  44.961 175.136  0.00  0.00     0.090 C 
ATOM    120  O4S SGN d 305     -25.800  42.733 178.962  0.00  0.00    -0.572 OA
ATOM    121  C6  SGN d 305     -25.249  44.881 176.592  0.00  0.00     0.067 C 
ATOM    122  N   SGN d 305     -22.389  44.094 171.704  0.00  0.00    -0.210 NA
ATOM    123  O2S SGN d 305     -20.791  42.222 172.033  0.00  0.00    -0.296 OA
ATOM    124  O3S SGN d 305     -20.437  43.838 170.307  0.00  0.00    -0.296 OA
ATOM    125  C4  SGN d 305     -25.213  43.766 174.270  0.00  0.00     0.089 C 
ATOM    126  O4  SGN d 305     -26.624  43.743 174.120  0.00  0.00    -0.390 OA
ATOM    127  C3  SGN d 305     -24.617  43.950 172.859  0.00  0.00     0.083 C 
ATOM    128  H   SGN d 305     -22.740  43.116 173.473  0.00  0.00     0.076 H 
ATOM    129  H   SGN d 305     -20.437  44.188 173.504  0.00  0.00     0.231 HD
ATOM    130  H   SGN d 305     -21.689  45.329 174.007  0.00  0.00     0.131 H 
ATOM    131  H   SGN d 305     -24.628  42.931 171.175  0.00  0.00     0.210 HD
ATOM    132  H   SGN d 305     -25.255  45.805 174.679  0.00  0.00     0.090 H 
ATOM    133  H   SGN d 305     -25.041  45.809 177.083  0.00  0.00     0.080 H 
ATOM    134  H   SGN d 305     -26.302  44.687 176.614  0.00  0.00     0.080 H 
ATOM    135  H   SGN d 305     -22.415  45.067 171.401  0.00  0.00     0.140 HD
ATOM    136  H   SGN d 305     -21.073  42.129 172.957  0.00  0.00     0.231 HD
ATOM    137  H   SGN d 305     -20.488  44.787 170.114  0.00  0.00     0.231 HD
ATOM    138  H   SGN d 305     -24.876  42.865 174.738  0.00  0.00     0.091 H 
ATOM    139  H   SGN d 305     -26.917  44.565 173.695  0.00  0.00     0.210 HD
ATOM    140  H   SGN d 305     -24.972  44.844 172.388  0.00  0.00     0.089 H 
ENDROOT
TORSDOF 45
ENDMDL
MODEL 23
REMARK VINA RESULT:      -6.3      2.451     13.294
REMARK  0 active torsions:
REMARK  status: ('A' for Active; 'I' for Inactive)
REMARK       I    between atoms: C6_1  and  C5_56 
REMARK       I    between atoms: O3_2  and  C3_19 
REMARK       I    between atoms: C2_3  and  N_45 
REMARK       I    between atoms: S1_4  and  N_72 
REMARK       I    between atoms: S1_4  and  O1S_74 
REMARK       I    between atoms: S1_4  and  O2S_20 
REMARK       I    between atoms: S1_4  and  O3S_35 
REMARK       I    between atoms: C5_5  and  C6_27 
REMARK       I    between atoms: C3_7  and  O3_15 
REMARK       I    between atoms: O2S_10  and  S1_60 
REMARK       I    between atoms: O6_11  and  C6_27 
REMARK       I    between atoms: O6_11  and  S2_67 
REMARK       I    between atoms: C4_14  and  O4_71 
REMARK       I    between atoms: C4_16  and  O4_81 
REMARK       I    between atoms: C6_18  and  C5_53 
REMARK       I    between atoms: O2_21  and  C2_30 
REMARK       I    between atoms: O2_21  and  S_68 
REMARK       I    between atoms: O6_22  and  C6_61 
REMARK       I    between atoms: O6_22  and  S2_47 
REMARK       I    between atoms: O1_23  and  C1_86 
REMARK       I    between atoms: O6_24  and  C6_57 
REMARK       I    between atoms: O6_24  and  S2_89 
REMARK       I    between atoms: C4_25  and  O4_85 
REMARK       I    between atoms: C2_26  and  N_73 
REMARK       I    between atoms: C2_28  and  N_72 
REMARK       I    between atoms: O1S_32  and  S1_37 
REMARK       I    between atoms: S1_37  and  N_73 
REMARK       I    between atoms: S1_37  and  O2S_78 
REMARK       I    between atoms: S1_37  and  O3S_82 
REMARK       I    between atoms: C1_39  and  O4_71 
REMARK       I    between atoms: S_41  and  O2_63 
REMARK       I    between atoms: O3_43  and  C3_88 
REMARK       I    between atoms: O1S_44  and  S1_60 
REMARK       I    between atoms: N_45  and  S1_60 
REMARK       I    between atoms: C1_46  and  O4_85 
REMARK       I    between atoms: O4_48  and  C4_54 
REMARK       I    between atoms: O4_48  and  C1_90 
REMARK       I    between atoms: O3_49  and  C3_77 
REMARK       I    between atoms: C5_52  and  C6_61 
REMARK       I    between atoms: C6_57  and  C5_79 
REMARK       I    between atoms: C2_58  and  O2_63 
REMARK       I    between atoms: S1_60  and  O3S_75 
REMARK       I    between atoms: C3_64  and  O3_80 
REMARK       I    between atoms: O4_81  and  C1_84 
REMARK       I    between atoms: C4_83  and  O4_87 
ROOT
ATOM      1  C6  IDS d 304     -18.985  46.582 171.125  0.00  0.00     0.206 C 
ATOM      2  O61 IDS d 304     -19.479  45.651 171.728  0.00  0.00    -0.646 OA
ATOM      3  C4  IDS d 304     -18.425  48.918 171.716  0.00  0.00     0.103 C 
ATOM      4  O2  IDS d 304     -18.027  49.367 174.749  0.00  0.00    -0.244 OA
ATOM      5  O62 IDS d 304     -19.293  46.768 169.987  0.00  0.00    -0.646 OA
ATOM      6  C2  IDS d 304     -16.996  49.159 173.821  0.00  0.00     0.134 C 
ATOM      7  O1S IDS d 304     -17.459  50.963 176.432  0.00  0.00    -0.572 OA
ATOM      8  O3  IDS d 304     -16.304  49.940 171.644  0.00  0.00    -0.390 OA
ATOM      9  C5  IDS d 304     -18.025  47.468 171.777  0.00  0.00     0.152 C 
ATOM     10  O5  IDS d 304     -17.821  47.023 173.080  0.00  0.00    -0.340 OA
ATOM     11  O2S IDS d 304     -19.184  49.362 176.756  0.00  0.00    -0.572 OA
ATOM     12  O3S IDS d 304     -16.950  48.688 176.852  0.00  0.00    -0.572 OA
ATOM     13  S   IDS d 304     -17.877  49.600 176.279  0.00  0.00     0.252 S 
ATOM     14  O4  IDS d 304     -19.674  49.057 172.305  0.00  0.00    -0.348 OA
ATOM     15  C3  IDS d 304     -17.428  49.788 172.467  0.00  0.00     0.094 C 
ATOM     16  C1  IDS d 304     -16.726  47.653 173.719  0.00  0.00     0.161 C 
ATOM     17  H   IDS d 304     -18.447  49.229 170.693  0.00  0.00     0.092 H 
ATOM     18  H   IDS d 304     -16.083  49.627 174.122  0.00  0.00     0.097 H 
ATOM     19  H   IDS d 304     -16.574  50.334 170.799  0.00  0.00     0.210 HD
ATOM     20  H   IDS d 304     -17.099  47.424 171.242  0.00  0.00     0.104 H 
ATOM     21  H   IDS d 304     -17.888  50.727 172.695  0.00  0.00     0.091 H 
ATOM     22  H   IDS d 304     -16.626  47.213 174.689  0.00  0.00     0.133 H 
ATOM     23  O3  SGN d 303     -14.975  45.690 170.766  0.00  0.00    -0.391 OA
ATOM     24  S1  SGN d 303     -12.115  42.880 170.473  0.00  0.00     0.156 S 
ATOM     25  O5S SGN d 303     -16.577  43.951 177.180  0.00  0.00    -0.572 OA
ATOM     26  C4  SGN d 303     -14.882  46.219 173.144  0.00  0.00     0.095 C 
ATOM     27  C3  SGN d 303     -14.079  45.934 171.821  0.00  0.00     0.083 C 
ATOM     28  O2S SGN d 303     -13.402  42.367 170.123  0.00  0.00    -0.296 OA
ATOM     29  O6  SGN d 303     -15.289  45.509 175.933  0.00  0.00    -0.254 OA
ATOM     30  C2  SGN d 303     -13.207  44.683 172.011  0.00  0.00     0.081 C 
ATOM     31  O3S SGN d 303     -11.197  42.893 169.405  0.00  0.00    -0.296 OA
ATOM     32  O5  SGN d 303     -13.122  45.091 174.381  0.00  0.00    -0.349 OA
ATOM     33  C1  SGN d 303     -12.318  44.829 173.243  0.00  0.00     0.150 C 
ATOM     34  O4S SGN d 303     -16.227  46.160 178.034  0.00  0.00    -0.572 OA
ATOM     35  C6  SGN d 303     -14.439  46.556 175.645  0.00  0.00     0.067 C 
ATOM     36  O6S SGN d 303     -14.386  44.605 177.976  0.00  0.00    -0.572 OA
ATOM     37  N   SGN d 303     -12.372  44.425 170.840  0.00  0.00    -0.210 NA
ATOM     38  O1S SGN d 303     -11.601  42.235 171.658  0.00  0.00    -0.296 OA
ATOM     39  C5  SGN d 303     -13.862  46.300 174.287  0.00  0.00     0.091 C 
ATOM     40  O4  SGN d 303     -15.517  47.458 173.029  0.00  0.00    -0.348 OA
ATOM     41  S2  SGN d 303     -15.638  45.032 177.368  0.00  0.00     0.251 S 
ATOM     42  H   SGN d 303     -15.535  46.470 170.631  0.00  0.00     0.210 HD
ATOM     43  H   SGN d 303     -15.609  45.454 173.324  0.00  0.00     0.091 H 
ATOM     44  H   SGN d 303     -13.468  46.783 171.595  0.00  0.00     0.089 H 
ATOM     45  H   SGN d 303     -13.981  42.386 170.901  0.00  0.00     0.231 HD
ATOM     46  H   SGN d 303     -13.870  43.854 172.145  0.00  0.00     0.076 H 
ATOM     47  H   SGN d 303     -10.349  43.251 169.712  0.00  0.00     0.231 HD
ATOM     48  H   SGN d 303     -11.775  43.929 173.444  0.00  0.00     0.131 H 
ATOM     49  H   SGN d 303     -13.655  46.602 176.373  0.00  0.00     0.080 H 
ATOM     50  H   SGN d 303     -14.964  47.488 175.665  0.00  0.00     0.080 H 
ATOM     51  H   SGN d 303     -12.819  44.864 170.036  0.00  0.00     0.140 HD
ATOM     52  H   SGN d 303     -12.274  42.257 172.355  0.00  0.00     0.231 HD
ATOM     53  H   SGN d 303     -13.256  47.142 174.025  0.00  0.00     0.090 H 
ATOM     54  C2  SGN d 301      -5.973  50.852 175.105  0.00  0.00     0.081 C 
ATOM     55  C5  SGN d 301      -5.836  49.516 172.645  0.00  0.00     0.091 C 
ATOM     56  O6S SGN d 301      -5.182  51.032 169.494  0.00  0.00    -0.572 OA
ATOM     57  C3  SGN d 301      -6.411  49.401 174.953  0.00  0.00     0.083 C 
ATOM     58  O2S SGN d 301      -7.564  51.603 177.604  0.00  0.00    -0.296 OA
ATOM     59  O6  SGN d 301      -7.008  50.154 170.738  0.00  0.00    -0.254 OA
ATOM     60  O3  SGN d 301      -7.389  49.065 175.911  0.00  0.00    -0.391 OA
ATOM     61  O1  SGN d 301      -3.734  50.395 174.307  0.00  0.00    -0.369 OA
ATOM     62  C6  SGN d 301      -6.128  49.214 171.201  0.00  0.00     0.067 C 
ATOM     63  O5S SGN d 301      -6.813  52.507 170.567  0.00  0.00    -0.572 OA
ATOM     64  O4S SGN d 301      -7.449  51.202 168.650  0.00  0.00    -0.572 OA
ATOM     65  O1S SGN d 301      -6.346  53.457 176.560  0.00  0.00    -0.296 OA
ATOM     66  N   SGN d 301      -5.459  51.125 176.433  0.00  0.00    -0.210 NA
ATOM     67  O4  SGN d 301      -7.558  48.094 173.315  0.00  0.00    -0.348 OA
ATOM     68  C4  SGN d 301      -7.000  49.332 173.557  0.00  0.00     0.095 C 
ATOM     69  S1  SGN d 301      -6.273  52.213 177.342  0.00  0.00     0.156 S 
ATOM     70  S2  SGN d 301      -6.583  51.292 169.811  0.00  0.00     0.251 S 
ATOM     71  O3S SGN d 301      -5.499  52.322 178.554  0.00  0.00    -0.296 OA
ATOM     72  O5  SGN d 301      -5.394  50.848 172.757  0.00  0.00    -0.350 OA
ATOM     73  C1  SGN d 301      -4.915  51.156 174.041  0.00  0.00     0.147 C 
ATOM     74  H   SGN d 301      -6.825  51.486 174.970  0.00  0.00     0.076 H 
ATOM     75  H   SGN d 301      -5.089  48.814 172.950  0.00  0.00     0.090 H 
ATOM     76  H   SGN d 301      -5.600  48.718 175.097  0.00  0.00     0.089 H 
ATOM     77  H   SGN d 301      -8.066  51.540 176.776  0.00  0.00     0.231 HD
ATOM     78  H   SGN d 301      -8.150  49.660 175.820  0.00  0.00     0.210 HD
ATOM     79  H   SGN d 301      -3.404  50.609 175.195  0.00  0.00     0.212 HD
ATOM     80  H   SGN d 301      -6.560  48.239 171.115  0.00  0.00     0.080 H 
ATOM     81  H   SGN d 301      -5.225  49.240 170.628  0.00  0.00     0.080 H 
ATOM     82  H   SGN d 301      -6.879  53.308 175.763  0.00  0.00     0.231 HD
ATOM     83  H   SGN d 301      -4.504  51.468 176.328  0.00  0.00     0.140 HD
ATOM     84  H   SGN d 301      -7.769  50.064 173.424  0.00  0.00     0.091 H 
ATOM     85  H   SGN d 301      -5.923  52.957 179.153  0.00  0.00     0.231 HD
ATOM     86  H   SGN d 301      -4.690  52.200 174.078  0.00  0.00     0.131 H 
ATOM     87  O1S IDS d 302     -11.022  46.052 169.154  0.00  0.00    -0.572 OA
ATOM     88  O2S IDS d 302     -10.196  48.106 168.309  0.00  0.00    -0.572 OA
ATOM     89  O62 IDS d 302     -10.403  45.623 176.225  0.00  0.00    -0.646 OA
ATOM     90  C6  IDS d 302     -10.379  46.661 175.585  0.00  0.00     0.206 C 
ATOM     91  C4  IDS d 302     -10.066  45.647 173.329  0.00  0.00     0.103 C 
ATOM     92  S   IDS d 302      -9.954  46.989 169.155  0.00  0.00     0.252 S 
ATOM     93  O3S IDS d 302      -8.718  46.356 168.897  0.00  0.00    -0.572 OA
ATOM     94  C5  IDS d 302      -9.665  46.721 174.286  0.00  0.00     0.152 C 
ATOM     95  C2  IDS d 302      -8.881  47.143 171.580  0.00  0.00     0.134 C 
ATOM     96  O2  IDS d 302      -9.853  47.516 170.621  0.00  0.00    -0.244 OA
ATOM     97  C3  IDS d 302      -9.188  45.710 172.053  0.00  0.00     0.094 C 
ATOM     98  O61 IDS d 302     -10.943  47.649 176.026  0.00  0.00    -0.646 OA
ATOM     99  O5  IDS d 302      -9.825  47.959 173.667  0.00  0.00    -0.340 OA
ATOM    100  O3  IDS d 302      -7.966  45.067 172.333  0.00  0.00    -0.390 OA
ATOM    101  O4  IDS d 302     -11.404  45.869 172.988  0.00  0.00    -0.348 OA
ATOM    102  C1  IDS d 302      -8.818  48.183 172.709  0.00  0.00     0.161 C 
ATOM    103  H   IDS d 302      -9.938  44.684 173.777  0.00  0.00     0.092 H 
ATOM    104  H   IDS d 302      -8.636  46.569 174.535  0.00  0.00     0.104 H 
ATOM    105  H   IDS d 302      -7.898  47.131 171.155  0.00  0.00     0.097 H 
ATOM    106  H   IDS d 302      -9.738  45.235 171.268  0.00  0.00     0.091 H 
ATOM    107  H   IDS d 302      -7.510  45.537 173.048  0.00  0.00     0.210 HD
ATOM    108  H   IDS d 302      -8.974  49.159 172.298  0.00  0.00     0.133 H 
ATOM    109  O6  SGN d 305     -22.768  48.888 168.388  0.00  0.00    -0.254 OA
ATOM    110  C2  SGN d 305     -21.770  50.155 172.596  0.00  0.00     0.081 C 
ATOM    111  O1S SGN d 305     -20.171  52.686 172.925  0.00  0.00    -0.296 OA
ATOM    112  O5  SGN d 305     -21.009  49.482 170.404  0.00  0.00    -0.349 OA
ATOM    113  S1  SGN d 305     -21.136  52.357 173.930  0.00  0.00     0.156 S 
ATOM    114  O5S SGN d 305     -23.252  50.390 166.504  0.00  0.00    -0.572 OA
ATOM    115  C1  SGN d 305     -20.566  49.955 171.678  0.00  0.00     0.150 C 
ATOM    116  O3  SGN d 305     -23.593  48.904 173.623  0.00  0.00    -0.391 OA
ATOM    117  S2  SGN d 305     -23.128  48.978 166.854  0.00  0.00     0.251 S 
ATOM    118  O6S SGN d 305     -22.036  48.356 166.124  0.00  0.00    -0.572 OA
ATOM    119  C5  SGN d 305     -21.734  48.227 170.450  0.00  0.00     0.090 C 
ATOM    120  O4S SGN d 305     -24.378  48.256 166.756  0.00  0.00    -0.572 OA
ATOM    121  C6  SGN d 305     -22.077  47.845 169.007  0.00  0.00     0.067 C 
ATOM    122  N   SGN d 305     -21.344  50.743 173.882  0.00  0.00    -0.210 NA
ATOM    123  O2S SGN d 305     -22.392  52.978 173.620  0.00  0.00    -0.296 OA
ATOM    124  O3S SGN d 305     -20.688  52.615 175.258  0.00  0.00    -0.296 OA
ATOM    125  C4  SGN d 305     -22.952  48.329 171.381  0.00  0.00     0.089 C 
ATOM    126  O4  SGN d 305     -23.554  47.056 171.554  0.00  0.00    -0.390 OA
ATOM    127  C3  SGN d 305     -22.464  48.786 172.772  0.00  0.00     0.083 C 
ATOM    128  H   SGN d 305     -22.469  50.843 172.169  0.00  0.00     0.076 H 
ATOM    129  H   SGN d 305     -20.537  52.488 172.048  0.00  0.00     0.231 HD
ATOM    130  H   SGN d 305     -20.051  50.877 171.509  0.00  0.00     0.131 H 
ATOM    131  H   SGN d 305     -23.305  49.190 174.504  0.00  0.00     0.210 HD
ATOM    132  H   SGN d 305     -21.142  47.442 170.871  0.00  0.00     0.090 H 
ATOM    133  H   SGN d 305     -21.174  47.650 168.468  0.00  0.00     0.080 H 
ATOM    134  H   SGN d 305     -22.693  46.970 169.012  0.00  0.00     0.080 H 
ATOM    135  H   SGN d 305     -20.455  50.311 174.136  0.00  0.00     0.140 HD
ATOM    136  H   SGN d 305     -22.642  52.766 172.707  0.00  0.00     0.231 HD
ATOM    137  H   SGN d 305     -19.839  52.171 175.404  0.00  0.00     0.231 HD
ATOM    138  H   SGN d 305     -23.654  49.015 170.953  0.00  0.00     0.091 H 
ATOM    139  H   SGN d 305     -22.909  46.444 171.943  0.00  0.00     0.210 HD
ATOM    140  H   SGN d 305     -21.776  48.087 173.202  0.00  0.00     0.089 H 
ENDROOT
TORSDOF 45
ENDMDL
MODEL 24
REMARK VINA RESULT:      -6.2      2.753      3.661
REMARK  0 active torsions:
REMARK  status: ('A' for Active; 'I' for Inactive)
REMARK       I    between atoms: C6_1  and  C5_56 
REMARK       I    between atoms: O3_2  and  C3_19 
REMARK       I    between atoms: C2_3  and  N_45 
REMARK       I    between atoms: S1_4  and  N_72 
REMARK       I    between atoms: S1_4  and  O1S_74 
REMARK       I    between atoms: S1_4  and  O2S_20 
REMARK       I    between atoms: S1_4  and  O3S_35 
REMARK       I    between atoms: C5_5  and  C6_27 
REMARK       I    between atoms: C3_7  and  O3_15 
REMARK       I    between atoms: O2S_10  and  S1_60 
REMARK       I    between atoms: O6_11  and  C6_27 
REMARK       I    between atoms: O6_11  and  S2_67 
REMARK       I    between atoms: C4_14  and  O4_71 
REMARK       I    between atoms: C4_16  and  O4_81 
REMARK       I    between atoms: C6_18  and  C5_53 
REMARK       I    between atoms: O2_21  and  C2_30 
REMARK       I    between atoms: O2_21  and  S_68 
REMARK       I    between atoms: O6_22  and  C6_61 
REMARK       I    between atoms: O6_22  and  S2_47 
REMARK       I    between atoms: O1_23  and  C1_86 
REMARK       I    between atoms: O6_24  and  C6_57 
REMARK       I    between atoms: O6_24  and  S2_89 
REMARK       I    between atoms: C4_25  and  O4_85 
REMARK       I    between atoms: C2_26  and  N_73 
REMARK       I    between atoms: C2_28  and  N_72 
REMARK       I    between atoms: O1S_32  and  S1_37 
REMARK       I    between atoms: S1_37  and  N_73 
REMARK       I    between atoms: S1_37  and  O2S_78 
REMARK       I    between atoms: S1_37  and  O3S_82 
REMARK       I    between atoms: C1_39  and  O4_71 
REMARK       I    between atoms: S_41  and  O2_63 
REMARK       I    between atoms: O3_43  and  C3_88 
REMARK       I    between atoms: O1S_44  and  S1_60 
REMARK       I    between atoms: N_45  and  S1_60 
REMARK       I    between atoms: C1_46  and  O4_85 
REMARK       I    between atoms: O4_48  and  C4_54 
REMARK       I    between atoms: O4_48  and  C1_90 
REMARK       I    between atoms: O3_49  and  C3_77 
REMARK       I    between atoms: C5_52  and  C6_61 
REMARK       I    between atoms: C6_57  and  C5_79 
REMARK       I    between atoms: C2_58  and  O2_63 
REMARK       I    between atoms: S1_60  and  O3S_75 
REMARK       I    between atoms: C3_64  and  O3_80 
REMARK       I    between atoms: O4_81  and  C1_84 
REMARK       I    between atoms: C4_83  and  O4_87 
ROOT
ATOM      1  C6  IDS d 304      -9.934  50.171 173.486  0.00  0.00     0.206 C 
ATOM      2  O61 IDS d 304      -9.426  50.078 174.585  0.00  0.00    -0.646 OA
ATOM      3  C4  IDS d 304     -11.221  48.626 172.046  0.00  0.00     0.103 C 
ATOM      4  O2  IDS d 304     -12.617  46.350 173.604  0.00  0.00    -0.244 OA
ATOM      5  O62 IDS d 304      -9.355  50.758 172.624  0.00  0.00    -0.646 OA
ATOM      6  C2  IDS d 304     -13.231  47.542 173.192  0.00  0.00     0.134 C 
ATOM      7  O1S IDS d 304     -14.053  44.451 173.424  0.00  0.00    -0.572 OA
ATOM      8  O3  IDS d 304     -13.408  48.928 171.223  0.00  0.00    -0.390 OA
ATOM      9  C5  IDS d 304     -11.238  49.573 173.216  0.00  0.00     0.152 C 
ATOM     10  O5  IDS d 304     -11.706  48.975 174.382  0.00  0.00    -0.340 OA
ATOM     11  O2S IDS d 304     -12.159  44.457 174.858  0.00  0.00    -0.572 OA
ATOM     12  O3S IDS d 304     -14.069  45.656 175.462  0.00  0.00    -0.572 OA
ATOM     13  S   IDS d 304     -13.276  45.178 174.385  0.00  0.00     0.252 S 
ATOM     14  O4  IDS d 304     -10.287  47.631 172.296  0.00  0.00    -0.348 OA
ATOM     15  C3  IDS d 304     -12.585  47.981 171.849  0.00  0.00     0.094 C 
ATOM     16  C1  IDS d 304     -13.066  48.587 174.302  0.00  0.00     0.161 C 
ATOM     17  H   IDS d 304     -10.971  49.173 171.160  0.00  0.00     0.092 H 
ATOM     18  H   IDS d 304     -14.280  47.418 173.025  0.00  0.00     0.097 H 
ATOM     19  H   IDS d 304     -13.005  49.202 170.384  0.00  0.00     0.210 HD
ATOM     20  H   IDS d 304     -11.916  50.347 172.922  0.00  0.00     0.104 H 
ATOM     21  H   IDS d 304     -12.470  47.097 171.256  0.00  0.00     0.091 H 
ATOM     22  H   IDS d 304     -13.339  48.183 175.255  0.00  0.00     0.133 H 
ATOM     23  O3  SGN d 303     -13.284  52.523 173.991  0.00  0.00    -0.391 OA
ATOM     24  S1  SGN d 303     -15.109  55.476 176.019  0.00  0.00     0.156 S 
ATOM     25  O5S SGN d 303     -13.306  48.289 179.358  0.00  0.00    -0.572 OA
ATOM     26  C4  SGN d 303     -14.222  50.550 175.074  0.00  0.00     0.095 C 
ATOM     27  C3  SGN d 303     -14.487  51.980 174.472  0.00  0.00     0.083 C 
ATOM     28  O2S SGN d 303     -13.690  55.513 176.186  0.00  0.00    -0.296 OA
ATOM     29  O6  SGN d 303     -14.509  48.797 177.374  0.00  0.00    -0.254 OA
ATOM     30  C2  SGN d 303     -15.028  52.906 175.572  0.00  0.00     0.081 C 
ATOM     31  O3S SGN d 303     -15.633  56.596 175.346  0.00  0.00    -0.296 OA
ATOM     32  O5  SGN d 303     -15.926  51.005 176.743  0.00  0.00    -0.349 OA
ATOM     33  C1  SGN d 303     -16.254  52.289 176.239  0.00  0.00     0.150 C 
ATOM     34  O4S SGN d 303     -14.447  46.546 178.178  0.00  0.00    -0.572 OA
ATOM     35  C6  SGN d 303     -15.470  48.737 176.386  0.00  0.00     0.067 C 
ATOM     36  O6S SGN d 303     -15.726  48.208 179.368  0.00  0.00    -0.572 OA
ATOM     37  N   SGN d 303     -15.376  54.224 175.045  0.00  0.00    -0.210 NA
ATOM     38  O1S SGN d 303     -15.775  55.199 177.269  0.00  0.00    -0.296 OA
ATOM     39  C5  SGN d 303     -15.524  50.086 175.737  0.00  0.00     0.091 C 
ATOM     40  O4  SGN d 303     -13.919  49.671 174.031  0.00  0.00    -0.348 OA
ATOM     41  S2  SGN d 303     -14.501  47.904 178.644  0.00  0.00     0.251 S 
ATOM     42  H   SGN d 303     -12.927  51.951 173.295  0.00  0.00     0.210 HD
ATOM     43  H   SGN d 303     -13.414  50.573 175.775  0.00  0.00     0.091 H 
ATOM     44  H   SGN d 303     -15.196  51.896 173.674  0.00  0.00     0.089 H 
ATOM     45  H   SGN d 303     -13.398  54.716 176.655  0.00  0.00     0.231 HD
ATOM     46  H   SGN d 303     -14.249  53.024 176.295  0.00  0.00     0.076 H 
ATOM     47  H   SGN d 303     -16.596  56.505 175.268  0.00  0.00     0.231 HD
ATOM     48  H   SGN d 303     -16.585  52.877 177.071  0.00  0.00     0.131 H 
ATOM     49  H   SGN d 303     -16.421  48.498 176.814  0.00  0.00     0.080 H 
ATOM     50  H   SGN d 303     -15.231  47.980 175.668  0.00  0.00     0.080 H 
ATOM     51  H   SGN d 303     -14.834  54.372 174.194  0.00  0.00     0.140 HD
ATOM     52  H   SGN d 303     -15.373  54.421 177.685  0.00  0.00     0.231 HD
ATOM     53  H   SGN d 303     -16.217  50.030 174.923  0.00  0.00     0.090 H 
ATOM     54  C2  SGN d 301     -24.177  49.998 172.779  0.00  0.00     0.081 C 
ATOM     55  C5  SGN d 301     -23.221  52.584 172.275  0.00  0.00     0.091 C 
ATOM     56  O6S SGN d 301     -23.255  54.231 169.121  0.00  0.00    -0.572 OA
ATOM     57  C3  SGN d 301     -23.360  50.768 173.808  0.00  0.00     0.083 C 
ATOM     58  O2S SGN d 301     -23.661  47.147 173.749  0.00  0.00    -0.296 OA
ATOM     59  O6  SGN d 301     -21.731  53.123 170.570  0.00  0.00    -0.254 OA
ATOM     60  O3  SGN d 301     -22.665  49.888 174.663  0.00  0.00    -0.391 OA
ATOM     61  O1  SGN d 301     -25.878  51.716 172.653  0.00  0.00    -0.369 OA
ATOM     62  C6  SGN d 301     -22.440  53.678 171.600  0.00  0.00     0.067 C 
ATOM     63  O5S SGN d 301     -22.456  51.971 168.634  0.00  0.00    -0.572 OA
ATOM     64  O4S SGN d 301     -20.961  53.844 168.439  0.00  0.00    -0.572 OA
ATOM     65  O1S SGN d 301     -24.936  47.311 171.662  0.00  0.00    -0.296 OA
ATOM     66  N   SGN d 301     -25.120  49.092 173.405  0.00  0.00    -0.210 NA
ATOM     67  O4  SGN d 301     -21.480  52.241 173.786  0.00  0.00    -0.348 OA
ATOM     68  C4  SGN d 301     -22.380  51.576 172.981  0.00  0.00     0.095 C 
ATOM     69  S1  SGN d 301     -24.923  47.494 173.122  0.00  0.00     0.156 S 
ATOM     70  S2  SGN d 301     -22.130  53.302 169.106  0.00  0.00     0.251 S 
ATOM     71  O3S SGN d 301     -26.028  46.867 173.806  0.00  0.00    -0.296 OA
ATOM     72  O5  SGN d 301     -23.999  51.913 171.313  0.00  0.00    -0.350 OA
ATOM     73  C1  SGN d 301     -24.905  51.004 171.884  0.00  0.00     0.147 C 
ATOM     74  H   SGN d 301     -23.515  49.395 172.193  0.00  0.00     0.076 H 
ATOM     75  H   SGN d 301     -23.821  53.064 173.019  0.00  0.00     0.090 H 
ATOM     76  H   SGN d 301     -23.975  51.377 174.437  0.00  0.00     0.089 H 
ATOM     77  H   SGN d 301     -22.933  47.579 173.274  0.00  0.00     0.231 HD
ATOM     78  H   SGN d 301     -22.090  49.311 174.136  0.00  0.00     0.210 HD
ATOM     79  H   SGN d 301     -26.503  51.087 173.047  0.00  0.00     0.212 HD
ATOM     80  H   SGN d 301     -21.769  54.129 172.301  0.00  0.00     0.080 H 
ATOM     81  H   SGN d 301     -23.103  54.431 171.229  0.00  0.00     0.080 H 
ATOM     82  H   SGN d 301     -24.167  47.758 171.273  0.00  0.00     0.231 HD
ATOM     83  H   SGN d 301     -26.052  49.347 173.081  0.00  0.00     0.140 HD
ATOM     84  H   SGN d 301     -21.819  50.948 172.321  0.00  0.00     0.091 H 
ATOM     85  H   SGN d 301     -25.980  45.906 173.684  0.00  0.00     0.231 HD
ATOM     86  H   SGN d 301     -25.389  50.467 171.096  0.00  0.00     0.131 H 
ATOM     87  O1S IDS d 302     -16.521  55.031 172.731  0.00  0.00    -0.572 OA
ATOM     88  O2S IDS d 302     -17.547  54.783 170.610  0.00  0.00    -0.572 OA
ATOM     89  O62 IDS d 302     -19.116  50.450 177.512  0.00  0.00    -0.646 OA
ATOM     90  C6  IDS d 302     -19.209  50.322 176.302  0.00  0.00     0.206 C 
ATOM     91  C4  IDS d 302     -18.557  52.646 175.677  0.00  0.00     0.103 C 
ATOM     92  S   IDS d 302     -17.741  54.914 172.012  0.00  0.00     0.252 S 
ATOM     93  O3S IDS d 302     -18.637  55.950 172.355  0.00  0.00    -0.572 OA
ATOM     94  C5  IDS d 302     -19.488  51.501 175.446  0.00  0.00     0.152 C 
ATOM     95  C2  IDS d 302     -19.498  53.510 173.425  0.00  0.00     0.134 C 
ATOM     96  O2  IDS d 302     -18.411  53.599 172.524  0.00  0.00    -0.244 OA
ATOM     97  C3  IDS d 302     -18.995  53.872 174.834  0.00  0.00     0.094 C 
ATOM     98  O61 IDS d 302     -19.075  49.216 175.805  0.00  0.00    -0.646 OA
ATOM     99  O5  IDS d 302     -19.468  51.171 174.093  0.00  0.00    -0.340 OA
ATOM    100  O3  IDS d 302     -20.039  54.523 175.522  0.00  0.00    -0.390 OA
ATOM    101  O4  IDS d 302     -17.282  52.236 175.279  0.00  0.00    -0.348 OA
ATOM    102  C1  IDS d 302     -20.161  52.128 173.326  0.00  0.00     0.161 C 
ATOM    103  H   IDS d 302     -18.565  52.929 176.709  0.00  0.00     0.092 H 
ATOM    104  H   IDS d 302     -20.469  51.816 175.730  0.00  0.00     0.104 H 
ATOM    105  H   IDS d 302     -20.270  54.209 173.177  0.00  0.00     0.097 H 
ATOM    106  H   IDS d 302     -18.132  54.491 174.707  0.00  0.00     0.091 H 
ATOM    107  H   IDS d 302     -20.793  53.920 175.609  0.00  0.00     0.210 HD
ATOM    108  H   IDS d 302     -20.142  51.800 172.307  0.00  0.00     0.133 H 
ATOM    109  O6  SGN d 305      -6.218  49.316 169.939  0.00  0.00    -0.254 OA
ATOM    110  C2  SGN d 305      -8.728  45.965 171.606  0.00  0.00     0.081 C 
ATOM    111  O1S SGN d 305     -10.940  44.906 169.857  0.00  0.00    -0.296 OA
ATOM    112  O5  SGN d 305      -8.594  48.224 170.759  0.00  0.00    -0.349 OA
ATOM    113  S1  SGN d 305     -10.273  43.993 170.735  0.00  0.00     0.156 S 
ATOM    114  O5S SGN d 305      -5.587  49.614 167.584  0.00  0.00    -0.572 OA
ATOM    115  C1  SGN d 305      -9.506  47.213 171.195  0.00  0.00     0.150 C 
ATOM    116  O3  SGN d 305      -7.045  45.227 173.208  0.00  0.00    -0.391 OA
ATOM    117  S2  SGN d 305      -5.447  50.223 168.903  0.00  0.00     0.251 S 
ATOM    118  O6S SGN d 305      -6.072  51.535 168.938  0.00  0.00    -0.572 OA
ATOM    119  C5  SGN d 305      -7.623  48.626 171.758  0.00  0.00     0.090 C 
ATOM    120  O4S SGN d 305      -4.085  50.214 169.392  0.00  0.00    -0.572 OA
ATOM    121  C6  SGN d 305      -6.775  49.744 171.146  0.00  0.00     0.067 C 
ATOM    122  N   SGN d 305      -9.657  44.873 171.959  0.00  0.00    -0.210 NA
ATOM    123  O2S SGN d 305      -9.183  43.363 170.046  0.00  0.00    -0.296 OA
ATOM    124  O3S SGN d 305     -11.151  43.070 171.373  0.00  0.00    -0.296 OA
ATOM    125  C4  SGN d 305      -6.811  47.418 172.253  0.00  0.00     0.089 C 
ATOM    126  O4  SGN d 305      -5.986  47.788 173.347  0.00  0.00    -0.390 OA
ATOM    127  C3  SGN d 305      -7.796  46.351 172.775  0.00  0.00     0.083 C 
ATOM    128  H   SGN d 305      -8.132  45.600 170.796  0.00  0.00     0.076 H 
ATOM    129  H   SGN d 305     -10.289  45.505 169.457  0.00  0.00     0.231 HD
ATOM    130  H   SGN d 305     -10.163  47.008 170.376  0.00  0.00     0.131 H 
ATOM    131  H   SGN d 305      -7.649  44.544 173.541  0.00  0.00     0.210 HD
ATOM    132  H   SGN d 305      -8.095  49.007 172.639  0.00  0.00     0.090 H 
ATOM    133  H   SGN d 305      -7.393  50.600 170.968  0.00  0.00     0.080 H 
ATOM    134  H   SGN d 305      -5.988  50.000 171.825  0.00  0.00     0.080 H 
ATOM    135  H   SGN d 305     -10.441  45.289 172.463  0.00  0.00     0.140 HD
ATOM    136  H   SGN d 305      -8.624  44.041 169.636  0.00  0.00     0.231 HD
ATOM    137  H   SGN d 305     -11.863  43.555 171.818  0.00  0.00     0.231 HD
ATOM    138  H   SGN d 305      -6.211  47.054 171.444  0.00  0.00     0.091 H 
ATOM    139  H   SGN d 305      -6.541  48.115 174.073  0.00  0.00     0.210 HD
ATOM    140  H   SGN d 305      -8.380  46.715 173.595  0.00  0.00     0.089 H 
ENDROOT
TORSDOF 45
ENDMDL
MODEL 25
REMARK VINA RESULT:      -6.0      2.602     13.334
REMARK  0 active torsions:
REMARK  status: ('A' for Active; 'I' for Inactive)
REMARK       I    between atoms: C6_1  and  C5_56 
REMARK       I    between atoms: O3_2  and  C3_19 
REMARK       I    between atoms: C2_3  and  N_45 
REMARK       I    between atoms: S1_4  and  N_72 
REMARK       I    between atoms: S1_4  and  O1S_74 
REMARK       I    between atoms: S1_4  and  O2S_20 
REMARK       I    between atoms: S1_4  and  O3S_35 
REMARK       I    between atoms: C5_5  and  C6_27 
REMARK       I    between atoms: C3_7  and  O3_15 
REMARK       I    between atoms: O2S_10  and  S1_60 
REMARK       I    between atoms: O6_11  and  C6_27 
REMARK       I    between atoms: O6_11  and  S2_67 
REMARK       I    between atoms: C4_14  and  O4_71 
REMARK       I    between atoms: C4_16  and  O4_81 
REMARK       I    between atoms: C6_18  and  C5_53 
REMARK       I    between atoms: O2_21  and  C2_30 
REMARK       I    between atoms: O2_21  and  S_68 
REMARK       I    between atoms: O6_22  and  C6_61 
REMARK       I    between atoms: O6_22  and  S2_47 
REMARK       I    between atoms: O1_23  and  C1_86 
REMARK       I    between atoms: O6_24  and  C6_57 
REMARK       I    between atoms: O6_24  and  S2_89 
REMARK       I    between atoms: C4_25  and  O4_85 
REMARK       I    between atoms: C2_26  and  N_73 
REMARK       I    between atoms: C2_28  and  N_72 
REMARK       I    between atoms: O1S_32  and  S1_37 
REMARK       I    between atoms: S1_37  and  N_73 
REMARK       I    between atoms: S1_37  and  O2S_78 
REMARK       I    between atoms: S1_37  and  O3S_82 
REMARK       I    between atoms: C1_39  and  O4_71 
REMARK       I    between atoms: S_41  and  O2_63 
REMARK       I    between atoms: O3_43  and  C3_88 
REMARK       I    between atoms: O1S_44  and  S1_60 
REMARK       I    between atoms: N_45  and  S1_60 
REMARK       I    between atoms: C1_46  and  O4_85 
REMARK       I    between atoms: O4_48  and  C4_54 
REMARK       I    between atoms: O4_48  and  C1_90 
REMARK       I    between atoms: O3_49  and  C3_77 
REMARK       I    between atoms: C5_52  and  C6_61 
REMARK       I    between atoms: C6_57  and  C5_79 
REMARK       I    between atoms: C2_58  and  O2_63 
REMARK       I    between atoms: S1_60  and  O3S_75 
REMARK       I    between atoms: C3_64  and  O3_80 
REMARK       I    between atoms: O4_81  and  C1_84 
REMARK       I    between atoms: C4_83  and  O4_87 
ROOT
ATOM      1  C6  IDS d 304     -19.022  47.728 173.164  0.00  0.00     0.206 C 
ATOM      2  O61 IDS d 304     -19.465  47.354 174.231  0.00  0.00    -0.646 OA
ATOM      3  C4  IDS d 304     -18.317  49.920 172.261  0.00  0.00     0.103 C 
ATOM      4  O2  IDS d 304     -17.524  51.962 174.443  0.00  0.00    -0.244 OA
ATOM      5  O62 IDS d 304     -19.466  47.268 172.156  0.00  0.00    -0.646 OA
ATOM      6  C2  IDS d 304     -16.626  51.165 173.717  0.00  0.00     0.134 C 
ATOM      7  O1S IDS d 304     -16.695  54.163 174.853  0.00  0.00    -0.572 OA
ATOM      8  O3  IDS d 304     -16.190  50.508 171.435  0.00  0.00    -0.390 OA
ATOM      9  C5  IDS d 304     -17.959  48.727 173.107  0.00  0.00     0.152 C 
ATOM     10  O5  IDS d 304     -17.606  49.078 174.406  0.00  0.00    -0.340 OA
ATOM     11  O2S IDS d 304     -18.416  53.205 176.181  0.00  0.00    -0.572 OA
ATOM     12  O3S IDS d 304     -16.211  52.487 176.455  0.00  0.00    -0.572 OA
ATOM     13  S   IDS d 304     -17.173  53.001 175.545  0.00  0.00     0.252 S 
ATOM     14  O4  IDS d 304     -19.476  50.491 172.769  0.00  0.00    -0.348 OA
ATOM     15  C3  IDS d 304     -17.205  50.959 172.290  0.00  0.00     0.094 C 
ATOM     16  C1  IDS d 304     -16.419  49.847 174.473  0.00  0.00     0.161 C 
ATOM     17  H   IDS d 304     -18.458  49.599 171.250  0.00  0.00     0.092 H 
ATOM     18  H   IDS d 304     -15.667  51.628 173.616  0.00  0.00     0.097 H 
ATOM     19  H   IDS d 304     -16.552  50.379 170.544  0.00  0.00     0.210 HD
ATOM     20  H   IDS d 304     -17.111  48.298 172.616  0.00  0.00     0.104 H 
ATOM     21  H   IDS d 304     -17.602  51.902 171.977  0.00  0.00     0.091 H 
ATOM     22  H   IDS d 304     -16.211  50.024 175.507  0.00  0.00     0.133 H 
ATOM     23  O3  SGN d 303     -15.121  46.398 173.039  0.00  0.00    -0.391 OA
ATOM     24  S1  SGN d 303     -12.413  43.647 174.163  0.00  0.00     0.156 S 
ATOM     25  O5S SGN d 303     -15.952  48.754 179.401  0.00  0.00    -0.572 OA
ATOM     26  C4  SGN d 303     -14.710  48.165 174.667  0.00  0.00     0.095 C 
ATOM     27  C3  SGN d 303     -14.091  47.105 173.682  0.00  0.00     0.083 C 
ATOM     28  O2S SGN d 303     -13.750  43.157 174.281  0.00  0.00    -0.296 OA
ATOM     29  O6  SGN d 303     -14.783  49.198 177.383  0.00  0.00    -0.254 OA
ATOM     30  C2  SGN d 303     -13.243  46.101 174.479  0.00  0.00     0.081 C 
ATOM     31  O3S SGN d 303     -11.638  42.965 173.206  0.00  0.00    -0.296 OA
ATOM     32  O5  SGN d 303     -12.845  47.766 176.171  0.00  0.00    -0.349 OA
ATOM     33  C1  SGN d 303     -12.201  46.829 175.323  0.00  0.00     0.150 C 
ATOM     34  O4S SGN d 303     -15.426  51.012 178.804  0.00  0.00    -0.572 OA
ATOM     35  C6  SGN d 303     -13.943  49.810 176.476  0.00  0.00     0.067 C 
ATOM     36  O6S SGN d 303     -13.658  49.522 179.489  0.00  0.00    -0.572 OA
ATOM     37  N   SGN d 303     -12.571  45.146 173.600  0.00  0.00    -0.210 NA
ATOM     38  O1S SGN d 303     -11.774  43.737 175.454  0.00  0.00    -0.296 OA
ATOM     39  C5  SGN d 303     -13.552  48.777 175.465  0.00  0.00     0.091 C 
ATOM     40  O4  SGN d 303     -15.314  49.178 173.918  0.00  0.00    -0.348 OA
ATOM     41  S2  SGN d 303     -14.963  49.652 178.856  0.00  0.00     0.251 S 
ATOM     42  H   SGN d 303     -15.668  47.016 172.530  0.00  0.00     0.210 HD
ATOM     43  H   SGN d 303     -15.433  47.712 175.314  0.00  0.00     0.091 H 
ATOM     44  H   SGN d 303     -13.487  47.612 172.960  0.00  0.00     0.089 H 
ATOM     45  H   SGN d 303     -14.224  43.669 174.954  0.00  0.00     0.231 HD
ATOM     46  H   SGN d 303     -13.910  45.564 175.119  0.00  0.00     0.076 H 
ATOM     47  H   SGN d 303     -10.747  43.348 173.179  0.00  0.00     0.231 HD
ATOM     48  H   SGN d 303     -11.666  46.151 175.956  0.00  0.00     0.131 H 
ATOM     49  H   SGN d 303     -13.073  50.181 176.975  0.00  0.00     0.080 H 
ATOM     50  H   SGN d 303     -14.431  50.637 176.003  0.00  0.00     0.080 H 
ATOM     51  H   SGN d 303     -13.103  45.096 172.731  0.00  0.00     0.140 HD
ATOM     52  H   SGN d 303     -12.352  44.215 176.068  0.00  0.00     0.231 HD
ATOM     53  H   SGN d 303     -12.956  49.259 174.718  0.00  0.00     0.090 H 
ATOM     54  C2  SGN d 301      -5.480  52.188 172.852  0.00  0.00     0.081 C 
ATOM     55  C5  SGN d 301      -5.699  49.691 171.599  0.00  0.00     0.091 C 
ATOM     56  O6S SGN d 301      -5.401  49.089 168.104  0.00  0.00    -0.572 OA
ATOM     57  C3  SGN d 301      -5.980  50.957 173.595  0.00  0.00     0.083 C 
ATOM     58  O2S SGN d 301      -6.717  54.372 174.595  0.00  0.00    -0.296 OA
ATOM     59  O6  SGN d 301      -7.081  49.252 169.778  0.00  0.00    -0.254 OA
ATOM     60  O3  SGN d 301      -6.839  51.319 174.653  0.00  0.00    -0.391 OA
ATOM     61  O1  SGN d 301      -3.375  51.142 172.271  0.00  0.00    -0.369 OA
ATOM     62  C6  SGN d 301      -6.181  48.657 170.619  0.00  0.00     0.067 C 
ATOM     63  O5S SGN d 301      -6.834  51.064 168.276  0.00  0.00    -0.572 OA
ATOM     64  O4S SGN d 301      -7.750  48.975 167.513  0.00  0.00    -0.572 OA
ATOM     65  O1S SGN d 301      -5.581  55.181 172.578  0.00  0.00    -0.296 OA
ATOM     66  N   SGN d 301      -4.793  53.111 173.734  0.00  0.00    -0.210 NA
ATOM     67  O4  SGN d 301      -7.367  49.074 173.105  0.00  0.00    -0.348 OA
ATOM     68  C4  SGN d 301      -6.743  50.170 172.547  0.00  0.00     0.095 C 
ATOM     69  S1  SGN d 301      -5.450  54.596 173.922  0.00  0.00     0.156 S 
ATOM     70  S2  SGN d 301      -6.741  49.619 168.334  0.00  0.00     0.251 S 
ATOM     71  O3S SGN d 301      -4.526  55.293 174.783  0.00  0.00    -0.296 OA
ATOM     72  O5  SGN d 301      -5.203  50.801 170.889  0.00  0.00    -0.350 OA
ATOM     73  C1  SGN d 301      -4.556  51.732 171.719  0.00  0.00     0.147 C 
ATOM     74  H   SGN d 301      -6.321  52.716 172.451  0.00  0.00     0.076 H 
ATOM     75  H   SGN d 301      -4.942  49.213 172.185  0.00  0.00     0.090 H 
ATOM     76  H   SGN d 301      -5.180  50.398 174.034  0.00  0.00     0.089 H 
ATOM     77  H   SGN d 301      -7.321  53.902 173.999  0.00  0.00     0.231 HD
ATOM     78  H   SGN d 301      -7.586  51.830 174.303  0.00  0.00     0.210 HD
ATOM     79  H   SGN d 301      -2.930  51.786 172.844  0.00  0.00     0.212 HD
ATOM     80  H   SGN d 301      -6.652  47.852 171.143  0.00  0.00     0.080 H 
ATOM     81  H   SGN d 301      -5.357  48.265 170.059  0.00  0.00     0.080 H 
ATOM     82  H   SGN d 301      -6.216  54.661 172.060  0.00  0.00     0.231 HD
ATOM     83  H   SGN d 301      -3.849  53.238 173.370  0.00  0.00     0.140 HD
ATOM     84  H   SGN d 301      -7.498  50.771 172.086  0.00  0.00     0.091 H 
ATOM     85  H   SGN d 301      -4.850  56.193 174.944  0.00  0.00     0.231 HD
ATOM     86  H   SGN d 301      -4.294  52.586 171.132  0.00  0.00     0.131 H 
ATOM     87  O1S IDS d 302     -11.395  45.394 171.178  0.00  0.00    -0.572 OA
ATOM     88  O2S IDS d 302     -10.616  46.518 169.243  0.00  0.00    -0.572 OA
ATOM     89  O62 IDS d 302      -9.899  48.975 177.137  0.00  0.00    -0.646 OA
ATOM     90  C6  IDS d 302      -9.922  49.461 176.019  0.00  0.00     0.206 C 
ATOM     91  C4  IDS d 302      -9.930  47.325 174.733  0.00  0.00     0.103 C 
ATOM     92  S   IDS d 302     -10.305  46.056 170.551  0.00  0.00     0.252 S 
ATOM     93  O3S IDS d 302      -9.133  45.270 170.598  0.00  0.00    -0.572 OA
ATOM     94  C5  IDS d 302      -9.377  48.706 174.864  0.00  0.00     0.152 C 
ATOM     95  C2  IDS d 302      -8.929  47.446 172.348  0.00  0.00     0.134 C 
ATOM     96  O2  IDS d 302     -10.002  47.306 171.436  0.00  0.00    -0.244 OA
ATOM     97  C3  IDS d 302      -9.219  46.569 173.580  0.00  0.00     0.094 C 
ATOM     98  O61 IDS d 302     -10.393  50.575 175.861  0.00  0.00    -0.646 OA
ATOM     99  O5  IDS d 302      -9.574  49.386 173.665  0.00  0.00    -0.340 OA
ATOM    100  O3  IDS d 302      -7.993  46.080 174.072  0.00  0.00    -0.390 OA
ATOM    101  O4  IDS d 302     -11.293  47.446 174.442  0.00  0.00    -0.348 OA
ATOM    102  C1  IDS d 302      -8.690  48.929 172.669  0.00  0.00     0.161 C 
ATOM    103  H   IDS d 302      -9.778  46.776 175.638  0.00  0.00     0.092 H 
ATOM    104  H   IDS d 302      -8.330  48.620 175.067  0.00  0.00     0.104 H 
ATOM    105  H   IDS d 302      -8.009  47.099 171.925  0.00  0.00     0.097 H 
ATOM    106  H   IDS d 302      -9.880  45.791 173.260  0.00  0.00     0.091 H 
ATOM    107  H   IDS d 302      -7.435  46.823 174.348  0.00  0.00     0.210 HD
ATOM    108  H   IDS d 302      -8.865  49.512 171.789  0.00  0.00     0.133 H 
ATOM    109  O6  SGN d 305     -23.045  48.446 169.936  0.00  0.00    -0.254 OA
ATOM    110  C2  SGN d 305     -21.482  51.761 172.557  0.00  0.00     0.081 C 
ATOM    111  O1S SGN d 305     -19.773  53.863 171.239  0.00  0.00    -0.296 OA
ATOM    112  O5  SGN d 305     -21.027  49.897 171.089  0.00  0.00    -0.349 OA
ATOM    113  S1  SGN d 305     -20.613  54.256 172.329  0.00  0.00     0.156 S 
ATOM    114  O5S SGN d 305     -23.715  48.660 167.581  0.00  0.00    -0.572 OA
ATOM    115  C1  SGN d 305     -20.410  50.960 171.820  0.00  0.00     0.150 C 
ATOM    116  O3  SGN d 305     -23.199  51.496 174.266  0.00  0.00    -0.391 OA
ATOM    117  S2  SGN d 305     -23.593  47.689 168.664  0.00  0.00     0.251 S 
ATOM    118  O6S SGN d 305     -22.624  46.659 168.331  0.00  0.00    -0.572 OA
ATOM    119  C5  SGN d 305     -21.780  48.966 171.907  0.00  0.00     0.090 C 
ATOM    120  O4S SGN d 305     -24.869  47.166 169.104  0.00  0.00    -0.572 OA
ATOM    121  C6  SGN d 305     -22.315  47.872 170.978  0.00  0.00     0.067 C 
ATOM    122  N   SGN d 305     -20.877  52.927 173.232  0.00  0.00    -0.210 NA
ATOM    123  O2S SGN d 305     -21.878  54.714 171.829  0.00  0.00    -0.296 OA
ATOM    124  O3S SGN d 305     -19.992  55.173 173.227  0.00  0.00    -0.296 OA
ATOM    125  C4  SGN d 305     -22.866  49.696 172.712  0.00  0.00     0.089 C 
ATOM    126  O4  SGN d 305     -23.482  48.810 173.634  0.00  0.00    -0.390 OA
ATOM    127  C3  SGN d 305     -22.191  50.807 173.543  0.00  0.00     0.083 C 
ATOM    128  H   SGN d 305     -22.206  52.153 171.875  0.00  0.00     0.076 H 
ATOM    129  H   SGN d 305     -20.253  53.241 170.669  0.00  0.00     0.231 HD
ATOM    130  H   SGN d 305     -19.891  51.570 171.110  0.00  0.00     0.131 H 
ATOM    131  H   SGN d 305     -22.793  52.200 174.796  0.00  0.00     0.210 HD
ATOM    132  H   SGN d 305     -21.165  48.503 172.649  0.00  0.00     0.090 H 
ATOM    133  H   SGN d 305     -21.494  47.319 170.573  0.00  0.00     0.080 H 
ATOM    134  H   SGN d 305     -22.953  47.219 171.536  0.00  0.00     0.080 H 
ATOM    135  H   SGN d 305     -19.978  52.629 173.611  0.00  0.00     0.140 HD
ATOM    136  H   SGN d 305     -22.248  54.050 171.227  0.00  0.00     0.231 HD
ATOM    137  H   SGN d 305     -19.146  54.808 173.528  0.00  0.00     0.231 HD
ATOM    138  H   SGN d 305     -23.594  50.086 172.031  0.00  0.00     0.091 H 
ATOM    139  H   SGN d 305     -22.813  48.464 174.246  0.00  0.00     0.210 HD
ATOM    140  H   SGN d 305     -21.478  50.410 174.236  0.00  0.00     0.089 H 
ENDROOT
TORSDOF 45
ENDMDL
MODEL 26
REMARK VINA RESULT:      -5.9      3.056     13.432
REMARK  0 active torsions:
REMARK  status: ('A' for Active; 'I' for Inactive)
REMARK       I    between atoms: C6_1  and  C5_56 
REMARK       I    between atoms: O3_2  and  C3_19 
REMARK       I    between atoms: C2_3  and  N_45 
REMARK       I    between atoms: S1_4  and  N_72 
REMARK       I    between atoms: S1_4  and  O1S_74 
REMARK       I    between atoms: S1_4  and  O2S_20 
REMARK       I    between atoms: S1_4  and  O3S_35 
REMARK       I    between atoms: C5_5  and  C6_27 
REMARK       I    between atoms: C3_7  and  O3_15 
REMARK       I    between atoms: O2S_10  and  S1_60 
REMARK       I    between atoms: O6_11  and  C6_27 
REMARK       I    between atoms: O6_11  and  S2_67 
REMARK       I    between atoms: C4_14  and  O4_71 
REMARK       I    between atoms: C4_16  and  O4_81 
REMARK       I    between atoms: C6_18  and  C5_53 
REMARK       I    between atoms: O2_21  and  C2_30 
REMARK       I    between atoms: O2_21  and  S_68 
REMARK       I    between atoms: O6_22  and  C6_61 
REMARK       I    between atoms: O6_22  and  S2_47 
REMARK       I    between atoms: O1_23  and  C1_86 
REMARK       I    between atoms: O6_24  and  C6_57 
REMARK       I    between atoms: O6_24  and  S2_89 
REMARK       I    between atoms: C4_25  and  O4_85 
REMARK       I    between atoms: C2_26  and  N_73 
REMARK       I    between atoms: C2_28  and  N_72 
REMARK       I    between atoms: O1S_32  and  S1_37 
REMARK       I    between atoms: S1_37  and  N_73 
REMARK       I    between atoms: S1_37  and  O2S_78 
REMARK       I    between atoms: S1_37  and  O3S_82 
REMARK       I    between atoms: C1_39  and  O4_71 
REMARK       I    between atoms: S_41  and  O2_63 
REMARK       I    between atoms: O3_43  and  C3_88 
REMARK       I    between atoms: O1S_44  and  S1_60 
REMARK       I    between atoms: N_45  and  S1_60 
REMARK       I    between atoms: C1_46  and  O4_85 
REMARK       I    between atoms: O4_48  and  C4_54 
REMARK       I    between atoms: O4_48  and  C1_90 
REMARK       I    between atoms: O3_49  and  C3_77 
REMARK       I    between atoms: C5_52  and  C6_61 
REMARK       I    between atoms: C6_57  and  C5_79 
REMARK       I    between atoms: C2_58  and  O2_63 
REMARK       I    between atoms: S1_60  and  O3S_75 
REMARK       I    between atoms: C3_64  and  O3_80 
REMARK       I    between atoms: O4_81  and  C1_84 
REMARK       I    between atoms: C4_83  and  O4_87 
ROOT
ATOM      1  C6  IDS d 304     -17.981  47.898 171.900  0.00  0.00     0.206 C 
ATOM      2  O61 IDS d 304     -18.344  47.002 172.636  0.00  0.00    -0.646 OA
ATOM      3  C4  IDS d 304     -17.745  50.347 172.150  0.00  0.00     0.103 C 
ATOM      4  O2  IDS d 304     -17.418  51.268 175.083  0.00  0.00    -0.244 OA
ATOM      5  O62 IDS d 304     -18.310  47.879 170.753  0.00  0.00    -0.646 OA
ATOM      6  C2  IDS d 304     -16.366  51.073 174.175  0.00  0.00     0.134 C 
ATOM      7  O1S IDS d 304     -17.074  53.146 176.517  0.00  0.00    -0.572 OA
ATOM      8  O3  IDS d 304     -15.784  51.627 171.899  0.00  0.00    -0.390 OA
ATOM      9  C5  IDS d 304     -17.152  48.988 172.406  0.00  0.00     0.152 C 
ATOM     10  O5  IDS d 304     -16.891  48.762 173.754  0.00  0.00    -0.340 OA
ATOM     11  O2S IDS d 304     -18.566  51.389 177.091  0.00  0.00    -0.572 OA
ATOM     12  O3S IDS d 304     -16.261  51.043 177.241  0.00  0.00    -0.572 OA
ATOM     13  S   IDS d 304     -17.303  51.731 176.563  0.00  0.00     0.252 S 
ATOM     14  O4  IDS d 304     -19.003  50.398 172.736  0.00  0.00    -0.348 OA
ATOM     15  C3  IDS d 304     -16.878  51.441 172.755  0.00  0.00     0.094 C 
ATOM     16  C1  IDS d 304     -15.893  49.618 174.279  0.00  0.00     0.161 C 
ATOM     17  H   IDS d 304     -17.807  50.505 171.094  0.00  0.00     0.092 H 
ATOM     18  H   IDS d 304     -15.526  51.697 174.392  0.00  0.00     0.097 H 
ATOM     19  H   IDS d 304     -16.103  51.857 171.012  0.00  0.00     0.210 HD
ATOM     20  H   IDS d 304     -16.228  48.995 171.866  0.00  0.00     0.104 H 
ATOM     21  H   IDS d 304     -17.461  52.332 172.857  0.00  0.00     0.091 H 
ATOM     22  H   IDS d 304     -15.736  49.336 175.300  0.00  0.00     0.133 H 
ATOM     23  O3  SGN d 303     -13.886  47.514 171.599  0.00  0.00    -0.391 OA
ATOM     24  S1  SGN d 303     -10.669  45.103 171.651  0.00  0.00     0.156 S 
ATOM     25  O5S SGN d 303     -15.247  46.493 178.220  0.00  0.00    -0.572 OA
ATOM     26  C4  SGN d 303     -13.870  48.380 173.878  0.00  0.00     0.095 C 
ATOM     27  C3  SGN d 303     -13.034  48.022 172.594  0.00  0.00     0.083 C 
ATOM     28  O2S SGN d 303     -11.874  44.377 171.398  0.00  0.00    -0.296 OA
ATOM     29  O6  SGN d 303     -14.181  48.020 176.745  0.00  0.00    -0.254 OA
ATOM     30  C2  SGN d 303     -12.000  46.940 172.941  0.00  0.00     0.081 C 
ATOM     31  O3S SGN d 303      -9.760  45.090 170.576  0.00  0.00    -0.296 OA
ATOM     32  O5  SGN d 303     -11.975  47.685 175.229  0.00  0.00    -0.349 OA
ATOM     33  C1  SGN d 303     -11.141  47.377 174.125  0.00  0.00     0.150 C 
ATOM     34  O4S SGN d 303     -15.203  48.828 178.752  0.00  0.00    -0.572 OA
ATOM     35  C6  SGN d 303     -13.481  49.122 176.300  0.00  0.00     0.067 C 
ATOM     36  O6S SGN d 303     -13.167  47.542 178.878  0.00  0.00    -0.572 OA
ATOM     37  N   SGN d 303     -11.135  46.635 171.803  0.00  0.00    -0.210 NA
ATOM     38  O1S SGN d 303     -10.074  44.707 172.905  0.00  0.00    -0.296 OA
ATOM     39  C5  SGN d 303     -12.873  48.758 174.981  0.00  0.00     0.091 C 
ATOM     40  O4  SGN d 303     -14.668  49.493 173.602  0.00  0.00    -0.348 OA
ATOM     41  S2  SGN d 303     -14.464  47.706 178.239  0.00  0.00     0.251 S 
ATOM     42  H   SGN d 303     -14.547  48.184 171.367  0.00  0.00     0.210 HD
ATOM     43  H   SGN d 303     -14.486  47.557 174.176  0.00  0.00     0.091 H 
ATOM     44  H   SGN d 303     -12.544  48.906 172.241  0.00  0.00     0.089 H 
ATOM     45  H   SGN d 303     -12.451  44.427 172.176  0.00  0.00     0.231 HD
ATOM     46  H   SGN d 303     -12.544  46.057 173.201  0.00  0.00     0.076 H 
ATOM     47  H   SGN d 303      -8.970  45.599 170.815  0.00  0.00     0.231 HD
ATOM     48  H   SGN d 303     -10.480  46.596 174.440  0.00  0.00     0.131 H 
ATOM     49  H   SGN d 303     -12.713  49.375 177.000  0.00  0.00     0.080 H 
ATOM     50  H   SGN d 303     -14.128  49.968 176.199  0.00  0.00     0.080 H 
ATOM     51  H   SGN d 303     -11.637  46.893 170.954  0.00  0.00     0.140 HD
ATOM     52  H   SGN d 303     -10.745  44.735 173.604  0.00  0.00     0.231 HD
ATOM     53  H   SGN d 303     -12.386  49.629 174.593  0.00  0.00     0.090 H 
ATOM     54  C2  SGN d 301      -5.679  54.403 175.018  0.00  0.00     0.081 C 
ATOM     55  C5  SGN d 301      -5.357  52.766 172.767  0.00  0.00     0.091 C 
ATOM     56  O6S SGN d 301      -4.910  53.898 169.423  0.00  0.00    -0.572 OA
ATOM     57  C3  SGN d 301      -5.915  52.899 175.077  0.00  0.00     0.083 C 
ATOM     58  O2S SGN d 301      -7.362  55.276 177.415  0.00  0.00    -0.296 OA
ATOM     59  O6  SGN d 301      -6.601  52.965 170.810  0.00  0.00    -0.254 OA
ATOM     60  O3  SGN d 301      -6.840  52.572 176.090  0.00  0.00    -0.391 OA
ATOM     61  O1  SGN d 301      -3.397  54.145 174.253  0.00  0.00    -0.369 OA
ATOM     62  C6  SGN d 301      -5.602  52.227 171.384  0.00  0.00     0.067 C 
ATOM     63  O5S SGN d 301      -6.728  55.275 170.309  0.00  0.00    -0.572 OA
ATOM     64  O4S SGN d 301      -7.178  53.640 168.604  0.00  0.00    -0.572 OA
ATOM     65  O1S SGN d 301      -6.406  57.112 176.101  0.00  0.00    -0.296 OA
ATOM     66  N   SGN d 301      -5.209  54.927 176.286  0.00  0.00    -0.210 NA
ATOM     67  O4  SGN d 301      -6.870  51.233 173.657  0.00  0.00    -0.348 OA
ATOM     68  C4  SGN d 301      -6.486  52.556 173.715  0.00  0.00     0.095 C 
ATOM     69  S1  SGN d 301      -6.165  56.011 177.048  0.00  0.00     0.156 S 
ATOM     70  S2  SGN d 301      -6.334  54.009 169.725  0.00  0.00     0.251 S 
ATOM     71  O3S SGN d 301      -5.416  56.393 178.220  0.00  0.00    -0.296 OA
ATOM     72  O5  SGN d 301      -5.100  54.147 172.683  0.00  0.00    -0.350 OA
ATOM     73  C1  SGN d 301      -4.671  54.694 173.904  0.00  0.00     0.147 C 
ATOM     74  H   SGN d 301      -6.608  54.891 174.811  0.00  0.00     0.076 H 
ATOM     75  H   SGN d 301      -4.521  52.220 173.153  0.00  0.00     0.090 H 
ATOM     76  H   SGN d 301      -5.019  52.360 175.300  0.00  0.00     0.089 H 
ATOM     77  H   SGN d 301      -7.849  55.030 176.612  0.00  0.00     0.231 HD
ATOM     78  H   SGN d 301      -7.674  53.040 175.930  0.00  0.00     0.210 HD
ATOM     79  H   SGN d 301      -3.101  54.524 175.096  0.00  0.00     0.212 HD
ATOM     80  H   SGN d 301      -5.897  51.200 171.442  0.00  0.00     0.080 H 
ATOM     81  H   SGN d 301      -4.710  52.294 170.797  0.00  0.00     0.080 H 
ATOM     82  H   SGN d 301      -6.912  56.782 175.343  0.00  0.00     0.231 HD
ATOM     83  H   SGN d 301      -4.310  55.377 176.117  0.00  0.00     0.140 HD
ATOM     84  H   SGN d 301      -7.347  53.151 173.495  0.00  0.00     0.091 H 
ATOM     85  H   SGN d 301      -5.923  57.043 178.731  0.00  0.00     0.231 HD
ATOM     86  H   SGN d 301      -4.589  55.755 173.790  0.00  0.00     0.131 H 
ATOM     87  O1S IDS d 302     -10.017  48.177 169.883  0.00  0.00    -0.572 OA
ATOM     88  O2S IDS d 302      -9.476  50.184 168.746  0.00  0.00    -0.572 OA
ATOM     89  O62 IDS d 302      -9.357  48.834 176.934  0.00  0.00    -0.646 OA
ATOM     90  C6  IDS d 302      -9.473  49.765 176.154  0.00  0.00     0.206 C 
ATOM     91  C4  IDS d 302      -9.021  48.496 174.057  0.00  0.00     0.103 C 
ATOM     92  S   IDS d 302      -9.086  49.240 169.735  0.00  0.00     0.252 S 
ATOM     93  O3S IDS d 302      -7.775  48.750 169.546  0.00  0.00    -0.572 OA
ATOM     94  C5  IDS d 302      -8.772  49.738 174.848  0.00  0.00     0.152 C 
ATOM     95  C2  IDS d 302      -8.048  49.877 172.095  0.00  0.00     0.134 C 
ATOM     96  O2  IDS d 302      -9.060  49.977 171.111  0.00  0.00    -0.244 OA
ATOM     97  C3  IDS d 302      -8.158  48.497 172.769  0.00  0.00     0.094 C 
ATOM     98  O61 IDS d 302     -10.167  50.720 176.463  0.00  0.00    -0.646 OA
ATOM     99  O5  IDS d 302      -9.098  50.843 174.065  0.00  0.00    -0.340 OA
ATOM    100  O3  IDS d 302      -6.860  48.070 173.115  0.00  0.00    -0.390 OA
ATOM    101  O4  IDS d 302     -10.376  48.484 173.712  0.00  0.00    -0.348 OA
ATOM    102  C1  IDS d 302      -8.129  51.064 173.067  0.00  0.00     0.161 C 
ATOM    103  H   IDS d 302      -8.764  47.631 174.632  0.00  0.00     0.092 H 
ATOM    104  H   IDS d 302      -7.733  49.762 175.098  0.00  0.00     0.104 H 
ATOM    105  H   IDS d 302      -7.072  49.938 171.660  0.00  0.00     0.097 H 
ATOM    106  H   IDS d 302      -8.637  47.846 172.068  0.00  0.00     0.091 H 
ATOM    107  H   IDS d 302      -6.474  48.693 173.749  0.00  0.00     0.210 HD
ATOM    108  H   IDS d 302      -8.416  51.943 172.528  0.00  0.00     0.133 H 
ATOM    109  O6  SGN d 305     -22.038  49.264 168.935  0.00  0.00    -0.254 OA
ATOM    110  C2  SGN d 305     -21.229  51.232 172.907  0.00  0.00     0.081 C 
ATOM    111  O1S SGN d 305     -19.990  53.977 172.852  0.00  0.00    -0.296 OA
ATOM    112  O5  SGN d 305     -20.380  50.367 170.817  0.00  0.00    -0.349 OA
ATOM    113  S1  SGN d 305     -20.903  53.666 173.909  0.00  0.00     0.156 S 
ATOM    114  O5S SGN d 305     -22.719  50.406 166.869  0.00  0.00    -0.572 OA
ATOM    115  C1  SGN d 305     -20.007  51.070 172.006  0.00  0.00     0.150 C 
ATOM    116  O3  SGN d 305     -22.866  49.903 174.130  0.00  0.00    -0.391 OA
ATOM    117  S2  SGN d 305     -22.404  49.088 167.410  0.00  0.00     0.251 S 
ATOM    118  O6S SGN d 305     -21.237  48.523 166.754  0.00  0.00    -0.572 OA
ATOM    119  C5  SGN d 305     -20.927  49.044 171.050  0.00  0.00     0.090 C 
ATOM    120  O4S SGN d 305     -23.545  48.197 167.435  0.00  0.00    -0.572 OA
ATOM    121  C6  SGN d 305     -21.212  48.421 169.681  0.00  0.00     0.067 C 
ATOM    122  N   SGN d 305     -20.889  52.047 174.090  0.00  0.00    -0.210 NA
ATOM    123  O2S SGN d 305     -22.232  54.061 173.538  0.00  0.00    -0.296 OA
ATOM    124  O3S SGN d 305     -20.497  54.165 175.181  0.00  0.00    -0.296 OA
ATOM    125  C4  SGN d 305     -22.150  49.111 171.979  0.00  0.00     0.089 C 
ATOM    126  O4  SGN d 305     -22.573  47.805 172.339  0.00  0.00    -0.390 OA
ATOM    127  C3  SGN d 305     -21.730  49.820 173.284  0.00  0.00     0.083 C 
ATOM    128  H   SGN d 305     -22.014  51.753 172.401  0.00  0.00     0.076 H 
ATOM    129  H   SGN d 305     -20.324  53.610 172.018  0.00  0.00     0.231 HD
ATOM    130  H   SGN d 305     -19.622  52.020 171.700  0.00  0.00     0.131 H 
ATOM    131  H   SGN d 305     -22.622  50.347 174.958  0.00  0.00     0.210 HD
ATOM    132  H   SGN d 305     -20.234  48.414 171.567  0.00  0.00     0.090 H 
ATOM    133  H   SGN d 305     -20.290  48.276 169.159  0.00  0.00     0.080 H 
ATOM    134  H   SGN d 305     -21.703  47.480 169.819  0.00  0.00     0.080 H 
ATOM    135  H   SGN d 305     -19.951  51.780 174.387  0.00  0.00     0.140 HD
ATOM    136  H   SGN d 305     -22.449  53.691 172.668  0.00  0.00     0.231 HD
ATOM    137  H   SGN d 305     -19.595  53.865 175.373  0.00  0.00     0.231 HD
ATOM    138  H   SGN d 305     -22.938  49.628 171.472  0.00  0.00     0.091 H 
ATOM    139  H   SGN d 305     -21.851  47.347 172.798  0.00  0.00     0.210 HD
ATOM    140  H   SGN d 305     -20.955  49.288 173.796  0.00  0.00     0.089 H 
ENDROOT
TORSDOF 45
ENDMDL
MODEL 27
REMARK VINA RESULT:      -5.8      2.200     13.182
REMARK  0 active torsions:
REMARK  status: ('A' for Active; 'I' for Inactive)
REMARK       I    between atoms: C6_1  and  C5_56 
REMARK       I    between atoms: O3_2  and  C3_19 
REMARK       I    between atoms: C2_3  and  N_45 
REMARK       I    between atoms: S1_4  and  N_72 
REMARK       I    between atoms: S1_4  and  O1S_74 
REMARK       I    between atoms: S1_4  and  O2S_20 
REMARK       I    between atoms: S1_4  and  O3S_35 
REMARK       I    between atoms: C5_5  and  C6_27 
REMARK       I    between atoms: C3_7  and  O3_15 
REMARK       I    between atoms: O2S_10  and  S1_60 
REMARK       I    between atoms: O6_11  and  C6_27 
REMARK       I    between atoms: O6_11  and  S2_67 
REMARK       I    between atoms: C4_14  and  O4_71 
REMARK       I    between atoms: C4_16  and  O4_81 
REMARK       I    between atoms: C6_18  and  C5_53 
REMARK       I    between atoms: O2_21  and  C2_30 
REMARK       I    between atoms: O2_21  and  S_68 
REMARK       I    between atoms: O6_22  and  C6_61 
REMARK       I    between atoms: O6_22  and  S2_47 
REMARK       I    between atoms: O1_23  and  C1_86 
REMARK       I    between atoms: O6_24  and  C6_57 
REMARK       I    between atoms: O6_24  and  S2_89 
REMARK       I    between atoms: C4_25  and  O4_85 
REMARK       I    between atoms: C2_26  and  N_73 
REMARK       I    between atoms: C2_28  and  N_72 
REMARK       I    between atoms: O1S_32  and  S1_37 
REMARK       I    between atoms: S1_37  and  N_73 
REMARK       I    between atoms: S1_37  and  O2S_78 
REMARK       I    between atoms: S1_37  and  O3S_82 
REMARK       I    between atoms: C1_39  and  O4_71 
REMARK       I    between atoms: S_41  and  O2_63 
REMARK       I    between atoms: O3_43  and  C3_88 
REMARK       I    between atoms: O1S_44  and  S1_60 
REMARK       I    between atoms: N_45  and  S1_60 
REMARK       I    between atoms: C1_46  and  O4_85 
REMARK       I    between atoms: O4_48  and  C4_54 
REMARK       I    between atoms: O4_48  and  C1_90 
REMARK       I    between atoms: O3_49  and  C3_77 
REMARK       I    between atoms: C5_52  and  C6_61 
REMARK       I    between atoms: C6_57  and  C5_79 
REMARK       I    between atoms: C2_58  and  O2_63 
REMARK       I    between atoms: S1_60  and  O3S_75 
REMARK       I    between atoms: C3_64  and  O3_80 
REMARK       I    between atoms: O4_81  and  C1_84 
REMARK       I    between atoms: C4_83  and  O4_87 
ROOT
ATOM      1  C6  IDS d 304     -21.065  48.468 172.946  0.00  0.00     0.206 C 
ATOM      2  O61 IDS d 304     -21.689  48.668 173.969  0.00  0.00    -0.646 OA
ATOM      3  C4  IDS d 304     -19.939  49.931 171.300  0.00  0.00     0.103 C 
ATOM      4  O2  IDS d 304     -19.138  52.692 172.438  0.00  0.00    -0.244 OA
ATOM      5  O62 IDS d 304     -21.440  47.625 172.190  0.00  0.00    -0.646 OA
ATOM      6  C2  IDS d 304     -18.282  51.587 172.320  0.00  0.00     0.134 C 
ATOM      7  O1S IDS d 304     -18.056  54.766 171.959  0.00  0.00    -0.572 OA
ATOM      8  O3  IDS d 304     -17.662  49.913 170.694  0.00  0.00    -0.390 OA
ATOM      9  C5  IDS d 304     -19.869  49.247 172.639  0.00  0.00     0.152 C 
ATOM     10  O5  IDS d 304     -19.635  50.137 173.683  0.00  0.00    -0.340 OA
ATOM     11  O2S IDS d 304     -20.052  54.662 173.243  0.00  0.00    -0.572 OA
ATOM     12  O3S IDS d 304     -18.027  53.999 174.199  0.00  0.00    -0.572 OA
ATOM     13  S   IDS d 304     -18.781  54.097 173.000  0.00  0.00     0.252 S 
ATOM     14  O4  IDS d 304     -21.057  50.753 171.281  0.00  0.00    -0.348 OA
ATOM     15  C3  IDS d 304     -18.700  50.782 171.059  0.00  0.00     0.094 C 
ATOM     16  C1  IDS d 304     -18.366  50.762 173.610  0.00  0.00     0.161 C 
ATOM     17  H   IDS d 304     -19.996  49.187 170.533  0.00  0.00     0.092 H 
ATOM     18  H   IDS d 304     -17.260  51.880 172.196  0.00  0.00     0.097 H 
ATOM     19  H   IDS d 304     -17.923  49.410 169.907  0.00  0.00     0.210 HD
ATOM     20  H   IDS d 304     -19.037  48.580 172.554  0.00  0.00     0.104 H 
ATOM     21  H   IDS d 304     -18.912  51.496 170.291  0.00  0.00     0.091 H 
ATOM     22  H   IDS d 304     -18.267  51.385 174.474  0.00  0.00     0.133 H 
ATOM     23  O3  SGN d 303     -17.414  46.959 174.133  0.00  0.00    -0.391 OA
ATOM     24  S1  SGN d 303     -15.301  44.865 176.836  0.00  0.00     0.156 S 
ATOM     25  O5S SGN d 303     -18.690  52.061 178.500  0.00  0.00    -0.572 OA
ATOM     26  C4  SGN d 303     -16.959  49.248 174.840  0.00  0.00     0.095 C 
ATOM     27  C3  SGN d 303     -16.383  47.809 174.564  0.00  0.00     0.083 C 
ATOM     28  O2S SGN d 303     -16.700  44.582 176.919  0.00  0.00    -0.296 OA
ATOM     29  O6  SGN d 303     -17.223  51.429 176.742  0.00  0.00    -0.254 OA
ATOM     30  C2  SGN d 303     -15.797  47.235 175.863  0.00  0.00     0.081 C 
ATOM     31  O3S SGN d 303     -14.519  43.762 176.442  0.00  0.00    -0.296 OA
ATOM     32  O5  SGN d 303     -15.377  49.463 176.670  0.00  0.00    -0.349 OA
ATOM     33  C1  SGN d 303     -14.775  48.196 176.464  0.00  0.00     0.150 C 
ATOM     34  O4S SGN d 303     -17.769  53.736 177.059  0.00  0.00    -0.572 OA
ATOM     35  C6  SGN d 303     -16.195  51.487 175.824  0.00  0.00     0.067 C 
ATOM     36  O6S SGN d 303     -16.338  52.616 178.643  0.00  0.00    -0.572 OA
ATOM     37  N   SGN d 303     -15.167  45.935 175.643  0.00  0.00    -0.210 NA
ATOM     38  O1S SGN d 303     -14.824  45.500 178.041  0.00  0.00    -0.296 OA
ATOM     39  C5  SGN d 303     -15.834  50.076 175.473  0.00  0.00     0.091 C 
ATOM     40  O4  SGN d 303     -17.310  49.835 173.621  0.00  0.00    -0.348 OA
ATOM     41  S2  SGN d 303     -17.519  52.529 177.797  0.00  0.00     0.251 S 
ATOM     42  H   SGN d 303     -17.797  47.306 173.312  0.00  0.00     0.210 HD
ATOM     43  H   SGN d 303     -17.816  49.201 175.480  0.00  0.00     0.091 H 
ATOM     44  H   SGN d 303     -15.624  47.877 173.812  0.00  0.00     0.089 H 
ATOM     45  H   SGN d 303     -17.175  45.382 177.194  0.00  0.00     0.231 HD
ATOM     46  H   SGN d 303     -16.611  47.107 176.545  0.00  0.00     0.076 H 
ATOM     47  H   SGN d 303     -13.586  44.023 176.407  0.00  0.00     0.231 HD
ATOM     48  H   SGN d 303     -14.428  47.855 177.417  0.00  0.00     0.131 H 
ATOM     49  H   SGN d 303     -15.350  51.985 176.252  0.00  0.00     0.080 H 
ATOM     50  H   SGN d 303     -16.494  52.031 174.953  0.00  0.00     0.080 H 
ATOM     51  H   SGN d 303     -15.586  45.524 174.809  0.00  0.00     0.140 HD
ATOM     52  H   SGN d 303     -15.399  46.249 178.261  0.00  0.00     0.231 HD
ATOM     53  H   SGN d 303     -15.085  50.111 174.709  0.00  0.00     0.090 H 
ATOM     54  C2  SGN d 301      -7.087  51.293 173.102  0.00  0.00     0.081 C 
ATOM     55  C5  SGN d 301      -7.507  48.522 173.085  0.00  0.00     0.091 C 
ATOM     56  O6S SGN d 301      -6.862  46.342 170.348  0.00  0.00    -0.572 OA
ATOM     57  C3  SGN d 301      -7.851  50.589 174.215  0.00  0.00     0.083 C 
ATOM     58  O2S SGN d 301      -8.201  54.119 173.428  0.00  0.00    -0.296 OA
ATOM     59  O6  SGN d 301      -8.698  47.385 171.439  0.00  0.00    -0.254 OA
ATOM     60  O3  SGN d 301      -8.775  51.462 174.825  0.00  0.00    -0.391 OA
ATOM     61  O1  SGN d 301      -5.101  49.949 173.439  0.00  0.00    -0.369 OA
ATOM     62  C6  SGN d 301      -8.007  47.188 172.603  0.00  0.00     0.067 C 
ATOM     63  O5S SGN d 301      -8.002  48.266 169.355  0.00  0.00    -0.572 OA
ATOM     64  O4S SGN d 301      -9.109  46.133 169.460  0.00  0.00    -0.572 OA
ATOM     65  O1S SGN d 301      -6.715  53.812 171.503  0.00  0.00    -0.296 OA
ATOM     66  N   SGN d 301      -6.389  52.469 173.584  0.00  0.00    -0.210 NA
ATOM     67  O4  SGN d 301      -9.424  48.799 174.382  0.00  0.00    -0.348 OA
ATOM     68  C4  SGN d 301      -8.582  49.461 173.513  0.00  0.00     0.095 C 
ATOM     69  S1  SGN d 301      -6.841  53.913 172.966  0.00  0.00     0.156 S 
ATOM     70  S2  SGN d 301      -8.129  47.012 170.071  0.00  0.00     0.251 S 
ATOM     71  O3S SGN d 301      -5.941  54.863 173.572  0.00  0.00    -0.296 OA
ATOM     72  O5  SGN d 301      -6.770  49.135 172.055  0.00  0.00    -0.350 OA
ATOM     73  C1  SGN d 301      -6.104  50.297 172.481  0.00  0.00     0.147 C 
ATOM     74  H   SGN d 301      -7.784  51.631 172.364  0.00  0.00     0.076 H 
ATOM     75  H   SGN d 301      -6.908  48.320 173.948  0.00  0.00     0.090 H 
ATOM     76  H   SGN d 301      -7.203  50.244 174.993  0.00  0.00     0.089 H 
ATOM     77  H   SGN d 301      -8.788  53.470 173.008  0.00  0.00     0.231 HD
ATOM     78  H   SGN d 301      -9.388  51.803 174.156  0.00  0.00     0.210 HD
ATOM     79  H   SGN d 301      -4.642  50.752 173.733  0.00  0.00     0.212 HD
ATOM     80  H   SGN d 301      -8.653  46.755 173.339  0.00  0.00     0.080 H 
ATOM     81  H   SGN d 301      -7.186  46.523 172.437  0.00  0.00     0.080 H 
ATOM     82  H   SGN d 301      -7.348  53.157 171.168  0.00  0.00     0.231 HD
ATOM     83  H   SGN d 301      -5.398  52.344 173.378  0.00  0.00     0.140 HD
ATOM     84  H   SGN d 301      -9.177  49.829 172.704  0.00  0.00     0.091 H 
ATOM     85  H   SGN d 301      -6.148  55.755 173.252  0.00  0.00     0.231 HD
ATOM     86  H   SGN d 301      -5.648  50.758 171.630  0.00  0.00     0.131 H 
ATOM     87  O1S IDS d 302     -13.670  44.942 173.621  0.00  0.00    -0.572 OA
ATOM     88  O2S IDS d 302     -12.498  44.976 171.562  0.00  0.00    -0.572 OA
ATOM     89  O62 IDS d 302     -12.432  50.770 177.503  0.00  0.00    -0.646 OA
ATOM     90  C6  IDS d 302     -12.243  50.679 176.301  0.00  0.00     0.206 C 
ATOM     91  C4  IDS d 302     -12.400  48.197 176.131  0.00  0.00     0.103 C 
ATOM     92  S   IDS d 302     -12.425  45.156 172.970  0.00  0.00     0.252 S 
ATOM     93  O3S IDS d 302     -11.396  44.401 173.574  0.00  0.00    -0.572 OA
ATOM     94  C5  IDS d 302     -11.672  49.437 175.726  0.00  0.00     0.152 C 
ATOM     95  C2  IDS d 302     -11.099  47.121 174.168  0.00  0.00     0.134 C 
ATOM     96  O2  IDS d 302     -12.057  46.650 173.240  0.00  0.00    -0.244 OA
ATOM     97  C3  IDS d 302     -11.667  46.943 175.588  0.00  0.00     0.094 C 
ATOM     98  O61 IDS d 302     -12.523  51.622 175.579  0.00  0.00    -0.646 OA
ATOM     99  O5  IDS d 302     -11.615  49.492 174.336  0.00  0.00    -0.340 OA
ATOM    100  O3  IDS d 302     -10.598  46.653 176.458  0.00  0.00    -0.390 OA
ATOM    101  O4  IDS d 302     -13.683  48.266 175.578  0.00  0.00    -0.348 OA
ATOM    102  C1  IDS d 302     -10.689  48.561 173.827  0.00  0.00     0.161 C 
ATOM    103  H   IDS d 302     -12.445  48.124 177.198  0.00  0.00     0.092 H 
ATOM    104  H   IDS d 302     -10.684  49.381 176.130  0.00  0.00     0.104 H 
ATOM    105  H   IDS d 302     -10.194  46.553 174.118  0.00  0.00     0.097 H 
ATOM    106  H   IDS d 302     -12.388  46.154 175.538  0.00  0.00     0.091 H 
ATOM    107  H   IDS d 302      -9.977  47.398 176.466  0.00  0.00     0.210 HD
ATOM    108  H   IDS d 302     -10.664  48.678 172.763  0.00  0.00     0.133 H 
ATOM    109  O6  SGN d 305     -24.500  47.884 169.076  0.00  0.00    -0.254 OA
ATOM    110  C2  SGN d 305     -22.813  51.918 170.167  0.00  0.00     0.081 C 
ATOM    111  O1S SGN d 305     -20.663  53.036 168.377  0.00  0.00    -0.296 OA
ATOM    112  O5  SGN d 305     -22.453  49.557 169.798  0.00  0.00    -0.349 OA
ATOM    113  S1  SGN d 305     -21.568  53.951 169.004  0.00  0.00     0.156 S 
ATOM    114  O5S SGN d 305     -24.829  47.023 166.799  0.00  0.00    -0.572 OA
ATOM    115  C1  SGN d 305     -21.786  50.792 170.072  0.00  0.00     0.150 C 
ATOM    116  O3  SGN d 305     -24.752  52.603 171.474  0.00  0.00    -0.391 OA
ATOM    117  S2  SGN d 305     -24.988  46.662 168.204  0.00  0.00     0.251 S 
ATOM    118  O6S SGN d 305     -24.144  45.530 168.547  0.00  0.00    -0.572 OA
ATOM    119  C5  SGN d 305     -23.432  49.171 170.797  0.00  0.00     0.090 C 
ATOM    120  O4S SGN d 305     -26.371  46.497 168.595  0.00  0.00    -0.572 OA
ATOM    121  C6  SGN d 305     -23.999  47.812 170.378  0.00  0.00     0.067 C 
ATOM    122  N   SGN d 305     -22.135  53.217 170.344  0.00  0.00    -0.210 NA
ATOM    123  O2S SGN d 305     -22.679  54.212 168.135  0.00  0.00    -0.296 OA
ATOM    124  O3S SGN d 305     -20.938  55.133 169.491  0.00  0.00    -0.296 OA
ATOM    125  C4  SGN d 305     -24.492  50.268 170.980  0.00  0.00     0.089 C 
ATOM    126  O4  SGN d 305     -25.342  49.959 172.074  0.00  0.00    -0.390 OA
ATOM    127  C3  SGN d 305     -23.773  51.587 171.331  0.00  0.00     0.083 C 
ATOM    128  H   SGN d 305     -23.381  51.997 169.264  0.00  0.00     0.076 H 
ATOM    129  H   SGN d 305     -21.153  52.256 168.070  0.00  0.00     0.231 HD
ATOM    130  H   SGN d 305     -21.098  50.961 169.270  0.00  0.00     0.131 H 
ATOM    131  H   SGN d 305     -24.318  53.442 171.696  0.00  0.00     0.210 HD
ATOM    132  H   SGN d 305     -22.989  49.065 171.765  0.00  0.00     0.090 H 
ATOM    133  H   SGN d 305     -23.223  47.076 170.418  0.00  0.00     0.080 H 
ATOM    134  H   SGN d 305     -24.791  47.541 171.045  0.00  0.00     0.080 H 
ATOM    135  H   SGN d 305     -21.344  53.067 170.970  0.00  0.00     0.140 HD
ATOM    136  H   SGN d 305     -23.063  53.371 167.839  0.00  0.00     0.231 HD
ATOM    137  H   SGN d 305     -20.199  54.891 170.070  0.00  0.00     0.231 HD
ATOM    138  H   SGN d 305     -25.064  50.345 170.078  0.00  0.00     0.091 H 
ATOM    139  H   SGN d 305     -24.814  49.892 172.884  0.00  0.00     0.210 HD
ATOM    140  H   SGN d 305     -23.218  51.508 172.243  0.00  0.00     0.089 H 
ENDROOT
TORSDOF 45
ENDMDL
MODEL 28
REMARK VINA RESULT:      -5.6      3.332      6.112
REMARK  0 active torsions:
REMARK  status: ('A' for Active; 'I' for Inactive)
REMARK       I    between atoms: C6_1  and  C5_56 
REMARK       I    between atoms: O3_2  and  C3_19 
REMARK       I    between atoms: C2_3  and  N_45 
REMARK       I    between atoms: S1_4  and  N_72 
REMARK       I    between atoms: S1_4  and  O1S_74 
REMARK       I    between atoms: S1_4  and  O2S_20 
REMARK       I    between atoms: S1_4  and  O3S_35 
REMARK       I    between atoms: C5_5  and  C6_27 
REMARK       I    between atoms: C3_7  and  O3_15 
REMARK       I    between atoms: O2S_10  and  S1_60 
REMARK       I    between atoms: O6_11  and  C6_27 
REMARK       I    between atoms: O6_11  and  S2_67 
REMARK       I    between atoms: C4_14  and  O4_71 
REMARK       I    between atoms: C4_16  and  O4_81 
REMARK       I    between atoms: C6_18  and  C5_53 
REMARK       I    between atoms: O2_21  and  C2_30 
REMARK       I    between atoms: O2_21  and  S_68 
REMARK       I    between atoms: O6_22  and  C6_61 
REMARK       I    between atoms: O6_22  and  S2_47 
REMARK       I    between atoms: O1_23  and  C1_86 
REMARK       I    between atoms: O6_24  and  C6_57 
REMARK       I    between atoms: O6_24  and  S2_89 
REMARK       I    between atoms: C4_25  and  O4_85 
REMARK       I    between atoms: C2_26  and  N_73 
REMARK       I    between atoms: C2_28  and  N_72 
REMARK       I    between atoms: O1S_32  and  S1_37 
REMARK       I    between atoms: S1_37  and  N_73 
REMARK       I    between atoms: S1_37  and  O2S_78 
REMARK       I    between atoms: S1_37  and  O3S_82 
REMARK       I    between atoms: C1_39  and  O4_71 
REMARK       I    between atoms: S_41  and  O2_63 
REMARK       I    between atoms: O3_43  and  C3_88 
REMARK       I    between atoms: O1S_44  and  S1_60 
REMARK       I    between atoms: N_45  and  S1_60 
REMARK       I    between atoms: C1_46  and  O4_85 
REMARK       I    between atoms: O4_48  and  C4_54 
REMARK       I    between atoms: O4_48  and  C1_90 
REMARK       I    between atoms: O3_49  and  C3_77 
REMARK       I    between atoms: C5_52  and  C6_61 
REMARK       I    between atoms: C6_57  and  C5_79 
REMARK       I    between atoms: C2_58  and  O2_63 
REMARK       I    between atoms: S1_60  and  O3S_75 
REMARK       I    between atoms: C3_64  and  O3_80 
REMARK       I    between atoms: O4_81  and  C1_84 
REMARK       I    between atoms: C4_83  and  O4_87 
ROOT
ATOM      1  C6  IDS d 304     -11.246  48.247 172.366  0.00  0.00     0.206 C 
ATOM      2  O61 IDS d 304     -10.695  49.077 173.060  0.00  0.00    -0.646 OA
ATOM      3  C4  IDS d 304     -11.918  45.890 172.701  0.00  0.00     0.103 C 
ATOM      4  O2  IDS d 304     -12.292  45.117 175.671  0.00  0.00    -0.244 OA
ATOM      5  O62 IDS d 304     -10.966  48.177 171.208  0.00  0.00    -0.646 OA
ATOM      6  C2  IDS d 304     -13.325  45.482 174.794  0.00  0.00     0.134 C 
ATOM      7  O1S IDS d 304     -12.917  43.370 177.173  0.00  0.00    -0.572 OA
ATOM      8  O3  IDS d 304     -14.091  44.990 172.558  0.00  0.00    -0.390 OA
ATOM      9  C5  IDS d 304     -12.241  47.342 172.934  0.00  0.00     0.152 C 
ATOM     10  O5  IDS d 304     -12.401  47.645 174.283  0.00  0.00    -0.340 OA
ATOM     11  O2S IDS d 304     -11.106  44.835 177.640  0.00  0.00    -0.572 OA
ATOM     12  O3S IDS d 304     -13.300  45.605 177.860  0.00  0.00    -0.572 OA
ATOM     13  S   IDS d 304     -12.431  44.719 177.167  0.00  0.00     0.252 S 
ATOM     14  O4  IDS d 304     -10.669  45.622 173.243  0.00  0.00    -0.348 OA
ATOM     15  C3  IDS d 304     -12.947  44.990 173.369  0.00  0.00     0.094 C 
ATOM     16  C1  IDS d 304     -13.518  47.001 174.869  0.00  0.00     0.161 C 
ATOM     17  H   IDS d 304     -11.929  45.697 171.648  0.00  0.00     0.092 H 
ATOM     18  H   IDS d 304     -14.257  45.029 175.060  0.00  0.00     0.097 H 
ATOM     19  H   IDS d 304     -13.855  44.683 171.668  0.00  0.00     0.210 HD
ATOM     20  H   IDS d 304     -13.171  47.493 172.427  0.00  0.00     0.104 H 
ATOM     21  H   IDS d 304     -12.534  44.010 173.479  0.00  0.00     0.091 H 
ATOM     22  H   IDS d 304     -13.580  47.332 175.885  0.00  0.00     0.133 H 
ATOM     23  O3  SGN d 303     -15.209  49.375 172.197  0.00  0.00    -0.391 OA
ATOM     24  S1  SGN d 303     -17.923  52.340 172.285  0.00  0.00     0.156 S 
ATOM     25  O5S SGN d 303     -13.419  50.286 178.730  0.00  0.00    -0.572 OA
ATOM     26  C4  SGN d 303     -15.293  48.582 174.501  0.00  0.00     0.095 C 
ATOM     27  C3  SGN d 303     -16.100  49.057 173.235  0.00  0.00     0.083 C 
ATOM     28  O2S SGN d 303     -16.616  52.824 171.967  0.00  0.00    -0.296 OA
ATOM     29  O6  SGN d 303     -14.806  48.948 177.342  0.00  0.00    -0.254 OA
ATOM     30  C2  SGN d 303     -16.902  50.320 173.585  0.00  0.00     0.081 C 
ATOM     31  O3S SGN d 303     -18.856  52.494 171.242  0.00  0.00    -0.296 OA
ATOM     32  O5  SGN d 303     -16.972  49.648 175.894  0.00  0.00    -0.349 OA
ATOM     33  C1  SGN d 303     -17.779  50.079 174.810  0.00  0.00     0.150 C 
ATOM     34  O4S SGN d 303     -13.871  48.014 179.336  0.00  0.00    -0.572 OA
ATOM     35  C6  SGN d 303     -15.714  47.984 176.956  0.00  0.00     0.067 C 
ATOM     36  O6S SGN d 303     -15.629  49.656 179.493  0.00  0.00    -0.572 OA
ATOM     37  N   SGN d 303     -17.741  50.752 172.469  0.00  0.00    -0.210 NA
ATOM     38  O1S SGN d 303     -18.384  52.869 173.546  0.00  0.00    -0.296 OA
ATOM     39  C5  SGN d 303     -16.298  48.422 175.648  0.00  0.00     0.091 C 
ATOM     40  O4  SGN d 303     -14.726  47.334 174.232  0.00  0.00    -0.348 OA
ATOM     41  S2  SGN d 303     -14.411  49.240 178.815  0.00  0.00     0.251 S 
ATOM     42  H   SGN d 303     -14.693  48.588 171.962  0.00  0.00     0.210 HD
ATOM     43  H   SGN d 303     -14.524  49.284 174.750  0.00  0.00     0.091 H 
ATOM     44  H   SGN d 303     -16.758  48.271 172.928  0.00  0.00     0.089 H 
ATOM     45  H   SGN d 303     -16.027  52.686 172.726  0.00  0.00     0.231 HD
ATOM     46  H   SGN d 303     -16.195  51.093 173.797  0.00  0.00     0.076 H 
ATOM     47  H   SGN d 303     -19.717  52.147 171.525  0.00  0.00     0.231 HD
ATOM     48  H   SGN d 303     -18.271  50.976 175.124  0.00  0.00     0.131 H 
ATOM     49  H   SGN d 303     -16.488  47.894 177.690  0.00  0.00     0.080 H 
ATOM     50  H   SGN d 303     -15.238  47.030 176.859  0.00  0.00     0.080 H 
ATOM     51  H   SGN d 303     -17.330  50.386 171.611  0.00  0.00     0.140 HD
ATOM     52  H   SGN d 303     -17.702  52.735 174.222  0.00  0.00     0.231 HD
ATOM     53  H   SGN d 303     -16.952  47.647 175.306  0.00  0.00     0.090 H 
ATOM     54  C2  SGN d 301     -24.400  44.209 176.114  0.00  0.00     0.081 C 
ATOM     55  C5  SGN d 301     -24.506  45.822 173.825  0.00  0.00     0.091 C 
ATOM     56  O6S SGN d 301     -25.287  44.711 170.536  0.00  0.00    -0.572 OA
ATOM     57  C3  SGN d 301     -23.889  45.644 176.117  0.00  0.00     0.083 C 
ATOM     58  O2S SGN d 301     -22.812  43.098 178.476  0.00  0.00    -0.296 OA
ATOM     59  O6  SGN d 301     -23.399  45.348 171.833  0.00  0.00    -0.254 OA
ATOM     60  O3  SGN d 301     -22.880  45.818 177.086  0.00  0.00    -0.391 OA
ATOM     61  O1  SGN d 301     -26.625  44.866 175.421  0.00  0.00    -0.369 OA
ATOM     62  C6  SGN d 301     -24.221  46.272 172.418  0.00  0.00     0.067 C 
ATOM     63  O5S SGN d 301     -23.719  43.043 171.400  0.00  0.00    -0.572 OA
ATOM     64  O4S SGN d 301     -23.045  44.525 169.630  0.00  0.00    -0.572 OA
ATOM     65  O1S SGN d 301     -24.142  41.439 177.255  0.00  0.00    -0.296 OA
ATOM     66  N   SGN d 301     -24.908  43.812 177.412  0.00  0.00    -0.210 NA
ATOM     67  O4  SGN d 301     -22.702  47.070 174.614  0.00  0.00    -0.348 OA
ATOM     68  C4  SGN d 301     -23.320  45.842 174.726  0.00  0.00     0.095 C 
ATOM     69  S1  SGN d 301     -24.137  42.588 178.175  0.00  0.00     0.156 S 
ATOM     70  S2  SGN d 301     -23.897  44.346 170.791  0.00  0.00     0.251 S 
ATOM     71  O3S SGN d 301     -24.897  42.380 179.383  0.00  0.00    -0.296 OA
ATOM     72  O5  SGN d 301     -25.015  44.510 173.794  0.00  0.00    -0.350 OA
ATOM     73  C1  SGN d 301     -25.489  44.082 175.045  0.00  0.00     0.147 C 
ATOM     74  H   SGN d 301     -23.586  43.552 175.889  0.00  0.00     0.076 H 
ATOM     75  H   SGN d 301     -25.210  46.522 174.222  0.00  0.00     0.090 H 
ATOM     76  H   SGN d 301     -24.661  46.345 176.355  0.00  0.00     0.089 H 
ATOM     77  H   SGN d 301     -22.321  43.230 177.650  0.00  0.00     0.231 HD
ATOM     78  H   SGN d 301     -22.153  45.200 176.912  0.00  0.00     0.210 HD
ATOM     79  H   SGN d 301     -26.951  44.569 176.285  0.00  0.00     0.212 HD
ATOM     80  H   SGN d 301     -23.740  47.228 172.433  0.00  0.00     0.080 H 
ATOM     81  H   SGN d 301     -25.133  46.358 171.865  0.00  0.00     0.080 H 
ATOM     82  H   SGN d 301     -23.614  41.651 176.469  0.00  0.00     0.231 HD
ATOM     83  H   SGN d 301     -25.880  43.532 177.289  0.00  0.00     0.140 HD
ATOM     84  H   SGN d 301     -22.592  45.092 174.495  0.00  0.00     0.091 H 
ATOM     85  H   SGN d 301     -24.498  41.660 179.897  0.00  0.00     0.231 HD
ATOM     86  H   SGN d 301     -25.769  43.052 174.967  0.00  0.00     0.131 H 
ATOM     87  O1S IDS d 302     -19.200  49.397 170.638  0.00  0.00    -0.572 OA
ATOM     88  O2S IDS d 302     -20.146  47.498 169.584  0.00  0.00    -0.572 OA
ATOM     89  O62 IDS d 302     -19.686  49.046 177.724  0.00  0.00    -0.646 OA
ATOM     90  C6  IDS d 302     -19.775  48.090 176.971  0.00  0.00     0.206 C 
ATOM     91  C4  IDS d 302     -20.069  49.370 174.852  0.00  0.00     0.103 C 
ATOM     92  S   IDS d 302     -20.316  48.521 170.555  0.00  0.00     0.252 S 
ATOM     93  O3S IDS d 302     -21.520  49.241 170.398  0.00  0.00    -0.572 OA
ATOM     94  C5  IDS d 302     -20.511  48.215 175.689  0.00  0.00     0.152 C 
ATOM     95  C2  IDS d 302     -21.358  48.146 172.970  0.00  0.00     0.134 C 
ATOM     96  O2  IDS d 302     -20.421  47.836 171.954  0.00  0.00    -0.244 OA
ATOM     97  C3  IDS d 302     -20.969  49.497 173.595  0.00  0.00     0.094 C 
ATOM     98  O61 IDS d 302     -19.257  47.031 177.285  0.00  0.00    -0.646 OA
ATOM     99  O5  IDS d 302     -20.425  47.050 174.931  0.00  0.00    -0.340 OA
ATOM    100  O3  IDS d 302     -22.151  50.165 173.973  0.00  0.00    -0.390 OA
ATOM    101  O4  IDS d 302     -18.750  49.122 174.459  0.00  0.00    -0.348 OA
ATOM    102  C1  IDS d 302     -21.457  46.988 173.975  0.00  0.00     0.161 C 
ATOM    103  H   IDS d 302     -20.140  50.281 175.408  0.00  0.00     0.092 H 
ATOM    104  H   IDS d 302     -21.526  48.390 175.976  0.00  0.00     0.104 H 
ATOM    105  H   IDS d 302     -22.345  48.255 172.571  0.00  0.00     0.097 H 
ATOM    106  H   IDS d 302     -20.407  50.031 172.858  0.00  0.00     0.091 H 
ATOM    107  H   IDS d 302     -22.620  49.640 174.640  0.00  0.00     0.210 HD
ATOM    108  H   IDS d 302     -21.359  46.059 173.453  0.00  0.00     0.133 H 
ATOM    109  O6  SGN d 305      -7.632  46.081 169.305  0.00  0.00    -0.254 OA
ATOM    110  C2  SGN d 305      -8.629  44.394 173.363  0.00  0.00     0.081 C 
ATOM    111  O1S SGN d 305     -10.353  41.925 173.437  0.00  0.00    -0.296 OA
ATOM    112  O5  SGN d 305      -9.388  45.350 171.278  0.00  0.00    -0.349 OA
ATOM    113  S1  SGN d 305      -9.357  42.088 174.451  0.00  0.00     0.156 S 
ATOM    114  O5S SGN d 305      -7.257  44.783 167.253  0.00  0.00    -0.572 OA
ATOM    115  C1  SGN d 305      -9.836  44.758 172.500  0.00  0.00     0.150 C 
ATOM    116  O3  SGN d 305      -6.728  45.426 174.486  0.00  0.00    -0.391 OA
ATOM    117  S2  SGN d 305      -7.301  46.150 167.763  0.00  0.00     0.251 S 
ATOM    118  O6S SGN d 305      -8.370  46.905 167.132  0.00  0.00    -0.572 OA
ATOM    119  C5  SGN d 305      -8.598  46.554 171.450  0.00  0.00     0.090 C 
ATOM    120  O4S SGN d 305      -6.016  46.814 167.721  0.00  0.00    -0.572 OA
ATOM    121  C6  SGN d 305      -8.258  47.081 170.053  0.00  0.00     0.067 C 
ATOM    122  N   SGN d 305      -9.066  43.685 174.582  0.00  0.00    -0.210 NA
ATOM    123  O2S SGN d 305      -8.140  41.445 174.047  0.00  0.00    -0.296 OA
ATOM    124  O3S SGN d 305      -9.797  41.704 175.751  0.00  0.00    -0.296 OA
ATOM    125  C4  SGN d 305      -7.372  46.285 172.338  0.00  0.00     0.089 C 
ATOM    126  O4  SGN d 305      -6.702  47.498 172.641  0.00  0.00    -0.390 OA
ATOM    127  C3  SGN d 305      -7.862  45.698 173.678  0.00  0.00     0.083 C 
ATOM    128  H   SGN d 305      -7.974  43.725 172.846  0.00  0.00     0.076 H 
ATOM    129  H   SGN d 305      -9.991  42.204 172.580  0.00  0.00     0.231 HD
ATOM    130  H   SGN d 305     -10.401  43.888 172.238  0.00  0.00     0.131 H 
ATOM    131  H   SGN d 305      -7.017  45.056 175.335  0.00  0.00     0.210 HD
ATOM    132  H   SGN d 305      -9.142  47.314 171.971  0.00  0.00     0.090 H 
ATOM    133  H   SGN d 305      -9.158  47.381 169.559  0.00  0.00     0.080 H 
ATOM    134  H   SGN d 305      -7.597  47.917 170.144  0.00  0.00     0.080 H 
ATOM    135  H   SGN d 305      -9.927  44.129 174.903  0.00  0.00     0.140 HD
ATOM    136  H   SGN d 305      -7.894  41.747 173.158  0.00  0.00     0.231 HD
ATOM    137  H   SGN d 305     -10.620  42.170 175.965  0.00  0.00     0.231 HD
ATOM    138  H   SGN d 305      -6.714  45.619 171.820  0.00  0.00     0.091 H 
ATOM    139  H   SGN d 305      -7.308  48.094 173.110  0.00  0.00     0.210 HD
ATOM    140  H   SGN d 305      -8.505  46.376 174.200  0.00  0.00     0.089 H 
ENDROOT
TORSDOF 45
ENDMDL
MODEL 29
REMARK VINA RESULT:      -5.5      2.426      3.039
REMARK  0 active torsions:
REMARK  status: ('A' for Active; 'I' for Inactive)
REMARK       I    between atoms: C6_1  and  C5_56 
REMARK       I    between atoms: O3_2  and  C3_19 
REMARK       I    between atoms: C2_3  and  N_45 
REMARK       I    between atoms: S1_4  and  N_72 
REMARK       I    between atoms: S1_4  and  O1S_74 
REMARK       I    between atoms: S1_4  and  O2S_20 
REMARK       I    between atoms: S1_4  and  O3S_35 
REMARK       I    between atoms: C5_5  and  C6_27 
REMARK       I    between atoms: C3_7  and  O3_15 
REMARK       I    between atoms: O2S_10  and  S1_60 
REMARK       I    between atoms: O6_11  and  C6_27 
REMARK       I    between atoms: O6_11  and  S2_67 
REMARK       I    between atoms: C4_14  and  O4_71 
REMARK       I    between atoms: C4_16  and  O4_81 
REMARK       I    between atoms: C6_18  and  C5_53 
REMARK       I    between atoms: O2_21  and  C2_30 
REMARK       I    between atoms: O2_21  and  S_68 
REMARK       I    between atoms: O6_22  and  C6_61 
REMARK       I    between atoms: O6_22  and  S2_47 
REMARK       I    between atoms: O1_23  and  C1_86 
REMARK       I    between atoms: O6_24  and  C6_57 
REMARK       I    between atoms: O6_24  and  S2_89 
REMARK       I    between atoms: C4_25  and  O4_85 
REMARK       I    between atoms: C2_26  and  N_73 
REMARK       I    between atoms: C2_28  and  N_72 
REMARK       I    between atoms: O1S_32  and  S1_37 
REMARK       I    between atoms: S1_37  and  N_73 
REMARK       I    between atoms: S1_37  and  O2S_78 
REMARK       I    between atoms: S1_37  and  O3S_82 
REMARK       I    between atoms: C1_39  and  O4_71 
REMARK       I    between atoms: S_41  and  O2_63 
REMARK       I    between atoms: O3_43  and  C3_88 
REMARK       I    between atoms: O1S_44  and  S1_60 
REMARK       I    between atoms: N_45  and  S1_60 
REMARK       I    between atoms: C1_46  and  O4_85 
REMARK       I    between atoms: O4_48  and  C4_54 
REMARK       I    between atoms: O4_48  and  C1_90 
REMARK       I    between atoms: O3_49  and  C3_77 
REMARK       I    between atoms: C5_52  and  C6_61 
REMARK       I    between atoms: C6_57  and  C5_79 
REMARK       I    between atoms: C2_58  and  O2_63 
REMARK       I    between atoms: S1_60  and  O3S_75 
REMARK       I    between atoms: C3_64  and  O3_80 
REMARK       I    between atoms: O4_81  and  C1_84 
REMARK       I    between atoms: C4_83  and  O4_87 
ROOT
ATOM      1  C6  IDS d 304      -9.912  47.107 174.070  0.00  0.00     0.206 C 
ATOM      2  O61 IDS d 304      -9.550  46.569 175.097  0.00  0.00    -0.646 OA
ATOM      3  C4  IDS d 304     -11.056  46.322 172.022  0.00  0.00     0.103 C 
ATOM      4  O2  IDS d 304     -12.710  43.743 172.437  0.00  0.00    -0.244 OA
ATOM      5  O62 IDS d 304      -9.210  47.928 173.564  0.00  0.00    -0.646 OA
ATOM      6  C2  IDS d 304     -13.228  45.047 172.450  0.00  0.00     0.134 C 
ATOM      7  O1S IDS d 304     -14.173  42.170 171.395  0.00  0.00    -0.572 OA
ATOM      8  O3  IDS d 304     -13.110  47.081 171.154  0.00  0.00    -0.390 OA
ATOM      9  C5  IDS d 304     -11.190  46.758 173.457  0.00  0.00     0.152 C 
ATOM     10  O5  IDS d 304     -11.821  45.804 174.250  0.00  0.00    -0.340 OA
ATOM     11  O2S IDS d 304     -12.476  41.489 172.912  0.00  0.00    -0.572 OA
ATOM     12  O3S IDS d 304     -14.407  42.518 173.726  0.00  0.00    -0.572 OA
ATOM     13  S   IDS d 304     -13.500  42.420 172.637  0.00  0.00     0.252 S 
ATOM     14  O4  IDS d 304     -10.193  45.236 171.969  0.00  0.00    -0.348 OA
ATOM     15  C3  IDS d 304     -12.404  45.907 171.452  0.00  0.00     0.094 C 
ATOM     16  C1  IDS d 304     -13.171  45.582 173.886  0.00  0.00     0.161 C 
ATOM     17  H   IDS d 304     -10.678  47.141 171.445  0.00  0.00     0.092 H 
ATOM     18  H   IDS d 304     -14.251  45.077 172.140  0.00  0.00     0.097 H 
ATOM     19  H   IDS d 304     -12.596  47.617 170.530  0.00  0.00     0.210 HD
ATOM     20  H   IDS d 304     -11.800  47.636 173.412  0.00  0.00     0.104 H 
ATOM     21  H   IDS d 304     -12.244  45.304 170.583  0.00  0.00     0.091 H 
ATOM     22  H   IDS d 304     -13.575  44.873 174.578  0.00  0.00     0.133 H 
ATOM     23  O3  SGN d 303     -13.221  49.351 175.083  0.00  0.00    -0.391 OA
ATOM     24  S1  SGN d 303     -15.191  51.457 177.883  0.00  0.00     0.156 S 
ATOM     25  O5S SGN d 303     -14.058  43.426 178.389  0.00  0.00    -0.572 OA
ATOM     26  C4  SGN d 303     -14.351  47.195 175.224  0.00  0.00     0.095 C 
ATOM     27  C3  SGN d 303     -14.492  48.763 175.191  0.00  0.00     0.083 C 
ATOM     28  O2S SGN d 303     -13.804  51.319 178.200  0.00  0.00    -0.296 OA
ATOM     29  O6  SGN d 303     -14.984  44.735 176.636  0.00  0.00    -0.254 OA
ATOM     30  C2  SGN d 303     -15.138  49.246 176.498  0.00  0.00     0.081 C 
ATOM     31  O3S SGN d 303     -15.589  52.786 177.639  0.00  0.00    -0.296 OA
ATOM     32  O5  SGN d 303     -16.237  47.121 176.753  0.00  0.00    -0.349 OA
ATOM     33  C1  SGN d 303     -16.457  48.522 176.748  0.00  0.00     0.150 C 
ATOM     34  O4S SGN d 303     -15.097  42.348 176.520  0.00  0.00    -0.572 OA
ATOM     35  C6  SGN d 303     -15.813  45.126 175.606  0.00  0.00     0.067 C 
ATOM     36  O6S SGN d 303     -16.461  43.536 178.114  0.00  0.00    -0.572 OA
ATOM     37  N   SGN d 303     -15.374  50.688 176.482  0.00  0.00    -0.210 NA
ATOM     38  O1S SGN d 303     -16.019  50.784 178.856  0.00  0.00    -0.296 OA
ATOM     39  C5  SGN d 303     -15.742  46.619 175.520  0.00  0.00     0.091 C 
ATOM     40  O4  SGN d 303     -13.947  46.751 173.962  0.00  0.00    -0.348 OA
ATOM     41  S2  SGN d 303     -15.165  43.432 177.461  0.00  0.00     0.251 S 
ATOM     42  H   SGN d 303     -12.797  49.056 174.262  0.00  0.00     0.210 HD
ATOM     43  H   SGN d 303     -13.638  46.890 175.962  0.00  0.00     0.091 H 
ATOM     44  H   SGN d 303     -15.097  49.039 174.353  0.00  0.00     0.089 H 
ATOM     45  H   SGN d 303     -13.600  50.383 178.355  0.00  0.00     0.231 HD
ATOM     46  H   SGN d 303     -14.452  49.023 177.289  0.00  0.00     0.076 H 
ATOM     47  H   SGN d 303     -16.537  52.806 177.432  0.00  0.00     0.231 HD
ATOM     48  H   SGN d 303     -16.871  48.777 177.701  0.00  0.00     0.131 H 
ATOM     49  H   SGN d 303     -16.818  44.818 175.807  0.00  0.00     0.080 H 
ATOM     50  H   SGN d 303     -15.510  44.677 174.682  0.00  0.00     0.080 H 
ATOM     51  H   SGN d 303     -14.724  51.102 175.815  0.00  0.00     0.140 HD
ATOM     52  H   SGN d 303     -15.697  49.878 178.981  0.00  0.00     0.231 HD
ATOM     53  H   SGN d 303     -16.327  46.927 174.678  0.00  0.00     0.090 H 
ATOM     54  C2  SGN d 301     -23.949  48.324 171.866  0.00  0.00     0.081 C 
ATOM     55  C5  SGN d 301     -22.854  50.827 172.492  0.00  0.00     0.091 C 
ATOM     56  O6S SGN d 301     -22.437  53.536 170.223  0.00  0.00    -0.572 OA
ATOM     57  C3  SGN d 301     -23.244  48.585 173.191  0.00  0.00     0.083 C 
ATOM     58  O2S SGN d 301     -23.652  45.286 171.721  0.00  0.00    -0.296 OA
ATOM     59  O6  SGN d 301     -21.144  51.849 171.289  0.00  0.00    -0.254 OA
ATOM     60  O3  SGN d 301     -22.692  47.397 173.712  0.00  0.00    -0.391 OA
ATOM     61  O1  SGN d 301     -25.564  50.091 172.230  0.00  0.00    -0.369 OA
ATOM     62  C6  SGN d 301     -21.959  52.030 172.373  0.00  0.00     0.067 C 
ATOM     63  O5S SGN d 301     -21.655  51.569 168.995  0.00  0.00    -0.572 OA
ATOM     64  O4S SGN d 301     -20.088  53.256 169.689  0.00  0.00    -0.572 OA
ATOM     65  O1S SGN d 301     -24.647  46.322 169.734  0.00  0.00    -0.296 OA
ATOM     66  N   SGN d 301     -24.993  47.326 171.996  0.00  0.00    -0.210 NA
ATOM     67  O4  SGN d 301     -21.330  49.806 173.930  0.00  0.00    -0.348 OA
ATOM     68  C4  SGN d 301     -22.142  49.566 172.843  0.00  0.00     0.095 C 
ATOM     69  S1  SGN d 301     -24.813  45.941 171.146  0.00  0.00     0.156 S 
ATOM     70  S2  SGN d 301     -21.349  52.596 169.971  0.00  0.00     0.251 S 
ATOM     71  O3S SGN d 301     -26.015  45.192 171.418  0.00  0.00    -0.296 OA
ATOM     72  O5  SGN d 301     -23.526  50.630 171.271  0.00  0.00    -0.350 OA
ATOM     73  C1  SGN d 301     -24.525  49.647 171.353  0.00  0.00     0.147 C 
ATOM     74  H   SGN d 301     -23.239  47.936 171.167  0.00  0.00     0.076 H 
ATOM     75  H   SGN d 301     -23.527  51.037 173.296  0.00  0.00     0.090 H 
ATOM     76  H   SGN d 301     -23.914  48.959 173.937  0.00  0.00     0.089 H 
ATOM     77  H   SGN d 301     -22.857  45.807 171.525  0.00  0.00     0.231 HD
ATOM     78  H   SGN d 301     -22.074  47.017 173.067  0.00  0.00     0.210 HD
ATOM     79  H   SGN d 301     -26.254  49.411 172.286  0.00  0.00     0.212 HD
ATOM     80  H   SGN d 301     -21.368  52.131 173.259  0.00  0.00     0.080 H 
ATOM     81  H   SGN d 301     -22.545  52.916 172.250  0.00  0.00     0.080 H 
ATOM     82  H   SGN d 301     -23.822  46.821 169.628  0.00  0.00     0.231 HD
ATOM     83  H   SGN d 301     -25.868  47.756 171.698  0.00  0.00     0.140 HD
ATOM     84  H   SGN d 301     -21.523  49.190 172.055  0.00  0.00     0.091 H 
ATOM     85  H   SGN d 301     -25.984  44.346 170.943  0.00  0.00     0.231 HD
ATOM     86  H   SGN d 301     -24.923  49.484 170.373  0.00  0.00     0.131 H 
ATOM     87  O1S IDS d 302     -16.190  52.392 174.547  0.00  0.00    -0.572 OA
ATOM     88  O2S IDS d 302     -16.948  53.041 172.398  0.00  0.00    -0.572 OA
ATOM     89  O62 IDS d 302     -19.515  46.568 176.913  0.00  0.00    -0.646 OA
ATOM     90  C6  IDS d 302     -19.459  46.912 175.744  0.00  0.00     0.206 C 
ATOM     91  C4  IDS d 302     -18.658  49.242 176.127  0.00  0.00     0.103 C 
ATOM     92  S   IDS d 302     -17.312  52.650 173.715  0.00  0.00     0.252 S 
ATOM     93  O3S IDS d 302     -18.211  53.548 174.332  0.00  0.00    -0.572 OA
ATOM     94  C5  IDS d 302     -19.589  48.344 175.380  0.00  0.00     0.152 C 
ATOM     95  C2  IDS d 302     -19.279  50.959 174.291  0.00  0.00     0.134 C 
ATOM     96  O2  IDS d 302     -18.083  51.296 173.612  0.00  0.00    -0.244 OA
ATOM     97  C3  IDS d 302     -18.946  50.725 175.776  0.00  0.00     0.094 C 
ATOM     98  O61 IDS d 302     -19.299  46.067 174.879  0.00  0.00    -0.646 OA
ATOM     99  O5  IDS d 302     -19.409  48.546 174.013  0.00  0.00    -0.340 OA
ATOM    100  O3  IDS d 302     -20.047  51.149 176.547  0.00  0.00    -0.390 OA
ATOM    101  O4  IDS d 302     -17.356  48.913 175.737  0.00  0.00    -0.348 OA
ATOM    102  C1  IDS d 302     -19.968  49.772 173.602  0.00  0.00     0.161 C 
ATOM    103  H   IDS d 302     -18.787  49.117 177.182  0.00  0.00     0.092 H 
ATOM    104  H   IDS d 302     -20.588  48.605 175.659  0.00  0.00     0.104 H 
ATOM    105  H   IDS d 302     -19.989  51.758 174.250  0.00  0.00     0.097 H 
ATOM    106  H   IDS d 302     -18.054  51.277 175.986  0.00  0.00     0.091 H 
ATOM    107  H   IDS d 302     -20.825  50.618 176.318  0.00  0.00     0.210 HD
ATOM    108  H   IDS d 302     -19.831  49.850 172.544  0.00  0.00     0.133 H 
ATOM    109  O6  SGN d 305      -5.807  47.361 170.876  0.00  0.00    -0.254 OA
ATOM    110  C2  SGN d 305      -8.614  43.835 170.862  0.00  0.00     0.081 C 
ATOM    111  O1S SGN d 305     -10.621  43.688 168.620  0.00  0.00    -0.296 OA
ATOM    112  O5  SGN d 305      -8.302  46.229 170.962  0.00  0.00    -0.349 OA
ATOM    113  S1  SGN d 305     -10.100  42.463 169.146  0.00  0.00     0.156 S 
ATOM    114  O5S SGN d 305      -4.874  48.472 168.893  0.00  0.00    -0.572 OA
ATOM    115  C1  SGN d 305      -9.294  45.203 170.881  0.00  0.00     0.150 C 
ATOM    116  O3  SGN d 305      -7.172  42.422 172.226  0.00  0.00    -0.391 OA
ATOM    117  S2  SGN d 305      -4.882  48.527 170.352  0.00  0.00     0.251 S 
ATOM    118  O6S SGN d 305      -5.464  49.774 170.820  0.00  0.00    -0.572 OA
ATOM    119  C5  SGN d 305      -7.452  46.149 172.134  0.00  0.00     0.090 C 
ATOM    120  O4S SGN d 305      -3.594  48.229 170.939  0.00  0.00    -0.572 OA
ATOM    121  C6  SGN d 305      -6.498  47.346 172.089  0.00  0.00     0.067 C 
ATOM    122  N   SGN d 305      -9.616  42.767 170.672  0.00  0.00    -0.210 NA
ATOM    123  O2S SGN d 305      -8.953  42.054 168.387  0.00  0.00    -0.296 OA
ATOM    124  O3S SGN d 305     -11.081  41.439 169.287  0.00  0.00    -0.296 OA
ATOM    125  C4  SGN d 305      -6.748  44.785 172.211  0.00  0.00     0.089 C 
ATOM    126  O4  SGN d 305      -6.057  44.651 173.444  0.00  0.00    -0.390 OA
ATOM    127  C3  SGN d 305      -7.825  43.680 172.180  0.00  0.00     0.083 C 
ATOM    128  H   SGN d 305      -7.933  43.756 170.041  0.00  0.00     0.076 H 
ATOM    129  H   SGN d 305      -9.905  44.340 168.550  0.00  0.00     0.231 HD
ATOM    130  H   SGN d 305      -9.848  45.372 169.981  0.00  0.00     0.131 H 
ATOM    131  H   SGN d 305      -7.835  41.713 172.208  0.00  0.00     0.210 HD
ATOM    132  H   SGN d 305      -8.019  46.208 173.039  0.00  0.00     0.090 H 
ATOM    133  H   SGN d 305      -7.060  48.251 172.188  0.00  0.00     0.080 H 
ATOM    134  H   SGN d 305      -5.795  47.266 172.892  0.00  0.00     0.080 H 
ATOM    135  H   SGN d 305     -10.443  43.023 171.211  0.00  0.00     0.140 HD
ATOM    136  H   SGN d 305      -8.325  42.792 168.328  0.00  0.00     0.231 HD
ATOM    137  H   SGN d 305     -11.827  41.775 169.807  0.00  0.00     0.231 HD
ATOM    138  H   SGN d 305      -6.063  44.706 171.393  0.00  0.00     0.091 H 
ATOM    139  H   SGN d 305      -6.688  44.724 174.178  0.00  0.00     0.210 HD
ATOM    140  H   SGN d 305      -8.496  43.753 173.011  0.00  0.00     0.089 H 
ENDROOT
TORSDOF 45
ENDMDL
MODEL 30
REMARK VINA RESULT:      -4.6      3.282      7.879
REMARK  0 active torsions:
REMARK  status: ('A' for Active; 'I' for Inactive)
REMARK       I    between atoms: C6_1  and  C5_56 
REMARK       I    between atoms: O3_2  and  C3_19 
REMARK       I    between atoms: C2_3  and  N_45 
REMARK       I    between atoms: S1_4  and  N_72 
REMARK       I    between atoms: S1_4  and  O1S_74 
REMARK       I    between atoms: S1_4  and  O2S_20 
REMARK       I    between atoms: S1_4  and  O3S_35 
REMARK       I    between atoms: C5_5  and  C6_27 
REMARK       I    between atoms: C3_7  and  O3_15 
REMARK       I    between atoms: O2S_10  and  S1_60 
REMARK       I    between atoms: O6_11  and  C6_27 
REMARK       I    between atoms: O6_11  and  S2_67 
REMARK       I    between atoms: C4_14  and  O4_71 
REMARK       I    between atoms: C4_16  and  O4_81 
REMARK       I    between atoms: C6_18  and  C5_53 
REMARK       I    between atoms: O2_21  and  C2_30 
REMARK       I    between atoms: O2_21  and  S_68 
REMARK       I    between atoms: O6_22  and  C6_61 
REMARK       I    between atoms: O6_22  and  S2_47 
REMARK       I    between atoms: O1_23  and  C1_86 
REMARK       I    between atoms: O6_24  and  C6_57 
REMARK       I    between atoms: O6_24  and  S2_89 
REMARK       I    between atoms: C4_25  and  O4_85 
REMARK       I    between atoms: C2_26  and  N_73 
REMARK       I    between atoms: C2_28  and  N_72 
REMARK       I    between atoms: O1S_32  and  S1_37 
REMARK       I    between atoms: S1_37  and  N_73 
REMARK       I    between atoms: S1_37  and  O2S_78 
REMARK       I    between atoms: S1_37  and  O3S_82 
REMARK       I    between atoms: C1_39  and  O4_71 
REMARK       I    between atoms: S_41  and  O2_63 
REMARK       I    between atoms: O3_43  and  C3_88 
REMARK       I    between atoms: O1S_44  and  S1_60 
REMARK       I    between atoms: N_45  and  S1_60 
REMARK       I    between atoms: C1_46  and  O4_85 
REMARK       I    between atoms: O4_48  and  C4_54 
REMARK       I    between atoms: O4_48  and  C1_90 
REMARK       I    between atoms: O3_49  and  C3_77 
REMARK       I    between atoms: C5_52  and  C6_61 
REMARK       I    between atoms: C6_57  and  C5_79 
REMARK       I    between atoms: C2_58  and  O2_63 
REMARK       I    between atoms: S1_60  and  O3S_75 
REMARK       I    between atoms: C3_64  and  O3_80 
REMARK       I    between atoms: O4_81  and  C1_84 
REMARK       I    between atoms: C4_83  and  O4_87 
ROOT
ATOM      1  C6  IDS d 304      -8.257  44.801 173.974  0.00  0.00     0.206 C 
ATOM      2  O61 IDS d 304      -7.708  44.458 172.947  0.00  0.00    -0.646 OA
ATOM      3  C4  IDS d 304      -8.725  46.987 175.033  0.00  0.00     0.103 C 
ATOM      4  O2  IDS d 304      -8.774  49.347 173.036  0.00  0.00    -0.244 OA
ATOM      5  O62 IDS d 304      -8.078  44.169 174.970  0.00  0.00    -0.646 OA
ATOM      6  C2  IDS d 304      -9.905  48.665 173.511  0.00  0.00     0.134 C 
ATOM      7  O1S IDS d 304      -9.134  51.694 172.791  0.00  0.00    -0.572 OA
ATOM      8  O3  IDS d 304     -10.830  47.880 175.597  0.00  0.00    -0.390 OA
ATOM      9  C5  IDS d 304      -9.129  45.972 173.997  0.00  0.00     0.152 C 
ATOM     10  O5  IDS d 304      -9.189  46.510 172.716  0.00  0.00    -0.340 OA
ATOM     11  O2S IDS d 304      -7.399  50.565 171.626  0.00  0.00    -0.572 OA
ATOM     12  O3S IDS d 304      -9.614  50.306 170.934  0.00  0.00    -0.572 OA
ATOM     13  S   IDS d 304      -8.749  50.537 172.037  0.00  0.00     0.252 S 
ATOM     14  O4  IDS d 304      -7.416  47.376 174.784  0.00  0.00    -0.348 OA
ATOM     15  C3  IDS d 304      -9.622  48.214 174.970  0.00  0.00     0.094 C 
ATOM     16  C1  IDS d 304     -10.200  47.491 172.570  0.00  0.00     0.161 C 
ATOM     17  H   IDS d 304      -8.816  46.547 176.004  0.00  0.00     0.092 H 
ATOM     18  H   IDS d 304     -10.774  49.289 173.524  0.00  0.00     0.097 H 
ATOM     19  H   IDS d 304     -10.654  47.598 176.509  0.00  0.00     0.210 HD
ATOM     20  H   IDS d 304     -10.110  45.664 174.295  0.00  0.00     0.104 H 
ATOM     21  H   IDS d 304      -9.131  49.030 175.458  0.00  0.00     0.091 H 
ATOM     22  H   IDS d 304     -10.194  47.806 171.547  0.00  0.00     0.133 H 
ATOM     23  O3  SGN d 303     -12.291  44.224 173.337  0.00  0.00    -0.391 OA
ATOM     24  S1  SGN d 303     -15.193  42.157 171.474  0.00  0.00     0.156 S 
ATOM     25  O5S SGN d 303      -9.993  46.997 167.528  0.00  0.00    -0.572 OA
ATOM     26  C4  SGN d 303     -12.110  46.189 171.906  0.00  0.00     0.095 C 
ATOM     27  C3  SGN d 303     -13.060  45.172 172.642  0.00  0.00     0.083 C 
ATOM     28  O2S SGN d 303     -13.958  41.438 171.498  0.00  0.00    -0.296 OA
ATOM     29  O6  SGN d 303     -11.398  47.453 169.388  0.00  0.00    -0.254 OA
ATOM     30  C2  SGN d 303     -13.917  44.430 171.605  0.00  0.00     0.081 C 
ATOM     31  O3S SGN d 303     -16.224  41.542 172.209  0.00  0.00    -0.296 OA
ATOM     32  O5  SGN d 303     -13.730  46.298 170.100  0.00  0.00    -0.349 OA
ATOM     33  C1  SGN d 303     -14.660  45.420 170.713  0.00  0.00     0.150 C 
ATOM     34  O4S SGN d 303     -10.223  49.244 168.324  0.00  0.00    -0.572 OA
ATOM     35  C6  SGN d 303     -12.265  48.119 170.228  0.00  0.00     0.067 C 
ATOM     36  O6S SGN d 303     -12.074  48.189 167.195  0.00  0.00    -0.572 OA
ATOM     37  N   SGN d 303     -14.881  43.536 172.242  0.00  0.00    -0.210 NA
ATOM     38  O1S SGN d 303     -15.576  42.493 170.124  0.00  0.00    -0.296 OA
ATOM     39  C5  SGN d 303     -12.994  47.083 171.027  0.00  0.00     0.091 C 
ATOM     40  O4  SGN d 303     -11.480  46.991 172.861  0.00  0.00    -0.348 OA
ATOM     41  S2  SGN d 303     -10.894  48.008 168.028  0.00  0.00     0.251 S 
ATOM     42  H   SGN d 303     -11.742  44.674 173.998  0.00  0.00     0.210 HD
ATOM     43  H   SGN d 303     -11.375  45.674 171.323  0.00  0.00     0.091 H 
ATOM     44  H   SGN d 303     -13.684  45.710 173.324  0.00  0.00     0.089 H 
ATOM     45  H   SGN d 303     -13.295  41.916 170.975  0.00  0.00     0.231 HD
ATOM     46  H   SGN d 303     -13.251  43.842 171.009  0.00  0.00     0.076 H 
ATOM     47  H   SGN d 303     -17.029  42.081 172.150  0.00  0.00     0.231 HD
ATOM     48  H   SGN d 303     -15.185  44.921 169.926  0.00  0.00     0.131 H 
ATOM     49  H   SGN d 303     -12.961  48.695 169.655  0.00  0.00     0.080 H 
ATOM     50  H   SGN d 303     -11.732  48.789 170.871  0.00  0.00     0.080 H 
ATOM     51  H   SGN d 303     -14.523  43.301 173.168  0.00  0.00     0.140 HD
ATOM     52  H   SGN d 303     -14.828  42.912 169.671  0.00  0.00     0.231 HD
ATOM     53  H   SGN d 303     -13.618  47.593 171.732  0.00  0.00     0.090 H 
ATOM     54  C2  SGN d 301     -20.696  51.679 172.809  0.00  0.00     0.081 C 
ATOM     55  C5  SGN d 301     -21.123  49.074 173.750  0.00  0.00     0.091 C 
ATOM     56  O6S SGN d 301     -22.113  48.196 177.053  0.00  0.00    -0.572 OA
ATOM     57  C3  SGN d 301     -20.292  50.454 171.998  0.00  0.00     0.083 C 
ATOM     58  O2S SGN d 301     -18.827  53.752 171.566  0.00  0.00    -0.296 OA
ATOM     59  O6  SGN d 301     -20.167  48.205 175.687  0.00  0.00    -0.254 OA
ATOM     60  O3  SGN d 301     -19.216  50.751 171.137  0.00  0.00    -0.391 OA
ATOM     61  O1  SGN d 301     -23.016  50.995 172.927  0.00  0.00    -0.369 OA
ATOM     62  C6  SGN d 301     -20.998  47.876 174.651  0.00  0.00     0.067 C 
ATOM     63  O5S SGN d 301     -20.358  49.874 177.355  0.00  0.00    -0.572 OA
ATOM     64  O4S SGN d 301     -19.954  47.585 177.973  0.00  0.00    -0.572 OA
ATOM     65  O1S SGN d 301     -20.137  54.557 173.476  0.00  0.00    -0.296 OA
ATOM     66  N   SGN d 301     -21.055  52.797 171.959  0.00  0.00    -0.210 NA
ATOM     67  O4  SGN d 301     -19.350  48.306 172.446  0.00  0.00    -0.348 OA
ATOM     68  C4  SGN d 301     -19.865  49.439 173.039  0.00  0.00     0.095 C 
ATOM     69  S1  SGN d 301     -20.133  54.143 172.063  0.00  0.00     0.156 S 
ATOM     70  S2  SGN d 301     -20.683  48.485 177.098  0.00  0.00     0.251 S 
ATOM     71  O3S SGN d 301     -20.764  55.083 171.170  0.00  0.00    -0.296 OA
ATOM     72  O5  SGN d 301     -21.537  50.182 174.513  0.00  0.00    -0.350 OA
ATOM     73  C1  SGN d 301     -21.864  51.295 173.721  0.00  0.00     0.147 C 
ATOM     74  H   SGN d 301     -19.860  51.996 173.396  0.00  0.00     0.076 H 
ATOM     75  H   SGN d 301     -21.838  48.807 173.000  0.00  0.00     0.090 H 
ATOM     76  H   SGN d 301     -21.088  50.103 171.376  0.00  0.00     0.089 H 
ATOM     77  H   SGN d 301     -18.422  53.120 172.182  0.00  0.00     0.231 HD
ATOM     78  H   SGN d 301     -18.464  51.076 171.658  0.00  0.00     0.210 HD
ATOM     79  H   SGN d 301     -23.241  51.765 172.381  0.00  0.00     0.212 HD
ATOM     80  H   SGN d 301     -20.588  47.052 174.105  0.00  0.00     0.080 H 
ATOM     81  H   SGN d 301     -21.960  47.593 175.025  0.00  0.00     0.080 H 
ATOM     82  H   SGN d 301     -19.698  53.879 174.013  0.00  0.00     0.231 HD
ATOM     83  H   SGN d 301     -22.012  53.063 172.189  0.00  0.00     0.140 HD
ATOM     84  H   SGN d 301     -19.109  49.838 173.683  0.00  0.00     0.091 H 
ATOM     85  H   SGN d 301     -20.269  55.918 171.177  0.00  0.00     0.231 HD
ATOM     86  H   SGN d 301     -22.075  52.121 174.367  0.00  0.00     0.131 H 
ATOM     87  O1S IDS d 302     -16.396  43.761 174.471  0.00  0.00    -0.572 OA
ATOM     88  O2S IDS d 302     -17.293  44.815 176.394  0.00  0.00    -0.572 OA
ATOM     89  O62 IDS d 302     -16.218  48.130 168.863  0.00  0.00    -0.646 OA
ATOM     90  C6  IDS d 302     -16.305  48.490 170.025  0.00  0.00     0.206 C 
ATOM     91  C4  IDS d 302     -16.880  46.275 171.013  0.00  0.00     0.103 C 
ATOM     92  S   IDS d 302     -17.449  44.551 175.006  0.00  0.00     0.252 S 
ATOM     93  O3S IDS d 302     -18.712  44.008 174.683  0.00  0.00    -0.572 OA
ATOM     94  C5  IDS d 302     -17.160  47.741 170.978  0.00  0.00     0.152 C 
ATOM     95  C2  IDS d 302     -18.240  46.345 173.215  0.00  0.00     0.134 C 
ATOM     96  O2  IDS d 302     -17.379  45.917 174.253  0.00  0.00    -0.244 OA
ATOM     97  C3  IDS d 302     -17.896  45.556 171.939  0.00  0.00     0.094 C 
ATOM     98  O61 IDS d 302     -15.686  49.474 170.394  0.00  0.00    -0.646 OA
ATOM     99  O5  IDS d 302     -17.059  48.250 172.271  0.00  0.00    -0.340 OA
ATOM    100  O3  IDS d 302     -19.085  45.357 171.209  0.00  0.00    -0.390 OA
ATOM    101  O4  IDS d 302     -15.587  46.108 171.519  0.00  0.00    -0.348 OA
ATOM    102  C1  IDS d 302     -18.165  47.871 173.055  0.00  0.00     0.161 C 
ATOM    103  H   IDS d 302     -16.966  45.856 170.032  0.00  0.00     0.092 H 
ATOM    104  H   IDS d 302     -18.156  47.874 170.611  0.00  0.00     0.104 H 
ATOM    105  H   IDS d 302     -19.264  46.138 173.446  0.00  0.00     0.097 H 
ATOM    106  H   IDS d 302     -17.442  44.640 172.253  0.00  0.00     0.091 H 
ATOM    107  H   IDS d 302     -19.452  46.216 170.950  0.00  0.00     0.210 HD
ATOM    108  H   IDS d 302     -18.047  48.322 174.019  0.00  0.00     0.133 H 
ATOM    109  O6  SGN d 305      -4.785  44.426 177.837  0.00  0.00    -0.254 OA
ATOM    110  C2  SGN d 305      -5.290  48.219 175.456  0.00  0.00     0.081 C 
ATOM    111  O1S SGN d 305      -6.818  50.464 176.760  0.00  0.00    -0.296 OA
ATOM    112  O5  SGN d 305      -6.300  46.338 176.588  0.00  0.00    -0.349 OA
ATOM    113  S1  SGN d 305      -5.749  50.798 175.868  0.00  0.00     0.156 S 
ATOM    114  O5S SGN d 305      -4.502  44.277 180.273  0.00  0.00    -0.572 OA
ATOM    115  C1  SGN d 305      -6.592  47.566 175.915  0.00  0.00     0.150 C 
ATOM    116  O3  SGN d 305      -3.375  47.806 174.006  0.00  0.00    -0.391 OA
ATOM    117  S2  SGN d 305      -4.599  43.458 179.069  0.00  0.00     0.251 S 
ATOM    118  O6S SGN d 305      -5.772  42.601 179.117  0.00  0.00    -0.572 OA
ATOM    119  C5  SGN d 305      -5.586  45.367 175.780  0.00  0.00     0.090 C 
ATOM    120  O4S SGN d 305      -3.375  42.750 178.763  0.00  0.00    -0.572 OA
ATOM    121  C6  SGN d 305      -5.412  44.106 176.631  0.00  0.00     0.067 C 
ATOM    122  N   SGN d 305      -5.563  49.539 174.852  0.00  0.00    -0.210 NA
ATOM    123  O2S SGN d 305      -4.530  50.958 176.607  0.00  0.00    -0.296 OA
ATOM    124  O3S SGN d 305      -6.042  51.900 175.012  0.00  0.00    -0.296 OA
ATOM    125  C4  SGN d 305      -4.270  45.956 175.248  0.00  0.00     0.089 C 
ATOM    126  O4  SGN d 305      -3.665  45.065 174.324  0.00  0.00    -0.390 OA
ATOM    127  C3  SGN d 305      -4.594  47.251 174.474  0.00  0.00     0.083 C 
ATOM    128  H   SGN d 305      -4.637  48.398 176.284  0.00  0.00     0.076 H 
ATOM    129  H   SGN d 305      -6.555  49.710 177.311  0.00  0.00     0.231 HD
ATOM    130  H   SGN d 305      -7.114  48.189 176.610  0.00  0.00     0.131 H 
ATOM    131  H   SGN d 305      -3.559  48.622 173.515  0.00  0.00     0.210 HD
ATOM    132  H   SGN d 305      -6.135  45.104 174.901  0.00  0.00     0.090 H 
ATOM    133  H   SGN d 305      -6.372  43.680 176.833  0.00  0.00     0.080 H 
ATOM    134  H   SGN d 305      -4.808  43.403 176.097  0.00  0.00     0.080 H 
ATOM    135  H   SGN d 305      -6.421  49.454 174.308  0.00  0.00     0.140 HD
ATOM    136  H   SGN d 305      -4.387  50.180 177.168  0.00  0.00     0.231 HD
ATOM    137  H   SGN d 305      -6.873  51.732 174.543  0.00  0.00     0.231 HD
ATOM    138  H   SGN d 305      -3.614  46.132 176.076  0.00  0.00     0.091 H 
ATOM    139  H   SGN d 305      -4.268  44.913 173.579  0.00  0.00     0.210 HD
ATOM    140  H   SGN d 305      -5.235  47.065 173.637  0.00  0.00     0.089 H 
ENDROOT
TORSDOF 45
ENDMDL
MODEL 31
REMARK VINA RESULT:      -4.1      2.972     13.288
REMARK  0 active torsions:
REMARK  status: ('A' for Active; 'I' for Inactive)
REMARK       I    between atoms: C6_1  and  C5_56 
REMARK       I    between atoms: O3_2  and  C3_19 
REMARK       I    between atoms: C2_3  and  N_45 
REMARK       I    between atoms: S1_4  and  N_72 
REMARK       I    between atoms: S1_4  and  O1S_74 
REMARK       I    between atoms: S1_4  and  O2S_20 
REMARK       I    between atoms: S1_4  and  O3S_35 
REMARK       I    between atoms: C5_5  and  C6_27 
REMARK       I    between atoms: C3_7  and  O3_15 
REMARK       I    between atoms: O2S_10  and  S1_60 
REMARK       I    between atoms: O6_11  and  C6_27 
REMARK       I    between atoms: O6_11  and  S2_67 
REMARK       I    between atoms: C4_14  and  O4_71 
REMARK       I    between atoms: C4_16  and  O4_81 
REMARK       I    between atoms: C6_18  and  C5_53 
REMARK       I    between atoms: O2_21  and  C2_30 
REMARK       I    between atoms: O2_21  and  S_68 
REMARK       I    between atoms: O6_22  and  C6_61 
REMARK       I    between atoms: O6_22  and  S2_47 
REMARK       I    between atoms: O1_23  and  C1_86 
REMARK       I    between atoms: O6_24  and  C6_57 
REMARK       I    between atoms: O6_24  and  S2_89 
REMARK       I    between atoms: C4_25  and  O4_85 
REMARK       I    between atoms: C2_26  and  N_73 
REMARK       I    between atoms: C2_28  and  N_72 
REMARK       I    between atoms: O1S_32  and  S1_37 
REMARK       I    between atoms: S1_37  and  N_73 
REMARK       I    between atoms: S1_37  and  O2S_78 
REMARK       I    between atoms: S1_37  and  O3S_82 
REMARK       I    between atoms: C1_39  and  O4_71 
REMARK       I    between atoms: S_41  and  O2_63 
REMARK       I    between atoms: O3_43  and  C3_88 
REMARK       I    between atoms: O1S_44  and  S1_60 
REMARK       I    between atoms: N_45  and  S1_60 
REMARK       I    between atoms: C1_46  and  O4_85 
REMARK       I    between atoms: O4_48  and  C4_54 
REMARK       I    between atoms: O4_48  and  C1_90 
REMARK       I    between atoms: O3_49  and  C3_77 
REMARK       I    between atoms: C5_52  and  C6_61 
REMARK       I    between atoms: C6_57  and  C5_79 
REMARK       I    between atoms: C2_58  and  O2_63 
REMARK       I    between atoms: S1_60  and  O3S_75 
REMARK       I    between atoms: C3_64  and  O3_80 
REMARK       I    between atoms: O4_81  and  C1_84 
REMARK       I    between atoms: C4_83  and  O4_87 
ROOT
ATOM      1  C6  IDS d 304     -20.396  50.438 174.435  0.00  0.00     0.206 C 
ATOM      2  O61 IDS d 304     -20.774  51.087 175.389  0.00  0.00    -0.646 OA
ATOM      3  C4  IDS d 304     -19.554  51.015 172.181  0.00  0.00     0.103 C 
ATOM      4  O2  IDS d 304     -18.352  53.858 171.997  0.00  0.00    -0.244 OA
ATOM      5  O62 IDS d 304     -20.978  49.438 174.144  0.00  0.00    -0.646 OA
ATOM      6  C2  IDS d 304     -17.614  52.677 172.174  0.00  0.00     0.134 C 
ATOM      7  O1S IDS d 304     -17.264  55.432 170.569  0.00  0.00    -0.572 OA
ATOM      8  O3  IDS d 304     -17.465  50.452 171.250  0.00  0.00    -0.390 OA
ATOM      9  C5  IDS d 304     -19.245  50.871 173.648  0.00  0.00     0.152 C 
ATOM     10  O5  IDS d 304     -18.737  52.041 174.205  0.00  0.00    -0.340 OA
ATOM     11  O2S IDS d 304     -18.944  56.094 172.114  0.00  0.00    -0.572 OA
ATOM     12  O3S IDS d 304     -16.809  55.550 172.890  0.00  0.00    -0.572 OA
ATOM     13  S   IDS d 304     -17.794  55.305 171.896  0.00  0.00     0.252 S 
ATOM     14  O4  IDS d 304     -20.595  51.921 172.036  0.00  0.00    -0.348 OA
ATOM     15  C3  IDS d 304     -18.343  51.532 171.419  0.00  0.00     0.094 C 
ATOM     16  C1  IDS d 304     -17.475  52.407 173.677  0.00  0.00     0.161 C 
ATOM     17  H   IDS d 304     -19.822  50.057 171.788  0.00  0.00     0.092 H 
ATOM     18  H   IDS d 304     -16.626  52.757 171.772  0.00  0.00     0.097 H 
ATOM     19  H   IDS d 304     -17.920  49.737 170.778  0.00  0.00     0.210 HD
ATOM     20  H   IDS d 304     -18.495  50.109 173.688  0.00  0.00     0.104 H 
ATOM     21  H   IDS d 304     -18.667  51.935 170.482  0.00  0.00     0.091 H 
ATOM     22  H   IDS d 304     -17.154  53.285 174.198  0.00  0.00     0.133 H 
ATOM     23  O3  SGN d 303     -16.683  48.973 175.469  0.00  0.00    -0.391 OA
ATOM     24  S1  SGN d 303     -14.182  47.747 178.368  0.00  0.00     0.156 S 
ATOM     25  O5S SGN d 303     -16.665  55.451 177.650  0.00  0.00    -0.572 OA
ATOM     26  C4  SGN d 303     -15.940  51.271 175.139  0.00  0.00     0.095 C 
ATOM     27  C3  SGN d 303     -15.530  49.766 175.351  0.00  0.00     0.083 C 
ATOM     28  O2S SGN d 303     -15.546  47.716 178.794  0.00  0.00    -0.296 OA
ATOM     29  O6  SGN d 303     -15.651  54.014 176.054  0.00  0.00    -0.254 OA
ATOM     30  C2  SGN d 303     -14.719  49.635 176.649  0.00  0.00     0.081 C 
ATOM     31  O3S SGN d 303     -13.576  46.477 178.308  0.00  0.00    -0.296 OA
ATOM     32  O5  SGN d 303     -13.994  51.920 176.439  0.00  0.00    -0.349 OA
ATOM     33  C1  SGN d 303     -13.533  50.594 176.643  0.00  0.00     0.150 C 
ATOM     34  O4S SGN d 303     -15.965  56.328 175.535  0.00  0.00    -0.572 OA
ATOM     35  C6  SGN d 303     -14.840  53.582 175.025  0.00  0.00     0.067 C 
ATOM     36  O6S SGN d 303     -14.306  55.680 177.159  0.00  0.00    -0.572 OA
ATOM     37  N   SGN d 303     -14.236  48.270 176.848  0.00  0.00    -0.210 NA
ATOM     38  O1S SGN d 303     -13.419  48.707 179.129  0.00  0.00    -0.296 OA
ATOM     39  C5  SGN d 303     -14.655  52.106 175.195  0.00  0.00     0.091 C 
ATOM     40  O4  SGN d 303     -16.503  51.410 173.868  0.00  0.00    -0.348 OA
ATOM     41  S2  SGN d 303     -15.643  55.456 176.631  0.00  0.00     0.251 S 
ATOM     42  H   SGN d 303     -17.208  49.043 174.657  0.00  0.00     0.210 HD
ATOM     43  H   SGN d 303     -16.642  51.585 175.883  0.00  0.00     0.091 H 
ATOM     44  H   SGN d 303     -14.946  49.444 174.514  0.00  0.00     0.089 H 
ATOM     45  H   SGN d 303     -15.899  48.619 178.813  0.00  0.00     0.231 HD
ATOM     46  H   SGN d 303     -15.376  49.884 177.457  0.00  0.00     0.076 H 
ATOM     47  H   SGN d 303     -12.656  46.572 178.014  0.00  0.00     0.231 HD
ATOM     48  H   SGN d 303     -13.014  50.584 177.579  0.00  0.00     0.131 H 
ATOM     49  H   SGN d 303     -13.893  54.078 175.072  0.00  0.00     0.080 H 
ATOM     50  H   SGN d 303     -15.281  53.803 174.076  0.00  0.00     0.080 H 
ATOM     51  H   SGN d 303     -14.849  47.645 176.326  0.00  0.00     0.140 HD
ATOM     52  H   SGN d 303     -13.884  49.558 179.134  0.00  0.00     0.231 HD
ATOM     53  H   SGN d 303     -14.085  51.750 174.362  0.00  0.00     0.090 H 
ATOM     54  C2  SGN d 301      -6.553  51.109 171.074  0.00  0.00     0.081 C 
ATOM     55  C5  SGN d 301      -7.146  48.617 172.210  0.00  0.00     0.091 C 
ATOM     56  O6S SGN d 301      -7.242  45.513 170.473  0.00  0.00    -0.572 OA
ATOM     57  C3  SGN d 301      -7.107  50.981 172.486  0.00  0.00     0.083 C 
ATOM     58  O2S SGN d 301      -7.387  53.984 170.458  0.00  0.00    -0.296 OA
ATOM     59  O6  SGN d 301      -8.732  47.135 171.369  0.00  0.00    -0.254 OA
ATOM     60  O3  SGN d 301      -7.820  52.140 172.856  0.00  0.00    -0.391 OA
ATOM     61  O1  SGN d 301      -4.632  49.718 171.561  0.00  0.00    -0.369 OA
ATOM     62  C6  SGN d 301      -7.823  47.285 172.381  0.00  0.00     0.067 C 
ATOM     63  O5S SGN d 301      -8.439  47.076 169.021  0.00  0.00    -0.572 OA
ATOM     64  O4S SGN d 301      -9.635  45.313 170.137  0.00  0.00    -0.572 OA
ATOM     65  O1S SGN d 301      -6.368  52.781 168.581  0.00  0.00    -0.296 OA
ATOM     66  N   SGN d 301      -5.694  52.268 170.931  0.00  0.00    -0.210 NA
ATOM     67  O4  SGN d 301      -8.721  49.622 173.605  0.00  0.00    -0.348 OA
ATOM     68  C4  SGN d 301      -8.042  49.790 172.417  0.00  0.00     0.095 C 
ATOM     69  S1  SGN d 301      -6.172  53.431 169.887  0.00  0.00     0.156 S 
ATOM     70  S2  SGN d 301      -8.492  46.206 170.179  0.00  0.00     0.251 S 
ATOM     71  O3S SGN d 301      -5.104  54.400 169.910  0.00  0.00    -0.296 OA
ATOM     72  O5  SGN d 301      -6.607  48.696 170.912  0.00  0.00    -0.350 OA
ATOM     73  C1  SGN d 301      -5.792  49.825 170.731  0.00  0.00     0.147 C 
ATOM     74  H   SGN d 301      -7.368  51.247 170.394  0.00  0.00     0.076 H 
ATOM     75  H   SGN d 301      -6.392  48.665 172.967  0.00  0.00     0.090 H 
ATOM     76  H   SGN d 301      -6.331  50.859 173.213  0.00  0.00     0.089 H 
ATOM     77  H   SGN d 301      -8.090  53.316 170.432  0.00  0.00     0.231 HD
ATOM     78  H   SGN d 301      -8.539  52.293 172.223  0.00  0.00     0.210 HD
ATOM     79  H   SGN d 301      -4.070  50.499 171.435  0.00  0.00     0.212 HD
ATOM     80  H   SGN d 301      -8.324  47.251 173.326  0.00  0.00     0.080 H 
ATOM     81  H   SGN d 301      -7.101  46.496 172.349  0.00  0.00     0.080 H 
ATOM     82  H   SGN d 301      -7.099  52.145 168.642  0.00  0.00     0.231 HD
ATOM     83  H   SGN d 301      -4.780  51.937 170.623  0.00  0.00     0.140 HD
ATOM     84  H   SGN d 301      -8.771  49.914 171.643  0.00  0.00     0.091 H 
ATOM     85  H   SGN d 301      -5.316  55.130 169.308  0.00  0.00     0.231 HD
ATOM     86  H   SGN d 301      -5.498  49.871 169.703  0.00  0.00     0.131 H 
ATOM     87  O1S IDS d 302     -13.272  46.400 175.150  0.00  0.00    -0.572 OA
ATOM     88  O2S IDS d 302     -12.566  45.505 173.073  0.00  0.00    -0.572 OA
ATOM     89  O62 IDS d 302     -10.860  53.010 176.177  0.00  0.00    -0.646 OA
ATOM     90  C6  IDS d 302     -10.937  52.457 175.093  0.00  0.00     0.206 C 
ATOM     91  C4  IDS d 302     -11.288  50.136 175.933  0.00  0.00     0.103 C 
ATOM     92  S   IDS d 302     -12.183  46.180 174.264  0.00  0.00     0.252 S 
ATOM     93  O3S IDS d 302     -11.100  45.563 174.928  0.00  0.00    -0.572 OA
ATOM     94  C5  IDS d 302     -10.585  51.022 174.959  0.00  0.00     0.152 C 
ATOM     95  C2  IDS d 302     -10.508  48.239 174.354  0.00  0.00     0.134 C 
ATOM     96  O2  IDS d 302     -11.671  47.599 173.862  0.00  0.00    -0.244 OA
ATOM     97  C3  IDS d 302     -10.771  48.680 175.805  0.00  0.00     0.094 C 
ATOM     98  O61 IDS d 302     -11.303  53.096 174.120  0.00  0.00    -0.646 OA
ATOM     99  O5  IDS d 302     -10.822  50.552 173.669  0.00  0.00    -0.340 OA
ATOM    100  O3  IDS d 302      -9.562  48.583 176.522  0.00  0.00    -0.390 OA
ATOM    101  O4  IDS d 302     -12.652  50.177 175.627  0.00  0.00    -0.348 OA
ATOM    102  C1  IDS d 302     -10.087  49.378 173.413  0.00  0.00     0.161 C 
ATOM    103  H   IDS d 302     -11.109  50.468 176.935  0.00  0.00     0.092 H 
ATOM    104  H   IDS d 302      -9.538  50.980 175.176  0.00  0.00     0.104 H 
ATOM    105  H   IDS d 302      -9.673  47.570 174.374  0.00  0.00     0.097 H 
ATOM    106  H   IDS d 302     -11.536  48.039 176.191  0.00  0.00     0.091 H 
ATOM    107  H   IDS d 302      -8.906  49.182 176.132  0.00  0.00     0.210 HD
ATOM    108  H   IDS d 302     -10.282  49.090 172.401  0.00  0.00     0.133 H 
ATOM    109  O6  SGN d 305     -24.607  48.961 171.751  0.00  0.00    -0.254 OA
ATOM    110  C2  SGN d 305     -22.469  52.829 170.875  0.00  0.00     0.081 C 
ATOM    111  O1S SGN d 305     -20.682  52.891 168.451  0.00  0.00    -0.296 OA
ATOM    112  O5  SGN d 305     -22.350  50.474 171.400  0.00  0.00    -0.349 OA
ATOM    113  S1  SGN d 305     -21.371  54.091 168.817  0.00  0.00     0.156 S 
ATOM    114  O5S SGN d 305     -25.469  47.376 170.083  0.00  0.00    -0.572 OA
ATOM    115  C1  SGN d 305     -21.561  51.614 171.052  0.00  0.00     0.150 C 
ATOM    116  O3  SGN d 305     -24.037  54.216 172.124  0.00  0.00    -0.391 OA
ATOM    117  S2  SGN d 305     -25.348  47.586 171.522  0.00  0.00     0.251 S 
ATOM    118  O6S SGN d 305     -24.526  46.553 172.129  0.00  0.00    -0.572 OA
ATOM    119  C5  SGN d 305     -23.116  50.626 172.622  0.00  0.00     0.090 C 
ATOM    120  O4S SGN d 305     -26.624  47.775 172.178  0.00  0.00    -0.572 OA
ATOM    121  C6  SGN d 305     -23.846  49.303 172.870  0.00  0.00     0.067 C 
ATOM    122  N   SGN d 305     -21.686  53.992 170.412  0.00  0.00    -0.210 NA
ATOM    123  O2S SGN d 305     -22.622  54.168 168.119  0.00  0.00    -0.296 OA
ATOM    124  O3S SGN d 305     -20.577  55.268 168.688  0.00  0.00    -0.296 OA
ATOM    125  C4  SGN d 305     -24.040  51.851 172.542  0.00  0.00     0.089 C 
ATOM    126  O4  SGN d 305     -24.656  52.092 173.798  0.00  0.00    -0.390 OA
ATOM    127  C3  SGN d 305     -23.178  53.091 172.222  0.00  0.00     0.083 C 
ATOM    128  H   SGN d 305     -23.210  52.649 170.125  0.00  0.00     0.076 H 
ATOM    129  H   SGN d 305     -21.276  52.131 168.561  0.00  0.00     0.231 HD
ATOM    130  H   SGN d 305     -21.050  51.377 170.142  0.00  0.00     0.131 H 
ATOM    131  H   SGN d 305     -23.512  55.007 171.923  0.00  0.00     0.210 HD
ATOM    132  H   SGN d 305     -22.485  50.823 173.463  0.00  0.00     0.090 H 
ATOM    133  H   SGN d 305     -23.129  48.533 173.061  0.00  0.00     0.080 H 
ATOM    134  H   SGN d 305     -24.494  49.413 173.716  0.00  0.00     0.080 H 
ATOM    135  H   SGN d 305     -20.791  53.973 170.901  0.00  0.00     0.140 HD
ATOM    136  H   SGN d 305     -23.114  53.341 168.246  0.00  0.00     0.231 HD
ATOM    137  H   SGN d 305     -19.748  55.154 169.179  0.00  0.00     0.231 HD
ATOM    138  H   SGN d 305     -24.784  51.671 171.795  0.00  0.00     0.091 H 
ATOM    139  H   SGN d 305     -23.972  52.254 174.468  0.00  0.00     0.210 HD
ATOM    140  H   SGN d 305     -22.448  53.276 172.983  0.00  0.00     0.089 H 
ENDROOT
TORSDOF 45
ENDMDL
MODEL 32
REMARK VINA RESULT:      -4.0      2.825     13.402
REMARK  0 active torsions:
REMARK  status: ('A' for Active; 'I' for Inactive)
REMARK       I    between atoms: C6_1  and  C5_56 
REMARK       I    between atoms: O3_2  and  C3_19 
REMARK       I    between atoms: C2_3  and  N_45 
REMARK       I    between atoms: S1_4  and  N_72 
REMARK       I    between atoms: S1_4  and  O1S_74 
REMARK       I    between atoms: S1_4  and  O2S_20 
REMARK       I    between atoms: S1_4  and  O3S_35 
REMARK       I    between atoms: C5_5  and  C6_27 
REMARK       I    between atoms: C3_7  and  O3_15 
REMARK       I    between atoms: O2S_10  and  S1_60 
REMARK       I    between atoms: O6_11  and  C6_27 
REMARK       I    between atoms: O6_11  and  S2_67 
REMARK       I    between atoms: C4_14  and  O4_71 
REMARK       I    between atoms: C4_16  and  O4_81 
REMARK       I    between atoms: C6_18  and  C5_53 
REMARK       I    between atoms: O2_21  and  C2_30 
REMARK       I    between atoms: O2_21  and  S_68 
REMARK       I    between atoms: O6_22  and  C6_61 
REMARK       I    between atoms: O6_22  and  S2_47 
REMARK       I    between atoms: O1_23  and  C1_86 
REMARK       I    between atoms: O6_24  and  C6_57 
REMARK       I    between atoms: O6_24  and  S2_89 
REMARK       I    between atoms: C4_25  and  O4_85 
REMARK       I    between atoms: C2_26  and  N_73 
REMARK       I    between atoms: C2_28  and  N_72 
REMARK       I    between atoms: O1S_32  and  S1_37 
REMARK       I    between atoms: S1_37  and  N_73 
REMARK       I    between atoms: S1_37  and  O2S_78 
REMARK       I    between atoms: S1_37  and  O3S_82 
REMARK       I    between atoms: C1_39  and  O4_71 
REMARK       I    between atoms: S_41  and  O2_63 
REMARK       I    between atoms: O3_43  and  C3_88 
REMARK       I    between atoms: O1S_44  and  S1_60 
REMARK       I    between atoms: N_45  and  S1_60 
REMARK       I    between atoms: C1_46  and  O4_85 
REMARK       I    between atoms: O4_48  and  C4_54 
REMARK       I    between atoms: O4_48  and  C1_90 
REMARK       I    between atoms: O3_49  and  C3_77 
REMARK       I    between atoms: C5_52  and  C6_61 
REMARK       I    between atoms: C6_57  and  C5_79 
REMARK       I    between atoms: C2_58  and  O2_63 
REMARK       I    between atoms: S1_60  and  O3S_75 
REMARK       I    between atoms: C3_64  and  O3_80 
REMARK       I    between atoms: O4_81  and  C1_84 
REMARK       I    between atoms: C4_83  and  O4_87 
ROOT
ATOM      1  C6  IDS d 304     -18.528  45.379 171.112  0.00  0.00     0.206 C 
ATOM      2  O61 IDS d 304     -18.958  44.425 171.727  0.00  0.00    -0.646 OA
ATOM      3  C4  IDS d 304     -18.085  47.744 171.687  0.00  0.00     0.103 C 
ATOM      4  O2  IDS d 304     -17.651  48.225 174.710  0.00  0.00    -0.244 OA
ATOM      5  O62 IDS d 304     -18.868  45.544 169.980  0.00  0.00    -0.646 OA
ATOM      6  C2  IDS d 304     -16.629  48.070 173.761  0.00  0.00     0.134 C 
ATOM      7  O1S IDS d 304     -17.137  49.855 176.377  0.00  0.00    -0.572 OA
ATOM      8  O3  IDS d 304     -16.025  48.881 171.569  0.00  0.00    -0.390 OA
ATOM      9  C5  IDS d 304     -17.605  46.318 171.743  0.00  0.00     0.152 C 
ATOM     10  O5  IDS d 304     -17.350  45.890 173.042  0.00  0.00    -0.340 OA
ATOM     11  O2S IDS d 304     -18.765  48.163 176.740  0.00  0.00    -0.572 OA
ATOM     12  O3S IDS d 304     -16.496  47.613 176.792  0.00  0.00    -0.572 OA
ATOM     13  S   IDS d 304     -17.483  48.470 176.236  0.00  0.00     0.252 S 
ATOM     14  O4  IDS d 304     -19.327  47.817 172.301  0.00  0.00    -0.348 OA
ATOM     15  C3  IDS d 304     -17.122  48.670 172.416  0.00  0.00     0.094 C 
ATOM     16  C1  IDS d 304     -16.278  46.581 173.657  0.00  0.00     0.161 C 
ATOM     17  H   IDS d 304     -18.144  48.050 170.663  0.00  0.00     0.092 H 
ATOM     18  H   IDS d 304     -15.737  48.588 174.043  0.00  0.00     0.097 H 
ATOM     19  H   IDS d 304     -16.332  49.256 170.729  0.00  0.00     0.210 HD
ATOM     20  H   IDS d 304     -16.689  46.323 171.190  0.00  0.00     0.104 H 
ATOM     21  H   IDS d 304     -17.628  49.584 172.650  0.00  0.00     0.091 H 
ATOM     22  H   IDS d 304     -16.135  46.150 174.626  0.00  0.00     0.133 H 
ATOM     23  O3  SGN d 303     -14.482  44.706 170.675  0.00  0.00    -0.391 OA
ATOM     24  S1  SGN d 303     -11.479  42.056 170.330  0.00  0.00     0.156 S 
ATOM     25  O5S SGN d 303     -15.858  42.904 177.123  0.00  0.00    -0.572 OA
ATOM     26  C4  SGN d 303     -14.371  45.248 173.049  0.00  0.00     0.095 C 
ATOM     27  C3  SGN d 303     -13.581  45.002 171.710  0.00  0.00     0.083 C 
ATOM     28  O2S SGN d 303     -12.744  41.473 170.007  0.00  0.00    -0.296 OA
ATOM     29  O6  SGN d 303     -14.683  44.526 175.847  0.00  0.00    -0.254 OA
ATOM     30  C2  SGN d 303     -12.638  43.802 171.886  0.00  0.00     0.081 C 
ATOM     31  O3S SGN d 303     -10.585  42.117 169.244  0.00  0.00    -0.296 OA
ATOM     32  O5  SGN d 303     -12.528  44.222 174.252  0.00  0.00    -0.349 OA
ATOM     33  C1  SGN d 303     -11.734  44.001 173.099  0.00  0.00     0.150 C 
ATOM     34  O4S SGN d 303     -15.613  45.132 177.965  0.00  0.00    -0.572 OA
ATOM     35  C6  SGN d 303     -13.897  45.617 175.540  0.00  0.00     0.067 C 
ATOM     36  O6S SGN d 303     -13.691  43.680 177.873  0.00  0.00    -0.572 OA
ATOM     37  N   SGN d 303     -11.813  43.586 170.699  0.00  0.00    -0.210 NA
ATOM     38  O1S SGN d 303     -10.907  41.445 171.506  0.00  0.00    -0.296 OA
ATOM     39  C5  SGN d 303     -13.335  45.389 174.171  0.00  0.00     0.091 C 
ATOM     40  O4  SGN d 303     -15.075  46.450 172.943  0.00  0.00    -0.348 OA
ATOM     41  S2  SGN d 303     -14.976  44.035 177.290  0.00  0.00     0.251 S 
ATOM     42  H   SGN d 303     -15.087  45.454 170.549  0.00  0.00     0.210 HD
ATOM     43  H   SGN d 303     -15.051  44.445 173.245  0.00  0.00     0.091 H 
ATOM     44  H   SGN d 303     -13.022  45.883 171.470  0.00  0.00     0.089 H 
ATOM     45  H   SGN d 303     -13.306  41.463 170.797  0.00  0.00     0.231 HD
ATOM     46  H   SGN d 303     -13.252  42.939 172.035  0.00  0.00     0.076 H 
ATOM     47  H   SGN d 303      -9.752  42.521 169.533  0.00  0.00     0.231 HD
ATOM     48  H   SGN d 303     -11.138  43.133 173.291  0.00  0.00     0.131 H 
ATOM     49  H   SGN d 303     -13.103  45.709 176.251  0.00  0.00     0.080 H 
ATOM     50  H   SGN d 303     -14.472  46.520 175.568  0.00  0.00     0.080 H 
ATOM     51  H   SGN d 303     -12.300  43.997 169.903  0.00  0.00     0.140 HD
ATOM     52  H   SGN d 303     -11.566  41.432 172.216  0.00  0.00     0.231 HD
ATOM     53  H   SGN d 303     -12.780  46.262 173.895  0.00  0.00     0.090 H 
ATOM     54  C2  SGN d 301      -5.692  50.368 174.819  0.00  0.00     0.081 C 
ATOM     55  C5  SGN d 301      -5.531  49.033 172.360  0.00  0.00     0.091 C 
ATOM     56  O6S SGN d 301      -5.024  50.573 169.192  0.00  0.00    -0.572 OA
ATOM     57  C3  SGN d 301      -6.053  48.895 174.679  0.00  0.00     0.083 C 
ATOM     58  O2S SGN d 301      -7.271  51.040 177.347  0.00  0.00    -0.296 OA
ATOM     59  O6  SGN d 301      -6.774  49.600 170.475  0.00  0.00    -0.254 OA
ATOM     60  O3  SGN d 301      -6.992  48.509 175.657  0.00  0.00    -0.391 OA
ATOM     61  O1  SGN d 301      -3.447  50.032 173.977  0.00  0.00    -0.369 OA
ATOM     62  C6  SGN d 301      -5.835  48.711 170.923  0.00  0.00     0.067 C 
ATOM     63  O5S SGN d 301      -6.712  51.959 170.295  0.00  0.00    -0.572 OA
ATOM     64  O4S SGN d 301      -7.314  50.615 168.394  0.00  0.00    -0.572 OA
ATOM     65  O1S SGN d 301      -6.178  52.954 176.275  0.00  0.00    -0.296 OA
ATOM     66  N   SGN d 301      -5.167  50.673 176.136  0.00  0.00    -0.210 NA
ATOM     67  O4  SGN d 301      -7.159  47.522 173.067  0.00  0.00    -0.348 OA
ATOM     68  C4  SGN d 301      -6.665  48.789 173.296  0.00  0.00     0.095 C 
ATOM     69  S1  SGN d 301      -6.021  51.718 177.058  0.00  0.00     0.156 S 
ATOM     70  S2  SGN d 301      -6.431  50.757 169.537  0.00  0.00     0.251 S 
ATOM     71  O3S SGN d 301      -5.230  51.873 178.255  0.00  0.00    -0.296 OA
ATOM     72  O5  SGN d 301      -5.160  50.388 172.459  0.00  0.00    -0.350 OA
ATOM     73  C1  SGN d 301      -4.674  50.726 173.733  0.00  0.00     0.147 C 
ATOM     74  H   SGN d 301      -6.579  50.954 174.700  0.00  0.00     0.076 H 
ATOM     75  H   SGN d 301      -4.740  48.374 172.651  0.00  0.00     0.090 H 
ATOM     76  H   SGN d 301      -5.203  48.258 174.808  0.00  0.00     0.089 H 
ATOM     77  H   SGN d 301      -7.786  50.946 176.530  0.00  0.00     0.231 HD
ATOM     78  H   SGN d 301      -7.785  49.061 175.580  0.00  0.00     0.210 HD
ATOM     79  H   SGN d 301      -3.112  50.266 174.857  0.00  0.00     0.212 HD
ATOM     80  H   SGN d 301      -6.214  47.713 170.847  0.00  0.00     0.080 H 
ATOM     81  H   SGN d 301      -4.946  48.784 170.331  0.00  0.00     0.080 H 
ATOM     82  H   SGN d 301      -6.718  52.773 175.489  0.00  0.00     0.231 HD
ATOM     83  H   SGN d 301      -4.235  51.067 176.010  0.00  0.00     0.140 HD
ATOM     84  H   SGN d 301      -7.475  49.477 173.177  0.00  0.00     0.091 H 
ATOM     85  H   SGN d 301      -5.676  52.486 178.860  0.00  0.00     0.231 HD
ATOM     86  H   SGN d 301      -4.505  51.781 173.763  0.00  0.00     0.131 H 
ATOM     87  O1S IDS d 302     -10.589  45.279 168.982  0.00  0.00    -0.572 OA
ATOM     88  O2S IDS d 302      -9.893  47.372 168.116  0.00  0.00    -0.572 OA
ATOM     89  O62 IDS d 302      -9.806  44.909 176.040  0.00  0.00    -0.646 OA
ATOM     90  C6  IDS d 302      -9.851  45.945 175.397  0.00  0.00     0.206 C 
ATOM     91  C4  IDS d 302      -9.528  44.941 173.138  0.00  0.00     0.103 C 
ATOM     92  S   IDS d 302      -9.574  46.273 168.959  0.00  0.00     0.252 S 
ATOM     93  O3S IDS d 302      -8.310  45.707 168.678  0.00  0.00    -0.572 OA
ATOM     94  C5  IDS d 302      -9.168  46.039 174.084  0.00  0.00     0.152 C 
ATOM     95  C2  IDS d 302      -8.462  46.494 171.361  0.00  0.00     0.134 C 
ATOM     96  O2  IDS d 302      -9.472  46.810 170.422  0.00  0.00    -0.244 OA
ATOM     97  C3  IDS d 302      -8.681  45.048 171.844  0.00  0.00     0.094 C 
ATOM     98  O61 IDS d 302     -10.459  46.902 175.847  0.00  0.00    -0.646 OA
ATOM     99  O5  IDS d 302      -9.408  47.264 173.466  0.00  0.00    -0.340 OA
ATOM    100  O3  IDS d 302      -7.420  44.474 172.100  0.00  0.00    -0.390 OA
ATOM    101  O4  IDS d 302     -10.882  45.088 172.823  0.00  0.00    -0.348 OA
ATOM    102  C1  IDS d 302      -8.434  47.539 172.486  0.00  0.00     0.161 C 
ATOM    103  H   IDS d 302      -9.338  43.988 173.585  0.00  0.00     0.092 H 
ATOM    104  H   IDS d 302      -8.127  45.944 174.313  0.00  0.00     0.104 H 
ATOM    105  H   IDS d 302      -7.489  46.534 170.917  0.00  0.00     0.097 H 
ATOM    106  H   IDS d 302      -9.219  44.540 171.072  0.00  0.00     0.091 H 
ATOM    107  H   IDS d 302      -6.976  44.970 172.805  0.00  0.00     0.210 HD
ATOM    108  H   IDS d 302      -8.651  48.504 172.077  0.00  0.00     0.133 H 
ATOM    109  O6  SGN d 305     -22.485  47.466 168.447  0.00  0.00    -0.254 OA
ATOM    110  C2  SGN d 305     -21.474  48.799 172.631  0.00  0.00     0.081 C 
ATOM    111  O1S SGN d 305     -20.010  51.415 172.922  0.00  0.00    -0.296 OA
ATOM    112  O5  SGN d 305     -20.721  48.162 170.425  0.00  0.00    -0.349 OA
ATOM    113  S1  SGN d 305     -20.935  51.038 173.947  0.00  0.00     0.156 S 
ATOM    114  O5S SGN d 305     -23.088  48.932 166.570  0.00  0.00    -0.572 OA
ATOM    115  C1  SGN d 305     -20.279  48.662 171.690  0.00  0.00     0.150 C 
ATOM    116  O3  SGN d 305     -23.205  47.454 173.697  0.00  0.00    -0.391 OA
ATOM    117  S2  SGN d 305     -22.880  47.530 166.920  0.00  0.00     0.251 S 
ATOM    118  O6S SGN d 305     -21.771  46.967 166.169  0.00  0.00    -0.572 OA
ATOM    119  C5  SGN d 305     -21.376  46.869 170.489  0.00  0.00     0.090 C 
ATOM    120  O4S SGN d 305     -24.091  46.741 166.849  0.00  0.00    -0.572 OA
ATOM    121  C6  SGN d 305     -21.726  46.464 169.054  0.00  0.00     0.067 C 
ATOM    122  N   SGN d 305     -21.055  49.414 173.906  0.00  0.00    -0.210 NA
ATOM    123  O2S SGN d 305     -22.229  51.588 173.661  0.00  0.00    -0.296 OA
ATOM    124  O3S SGN d 305     -20.475  51.324 175.265  0.00  0.00    -0.296 OA
ATOM    125  C4  SGN d 305     -22.578  46.908 171.445  0.00  0.00     0.089 C 
ATOM    126  O4  SGN d 305     -23.106  45.604 171.633  0.00  0.00    -0.390 OA
ATOM    127  C3  SGN d 305     -22.088  47.395 172.824  0.00  0.00     0.083 C 
ATOM    128  H   SGN d 305     -22.218  49.447 172.217  0.00  0.00     0.076 H 
ATOM    129  H   SGN d 305     -20.381  51.194 172.053  0.00  0.00     0.231 HD
ATOM    130  H   SGN d 305     -19.819  49.611 171.508  0.00  0.00     0.131 H 
ATOM    131  H   SGN d 305     -22.915  47.759 174.572  0.00  0.00     0.210 HD
ATOM    132  H   SGN d 305     -20.733  46.119 170.900  0.00  0.00     0.090 H 
ATOM    133  H   SGN d 305     -20.824  46.317 168.498  0.00  0.00     0.080 H 
ATOM    134  H   SGN d 305     -22.292  45.556 169.074  0.00  0.00     0.080 H 
ATOM    135  H   SGN d 305     -20.139  49.032 174.144  0.00  0.00     0.140 HD
ATOM    136  H   SGN d 305     -22.485  51.359 172.754  0.00  0.00     0.231 HD
ATOM    137  H   SGN d 305     -19.600  50.927 175.395  0.00  0.00     0.231 HD
ATOM    138  H   SGN d 305     -23.325  47.552 171.029  0.00  0.00     0.091 H 
ATOM    139  H   SGN d 305     -22.421  45.029 172.009  0.00  0.00     0.210 HD
ATOM    140  H   SGN d 305     -21.355  46.736 173.242  0.00  0.00     0.089 H 
ENDROOT
TORSDOF 45
ENDMDL
MODEL 33
REMARK VINA RESULT:      -3.9      2.699     13.187
REMARK  0 active torsions:
REMARK  status: ('A' for Active; 'I' for Inactive)
REMARK       I    between atoms: C6_1  and  C5_56 
REMARK       I    between atoms: O3_2  and  C3_19 
REMARK       I    between atoms: C2_3  and  N_45 
REMARK       I    between atoms: S1_4  and  N_72 
REMARK       I    between atoms: S1_4  and  O1S_74 
REMARK       I    between atoms: S1_4  and  O2S_20 
REMARK       I    between atoms: S1_4  and  O3S_35 
REMARK       I    between atoms: C5_5  and  C6_27 
REMARK       I    between atoms: C3_7  and  O3_15 
REMARK       I    between atoms: O2S_10  and  S1_60 
REMARK       I    between atoms: O6_11  and  C6_27 
REMARK       I    between atoms: O6_11  and  S2_67 
REMARK       I    between atoms: C4_14  and  O4_71 
REMARK       I    between atoms: C4_16  and  O4_81 
REMARK       I    between atoms: C6_18  and  C5_53 
REMARK       I    between atoms: O2_21  and  C2_30 
REMARK       I    between atoms: O2_21  and  S_68 
REMARK       I    between atoms: O6_22  and  C6_61 
REMARK       I    between atoms: O6_22  and  S2_47 
REMARK       I    between atoms: O1_23  and  C1_86 
REMARK       I    between atoms: O6_24  and  C6_57 
REMARK       I    between atoms: O6_24  and  S2_89 
REMARK       I    between atoms: C4_25  and  O4_85 
REMARK       I    between atoms: C2_26  and  N_73 
REMARK       I    between atoms: C2_28  and  N_72 
REMARK       I    between atoms: O1S_32  and  S1_37 
REMARK       I    between atoms: S1_37  and  N_73 
REMARK       I    between atoms: S1_37  and  O2S_78 
REMARK       I    between atoms: S1_37  and  O3S_82 
REMARK       I    between atoms: C1_39  and  O4_71 
REMARK       I    between atoms: S_41  and  O2_63 
REMARK       I    between atoms: O3_43  and  C3_88 
REMARK       I    between atoms: O1S_44  and  S1_60 
REMARK       I    between atoms: N_45  and  S1_60 
REMARK       I    between atoms: C1_46  and  O4_85 
REMARK       I    between atoms: O4_48  and  C4_54 
REMARK       I    between atoms: O4_48  and  C1_90 
REMARK       I    between atoms: O3_49  and  C3_77 
REMARK       I    between atoms: C5_52  and  C6_61 
REMARK       I    between atoms: C6_57  and  C5_79 
REMARK       I    between atoms: C2_58  and  O2_63 
REMARK       I    between atoms: S1_60  and  O3S_75 
REMARK       I    between atoms: C3_64  and  O3_80 
REMARK       I    between atoms: O4_81  and  C1_84 
REMARK       I    between atoms: C4_83  and  O4_87 
ROOT
ATOM      1  C6  IDS d 304     -20.555  45.445 173.542  0.00  0.00     0.206 C 
ATOM      2  O61 IDS d 304     -21.067  45.825 174.575  0.00  0.00    -0.646 OA
ATOM      3  C4  IDS d 304     -19.759  46.579 171.493  0.00  0.00     0.103 C 
ATOM      4  O2  IDS d 304     -19.061  49.561 171.917  0.00  0.00    -0.244 OA
ATOM      5  O62 IDS d 304     -20.946  44.439 173.034  0.00  0.00    -0.646 OA
ATOM      6  C2  IDS d 304     -18.136  48.506 171.916  0.00  0.00     0.134 C 
ATOM      7  O1S IDS d 304     -18.220  51.539 170.878  0.00  0.00    -0.572 OA
ATOM      8  O3  IDS d 304     -17.577  46.558 170.604  0.00  0.00    -0.390 OA
ATOM      9  C5  IDS d 304     -19.473  46.205 172.923  0.00  0.00     0.152 C 
ATOM     10  O5  IDS d 304     -19.192  47.311 173.719  0.00  0.00    -0.340 OA
ATOM     11  O2S IDS d 304     -20.033  51.604 172.412  0.00  0.00    -0.572 OA
ATOM     12  O3S IDS d 304     -17.861  51.277 173.205  0.00  0.00    -0.572 OA
ATOM     13  S   IDS d 304     -18.759  51.072 172.123  0.00  0.00     0.252 S 
ATOM     14  O4  IDS d 304     -20.936  47.313 171.454  0.00  0.00    -0.348 OA
ATOM     15  C3  IDS d 304     -18.633  47.426 170.917  0.00  0.00     0.094 C 
ATOM     16  C1  IDS d 304     -17.997  47.975 173.348  0.00  0.00     0.161 C 
ATOM     17  H   IDS d 304     -19.846  45.685 170.911  0.00  0.00     0.092 H 
ATOM     18  H   IDS d 304     -17.165  48.823 171.599  0.00  0.00     0.097 H 
ATOM     19  H   IDS d 304     -17.888  45.883 169.980  0.00  0.00     0.210 HD
ATOM     20  H   IDS d 304     -18.604  45.583 172.867  0.00  0.00     0.104 H 
ATOM     21  H   IDS d 304     -18.994  47.944 170.053  0.00  0.00     0.091 H 
ATOM     22  H   IDS d 304     -17.848  48.775 174.043  0.00  0.00     0.133 H 
ATOM     23  O3  SGN d 303     -16.676  44.435 174.514  0.00  0.00    -0.391 OA
ATOM     24  S1  SGN d 303     -14.088  43.095 177.283  0.00  0.00     0.156 S 
ATOM     25  O5S SGN d 303     -17.843  50.279 177.862  0.00  0.00    -0.572 OA
ATOM     26  C4  SGN d 303     -16.332  46.844 174.665  0.00  0.00     0.095 C 
ATOM     27  C3  SGN d 303     -15.675  45.415 174.618  0.00  0.00     0.083 C 
ATOM     28  O2S SGN d 303     -15.439  42.759 177.610  0.00  0.00    -0.296 OA
ATOM     29  O6  SGN d 303     -16.548  49.366 176.092  0.00  0.00    -0.254 OA
ATOM     30  C2  SGN d 303     -14.893  45.168 175.917  0.00  0.00     0.081 C 
ATOM     31  O3S SGN d 303     -13.270  41.979 177.025  0.00  0.00    -0.296 OA
ATOM     32  O5  SGN d 303     -14.567  47.538 176.182  0.00  0.00    -0.349 OA
ATOM     33  C1  SGN d 303     -13.890  46.292 176.163  0.00  0.00     0.150 C 
ATOM     34  O4S SGN d 303     -17.243  51.653 175.995  0.00  0.00    -0.572 OA
ATOM     35  C6  SGN d 303     -15.645  49.282 175.053  0.00  0.00     0.067 C 
ATOM     36  O6S SGN d 303     -15.545  50.983 177.570  0.00  0.00    -0.572 OA
ATOM     37  N   SGN d 303     -14.187  43.889 175.887  0.00  0.00    -0.210 NA
ATOM     38  O1S SGN d 303     -13.525  44.002 178.255  0.00  0.00    -0.296 OA
ATOM     39  C5  SGN d 303     -15.213  47.851 174.955  0.00  0.00     0.091 C 
ATOM     40  O4  SGN d 303     -16.873  47.134 173.409  0.00  0.00    -0.348 OA
ATOM     41  S2  SGN d 303     -16.807  50.650 176.927  0.00  0.00     0.251 S 
ATOM     42  H   SGN d 303     -17.182  44.575 173.698  0.00  0.00     0.210 HD
ATOM     43  H   SGN d 303     -17.100  46.888 175.410  0.00  0.00     0.091 H 
ATOM     44  H   SGN d 303     -15.020  45.361 173.773  0.00  0.00     0.089 H 
ATOM     45  H   SGN d 303     -15.943  43.571 177.775  0.00  0.00     0.231 HD
ATOM     46  H   SGN d 303     -15.606  45.144 176.714  0.00  0.00     0.076 H 
ATOM     47  H   SGN d 303     -12.372  42.278 176.811  0.00  0.00     0.231 HD
ATOM     48  H   SGN d 303     -13.405  46.185 177.111  0.00  0.00     0.131 H 
ATOM     49  H   SGN d 303     -14.800  49.907 175.251  0.00  0.00     0.080 H 
ATOM     50  H   SGN d 303     -16.090  49.607 174.136  0.00  0.00     0.080 H 
ATOM     51  H   SGN d 303     -14.667  43.285 175.220  0.00  0.00     0.140 HD
ATOM     52  H   SGN d 303     -14.131  44.747 178.391  0.00  0.00     0.231 HD
ATOM     53  H   SGN d 303     -14.566  47.762 174.108  0.00  0.00     0.090 H 
ATOM     54  C2  SGN d 301      -6.943  49.016 171.232  0.00  0.00     0.081 C 
ATOM     55  C5  SGN d 301      -7.130  46.288 171.845  0.00  0.00     0.091 C 
ATOM     56  O6S SGN d 301      -6.636  43.608 169.557  0.00  0.00    -0.572 OA
ATOM     57  C3  SGN d 301      -7.507  48.527 172.559  0.00  0.00     0.083 C 
ATOM     58  O2S SGN d 301      -8.242  51.779 171.114  0.00  0.00    -0.296 OA
ATOM     59  O6  SGN d 301      -8.410  44.758 170.645  0.00  0.00    -0.254 OA
ATOM     60  O3  SGN d 301      -8.421  49.458 173.094  0.00  0.00    -0.391 OA
ATOM     61  O1  SGN d 301      -4.826  47.891 171.571  0.00  0.00    -0.369 OA
ATOM     62  C6  SGN d 301      -7.571  44.855 171.722  0.00  0.00     0.067 C 
ATOM     63  O5S SGN d 301      -8.042  45.205 168.350  0.00  0.00    -0.572 OA
ATOM     64  O4S SGN d 301      -8.948  43.087 169.041  0.00  0.00    -0.572 OA
ATOM     65  O1S SGN d 301      -6.975  51.148 169.112  0.00  0.00    -0.296 OA
ATOM     66  N   SGN d 301      -6.293  50.306 171.363  0.00  0.00    -0.210 NA
ATOM     67  O4  SGN d 301      -8.895  46.730 173.302  0.00  0.00    -0.348 OA
ATOM     68  C4  SGN d 301      -8.220  47.235 172.211  0.00  0.00     0.095 C 
ATOM     69  S1  SGN d 301      -6.934  51.555 170.525  0.00  0.00     0.156 S 
ATOM     70  S2  SGN d 301      -7.978  44.130 169.320  0.00  0.00     0.251 S 
ATOM     71  O3S SGN d 301      -6.050  52.662 170.796  0.00  0.00    -0.296 OA
ATOM     72  O5  SGN d 301      -6.574  46.705 170.621  0.00  0.00    -0.350 OA
ATOM     73  C1  SGN d 301      -5.961  47.966 170.704  0.00  0.00     0.147 C 
ATOM     74  H   SGN d 301      -7.748  49.148 170.541  0.00  0.00     0.076 H 
ATOM     75  H   SGN d 301      -6.417  46.311 172.643  0.00  0.00     0.090 H 
ATOM     76  H   SGN d 301      -6.744  48.395 173.298  0.00  0.00     0.089 H 
ATOM     77  H   SGN d 301      -8.818  51.023 170.919  0.00  0.00     0.231 HD
ATOM     78  H   SGN d 301      -9.136  49.612 172.457  0.00  0.00     0.210 HD
ATOM     79  H   SGN d 301      -4.403  48.763 171.627  0.00  0.00     0.212 HD
ATOM     80  H   SGN d 301      -8.086  44.556 172.611  0.00  0.00     0.080 H 
ATOM     81  H   SGN d 301      -6.722  44.217 171.588  0.00  0.00     0.080 H 
ATOM     82  H   SGN d 301      -7.587  50.402 169.007  0.00  0.00     0.231 HD
ATOM     83  H   SGN d 301      -5.327  50.195 171.056  0.00  0.00     0.140 HD
ATOM     84  H   SGN d 301      -8.936  47.386 171.430  0.00  0.00     0.091 H 
ATOM     85  H   SGN d 301      -6.368  53.451 170.328  0.00  0.00     0.231 HD
ATOM     86  H   SGN d 301      -5.650  48.258 169.723  0.00  0.00     0.131 H 
ATOM     87  O1S IDS d 302     -12.865  42.568 173.933  0.00  0.00    -0.572 OA
ATOM     88  O2S IDS d 302     -11.953  42.222 171.773  0.00  0.00    -0.572 OA
ATOM     89  O62 IDS d 302     -11.662  49.157 176.323  0.00  0.00    -0.646 OA
ATOM     90  C6  IDS d 302     -11.611  48.820 175.152  0.00  0.00     0.206 C 
ATOM     91  C4  IDS d 302     -11.580  46.354 175.521  0.00  0.00     0.103 C 
ATOM     92  S   IDS d 302     -11.729  42.706 173.091  0.00  0.00     0.252 S 
ATOM     93  O3S IDS d 302     -10.575  42.158 173.694  0.00  0.00    -0.572 OA
ATOM     94  C5  IDS d 302     -11.012  47.516 174.775  0.00  0.00     0.152 C 
ATOM     95  C2  IDS d 302     -10.437  44.955 173.667  0.00  0.00     0.134 C 
ATOM     96  O2  IDS d 302     -11.457  44.241 172.993  0.00  0.00    -0.244 OA
ATOM     97  C3  IDS d 302     -10.816  45.056 175.156  0.00  0.00     0.094 C 
ATOM     98  O61 IDS d 302     -12.053  49.567 174.295  0.00  0.00    -0.646 OA
ATOM     99  O5  IDS d 302     -11.126  47.273 173.408  0.00  0.00    -0.340 OA
ATOM    100  O3  IDS d 302      -9.629  45.021 175.916  0.00  0.00    -0.390 OA
ATOM    101  O4  IDS d 302     -12.921  46.230 175.143  0.00  0.00    -0.348 OA
ATOM    102  C1  IDS d 302     -10.192  46.308 172.983  0.00  0.00     0.161 C 
ATOM    103  H   IDS d 302     -11.491  46.510 176.576  0.00  0.00     0.092 H 
ATOM    104  H   IDS d 302      -9.981  47.604 175.045  0.00  0.00     0.104 H 
ATOM    105  H   IDS d 302      -9.500  44.440 173.615  0.00  0.00     0.097 H 
ATOM    106  H   IDS d 302     -11.469  44.235 175.368  0.00  0.00     0.091 H 
ATOM    107  H   IDS d 302      -9.076  45.783 175.686  0.00  0.00     0.210 HD
ATOM    108  H   IDS d 302     -10.305  46.194 171.925  0.00  0.00     0.133 H 
ATOM    109  O6  SGN d 305     -24.366  43.847 170.373  0.00  0.00    -0.254 OA
ATOM    110  C2  SGN d 305     -22.903  48.110 170.369  0.00  0.00     0.081 C 
ATOM    111  O1S SGN d 305     -21.083  48.934 168.115  0.00  0.00    -0.296 OA
ATOM    112  O5  SGN d 305     -22.395  45.749 170.452  0.00  0.00    -0.349 OA
ATOM    113  S1  SGN d 305     -21.980  49.910 168.655  0.00  0.00     0.156 S 
ATOM    114  O5S SGN d 305     -24.892  42.498 168.388  0.00  0.00    -0.572 OA
ATOM    115  C1  SGN d 305     -21.805  47.049 170.372  0.00  0.00     0.150 C 
ATOM    116  O3  SGN d 305     -24.724  48.951 171.755  0.00  0.00    -0.391 OA
ATOM    117  S2  SGN d 305     -24.851  42.441 169.846  0.00  0.00     0.251 S 
ATOM    118  O6S SGN d 305     -23.882  41.459 170.300  0.00  0.00    -0.572 OA
ATOM    119  C5  SGN d 305     -23.212  45.533 171.631  0.00  0.00     0.090 C 
ATOM    120  O4S SGN d 305     -26.159  42.287 170.445  0.00  0.00    -0.572 OA
ATOM    121  C6  SGN d 305     -23.709  44.086 171.582  0.00  0.00     0.067 C 
ATOM    122  N   SGN d 305     -22.320  49.453 170.181  0.00  0.00    -0.210 NA
ATOM    123  O2S SGN d 305     -23.204  49.915 167.907  0.00  0.00    -0.296 OA
ATOM    124  O3S SGN d 305     -21.397  51.203 168.798  0.00  0.00    -0.296 OA
ATOM    125  C4  SGN d 305     -24.331  46.582 171.724  0.00  0.00     0.089 C 
ATOM    126  O4  SGN d 305     -25.015  46.470 172.962  0.00  0.00    -0.390 OA
ATOM    127  C3  SGN d 305     -23.687  47.984 171.695  0.00  0.00     0.083 C 
ATOM    128  H   SGN d 305     -23.579  47.960 169.554  0.00  0.00     0.076 H 
ATOM    129  H   SGN d 305     -21.540  48.080 168.044  0.00  0.00     0.231 HD
ATOM    130  H   SGN d 305     -21.234  47.080 169.468  0.00  0.00     0.131 H 
ATOM    131  H   SGN d 305     -24.337  49.841 171.738  0.00  0.00     0.210 HD
ATOM    132  H   SGN d 305     -22.649  45.663 172.531  0.00  0.00     0.090 H 
ATOM    133  H   SGN d 305     -22.876  43.421 171.669  0.00  0.00     0.080 H 
ATOM    134  H   SGN d 305     -24.391  43.922 172.391  0.00  0.00     0.080 H 
ATOM    135  H   SGN d 305     -21.450  49.486 170.713  0.00  0.00     0.140 HD
ATOM    136  H   SGN d 305     -23.549  49.010 167.846  0.00  0.00     0.231 HD
ATOM    137  H   SGN d 305     -20.577  51.134 169.309  0.00  0.00     0.231 HD
ATOM    138  H   SGN d 305     -25.010  46.431 170.911  0.00  0.00     0.091 H 
ATOM    139  H   SGN d 305     -24.390  46.609 173.691  0.00  0.00     0.210 HD
ATOM    140  H   SGN d 305     -23.023  48.136 172.520  0.00  0.00     0.089 H 
ENDROOT
TORSDOF 45
ENDMDL
MODEL 34
REMARK VINA RESULT:      -3.5      3.795      5.804
REMARK  0 active torsions:
REMARK  status: ('A' for Active; 'I' for Inactive)
REMARK       I    between atoms: C6_1  and  C5_56 
REMARK       I    between atoms: O3_2  and  C3_19 
REMARK       I    between atoms: C2_3  and  N_45 
REMARK       I    between atoms: S1_4  and  N_72 
REMARK       I    between atoms: S1_4  and  O1S_74 
REMARK       I    between atoms: S1_4  and  O2S_20 
REMARK       I    between atoms: S1_4  and  O3S_35 
REMARK       I    between atoms: C5_5  and  C6_27 
REMARK       I    between atoms: C3_7  and  O3_15 
REMARK       I    between atoms: O2S_10  and  S1_60 
REMARK       I    between atoms: O6_11  and  C6_27 
REMARK       I    between atoms: O6_11  and  S2_67 
REMARK       I    between atoms: C4_14  and  O4_71 
REMARK       I    between atoms: C4_16  and  O4_81 
REMARK       I    between atoms: C6_18  and  C5_53 
REMARK       I    between atoms: O2_21  and  C2_30 
REMARK       I    between atoms: O2_21  and  S_68 
REMARK       I    between atoms: O6_22  and  C6_61 
REMARK       I    between atoms: O6_22  and  S2_47 
REMARK       I    between atoms: O1_23  and  C1_86 
REMARK       I    between atoms: O6_24  and  C6_57 
REMARK       I    between atoms: O6_24  and  S2_89 
REMARK       I    between atoms: C4_25  and  O4_85 
REMARK       I    between atoms: C2_26  and  N_73 
REMARK       I    between atoms: C2_28  and  N_72 
REMARK       I    between atoms: O1S_32  and  S1_37 
REMARK       I    between atoms: S1_37  and  N_73 
REMARK       I    between atoms: S1_37  and  O2S_78 
REMARK       I    between atoms: S1_37  and  O3S_82 
REMARK       I    between atoms: C1_39  and  O4_71 
REMARK       I    between atoms: S_41  and  O2_63 
REMARK       I    between atoms: O3_43  and  C3_88 
REMARK       I    between atoms: O1S_44  and  S1_60 
REMARK       I    between atoms: N_45  and  S1_60 
REMARK       I    between atoms: C1_46  and  O4_85 
REMARK       I    between atoms: O4_48  and  C4_54 
REMARK       I    between atoms: O4_48  and  C1_90 
REMARK       I    between atoms: O3_49  and  C3_77 
REMARK       I    between atoms: C5_52  and  C6_61 
REMARK       I    between atoms: C6_57  and  C5_79 
REMARK       I    between atoms: C2_58  and  O2_63 
REMARK       I    between atoms: S1_60  and  O3S_75 
REMARK       I    between atoms: C3_64  and  O3_80 
REMARK       I    between atoms: O4_81  and  C1_84 
REMARK       I    between atoms: C4_83  and  O4_87 
ROOT
ATOM      1  C6  IDS d 304     -10.554  50.212 173.509  0.00  0.00     0.206 C 
ATOM      2  O61 IDS d 304     -10.174  50.301 174.659  0.00  0.00    -0.646 OA
ATOM      3  C4  IDS d 304     -12.314  48.899 172.371  0.00  0.00     0.103 C 
ATOM      4  O2  IDS d 304     -14.593  47.987 174.251  0.00  0.00    -0.244 OA
ATOM      5  O62 IDS d 304      -9.750  50.212 172.628  0.00  0.00    -0.646 OA
ATOM      6  C2  IDS d 304     -14.635  49.115 173.417  0.00  0.00     0.134 C 
ATOM      7  O1S IDS d 304     -16.684  46.842 174.377  0.00  0.00    -0.572 OA
ATOM      8  O3  IDS d 304     -14.141  49.727 171.135  0.00  0.00    -0.390 OA
ATOM      9  C5  IDS d 304     -11.978  50.108 173.201  0.00  0.00     0.152 C 
ATOM     10  O5  IDS d 304     -12.697  50.158 174.391  0.00  0.00    -0.340 OA
ATOM     11  O2S IDS d 304     -15.017  46.593 176.051  0.00  0.00    -0.572 OA
ATOM     12  O3S IDS d 304     -16.271  48.561 175.953  0.00  0.00    -0.572 OA
ATOM     13  S   IDS d 304     -15.711  47.488 175.209  0.00  0.00     0.252 S 
ATOM     14  O4  IDS d 304     -11.893  47.764 173.050  0.00  0.00    -0.348 OA
ATOM     15  C3  IDS d 304     -13.814  48.801 172.136  0.00  0.00     0.094 C 
ATOM     16  C1  IDS d 304     -14.090  50.319 174.194  0.00  0.00     0.161 C 
ATOM     17  H   IDS d 304     -11.824  48.982 171.423  0.00  0.00     0.092 H 
ATOM     18  H   IDS d 304     -15.632  49.355 173.116  0.00  0.00     0.097 H 
ATOM     19  H   IDS d 304     -13.629  49.531 170.334  0.00  0.00     0.210 HD
ATOM     20  H   IDS d 304     -12.258  50.939 172.587  0.00  0.00     0.104 H 
ATOM     21  H   IDS d 304     -14.057  47.799 171.849  0.00  0.00     0.091 H 
ATOM     22  H   IDS d 304     -14.543  50.391 175.161  0.00  0.00     0.133 H 
ATOM     23  O3  SGN d 303     -12.628  53.694 172.741  0.00  0.00    -0.391 OA
ATOM     24  S1  SGN d 303     -13.125  57.610 173.499  0.00  0.00     0.156 S 
ATOM     25  O5S SGN d 303     -14.625  51.825 179.006  0.00  0.00    -0.572 OA
ATOM     26  C4  SGN d 303     -14.346  52.710 174.164  0.00  0.00     0.095 C 
ATOM     27  C3  SGN d 303     -13.965  53.846 173.143  0.00  0.00     0.083 C 
ATOM     28  O2S SGN d 303     -11.828  57.153 173.889  0.00  0.00    -0.296 OA
ATOM     29  O6  SGN d 303     -15.428  52.070 176.784  0.00  0.00    -0.254 OA
ATOM     30  C2  SGN d 303     -14.110  55.216 173.824  0.00  0.00     0.081 C 
ATOM     31  O3S SGN d 303     -13.106  58.555 172.455  0.00  0.00    -0.296 OA
ATOM     32  O5  SGN d 303     -15.765  54.309 175.318  0.00  0.00    -0.349 OA
ATOM     33  C1  SGN d 303     -15.506  55.376 174.420  0.00  0.00     0.150 C 
ATOM     34  O4S SGN d 303     -16.345  50.370 178.196  0.00  0.00    -0.572 OA
ATOM     35  C6  SGN d 303     -16.288  52.061 175.705  0.00  0.00     0.067 C 
ATOM     36  O6S SGN d 303     -16.855  52.687 178.625  0.00  0.00    -0.572 OA
ATOM     37  N   SGN d 303     -13.855  56.312 172.892  0.00  0.00    -0.210 NA
ATOM     38  O1S SGN d 303     -13.893  58.041 174.643  0.00  0.00    -0.296 OA
ATOM     39  C5  SGN d 303     -15.748  53.030 174.699  0.00  0.00     0.091 C 
ATOM     40  O4  SGN d 303     -14.400  51.491 173.483  0.00  0.00    -0.348 OA
ATOM     41  S2  SGN d 303     -15.843  51.716 178.238  0.00  0.00     0.251 S 
ATOM     42  H   SGN d 303     -12.517  52.833 172.308  0.00  0.00     0.210 HD
ATOM     43  H   SGN d 303     -13.630  52.652 174.957  0.00  0.00     0.091 H 
ATOM     44  H   SGN d 303     -14.614  53.782 172.294  0.00  0.00     0.089 H 
ATOM     45  H   SGN d 303     -11.915  56.508 174.608  0.00  0.00     0.231 HD
ATOM     46  H   SGN d 303     -13.381  55.257 174.606  0.00  0.00     0.076 H 
ATOM     47  H   SGN d 303     -14.015  58.820 172.243  0.00  0.00     0.231 HD
ATOM     48  H   SGN d 303     -15.592  56.284 174.980  0.00  0.00     0.131 H 
ATOM     49  H   SGN d 303     -17.267  52.361 176.014  0.00  0.00     0.080 H 
ATOM     50  H   SGN d 303     -16.360  51.079 175.285  0.00  0.00     0.080 H 
ATOM     51  H   SGN d 303     -13.268  55.950 172.140  0.00  0.00     0.140 HD
ATOM     52  H   SGN d 303     -13.869  57.353 175.325  0.00  0.00     0.231 HD
ATOM     53  H   SGN d 303     -16.369  52.978 173.829  0.00  0.00     0.090 H 
ATOM     54  C2  SGN d 301     -23.523  55.299 170.454  0.00  0.00     0.081 C 
ATOM     55  C5  SGN d 301     -21.554  56.995 169.405  0.00  0.00     0.091 C 
ATOM     56  O6S SGN d 301     -20.775  57.386 165.955  0.00  0.00    -0.572 OA
ATOM     57  C3  SGN d 301     -22.498  55.989 171.345  0.00  0.00     0.083 C 
ATOM     58  O2S SGN d 301     -24.285  52.963 172.271  0.00  0.00    -0.296 OA
ATOM     59  O6  SGN d 301     -19.911  56.324 167.899  0.00  0.00    -0.254 OA
ATOM     60  O3  SGN d 301     -22.269  55.246 172.521  0.00  0.00    -0.391 OA
ATOM     61  O1  SGN d 301     -24.342  57.392 169.554  0.00  0.00    -0.369 OA
ATOM     62  C6  SGN d 301     -20.361  57.415 168.590  0.00  0.00     0.067 C 
ATOM     63  O5S SGN d 301     -20.978  54.970 166.277  0.00  0.00    -0.572 OA
ATOM     64  O4S SGN d 301     -18.829  55.946 165.815  0.00  0.00    -0.572 OA
ATOM     65  O1S SGN d 301     -25.294  52.905 170.037  0.00  0.00    -0.296 OA
ATOM     66  N   SGN d 301     -24.782  55.087 171.141  0.00  0.00    -0.210 NA
ATOM     67  O4  SGN d 301     -20.175  56.530 171.226  0.00  0.00    -0.348 OA
ATOM     68  C4  SGN d 301     -21.239  56.036 170.502  0.00  0.00     0.095 C 
ATOM     69  S1  SGN d 301     -25.261  53.540 171.364  0.00  0.00     0.156 S 
ATOM     70  S2  SGN d 301     -20.143  56.148 166.398  0.00  0.00     0.251 S 
ATOM     71  O3S SGN d 301     -26.552  53.650 171.999  0.00  0.00    -0.296 OA
ATOM     72  O5  SGN d 301     -22.504  56.398 168.555  0.00  0.00    -0.350 OA
ATOM     73  C1  SGN d 301     -23.728  56.150 169.198  0.00  0.00     0.147 C 
ATOM     74  H   SGN d 301     -23.153  54.331 170.187  0.00  0.00     0.076 H 
ATOM     75  H   SGN d 301     -21.925  57.885 169.867  0.00  0.00     0.090 H 
ATOM     76  H   SGN d 301     -22.825  56.958 171.659  0.00  0.00     0.089 H 
ATOM     77  H   SGN d 301     -23.426  52.899 171.824  0.00  0.00     0.231 HD
ATOM     78  H   SGN d 301     -21.968  54.354 172.287  0.00  0.00     0.210 HD
ATOM     79  H   SGN d 301     -25.187  57.220 169.998  0.00  0.00     0.212 HD
ATOM     80  H   SGN d 301     -19.590  57.778 169.237  0.00  0.00     0.080 H 
ATOM     81  H   SGN d 301     -20.634  58.196 167.911  0.00  0.00     0.080 H 
ATOM     82  H   SGN d 301     -24.395  52.867 169.675  0.00  0.00     0.231 HD
ATOM     83  H   SGN d 301     -25.508  55.558 170.603  0.00  0.00     0.140 HD
ATOM     84  H   SGN d 301     -20.969  55.061 170.154  0.00  0.00     0.091 H 
ATOM     85  H   SGN d 301     -26.906  52.762 172.166  0.00  0.00     0.231 HD
ATOM     86  H   SGN d 301     -24.362  55.613 168.526  0.00  0.00     0.131 H 
ATOM     87  O1S IDS d 302     -14.467  56.682 170.284  0.00  0.00    -0.572 OA
ATOM     88  O2S IDS d 302     -15.422  56.162 168.179  0.00  0.00    -0.572 OA
ATOM     89  O62 IDS d 302     -18.922  55.309 175.655  0.00  0.00    -0.646 OA
ATOM     90  C6  IDS d 302     -19.013  54.835 174.534  0.00  0.00     0.206 C 
ATOM     91  C4  IDS d 302     -17.425  56.382 173.394  0.00  0.00     0.103 C 
ATOM     92  S   IDS d 302     -15.596  56.812 169.430  0.00  0.00     0.252 S 
ATOM     93  O3S IDS d 302     -15.988  58.163 169.304  0.00  0.00    -0.572 OA
ATOM     94  C5  IDS d 302     -18.740  55.676 173.343  0.00  0.00     0.152 C 
ATOM     95  C2  IDS d 302     -17.832  56.744 170.862  0.00  0.00     0.134 C 
ATOM     96  O2  IDS d 302     -16.773  56.105 170.173  0.00  0.00    -0.244 OA
ATOM     97  C3  IDS d 302     -17.277  57.328 172.174  0.00  0.00     0.094 C 
ATOM     98  O61 IDS d 302     -19.336  53.666 174.404  0.00  0.00    -0.646 OA
ATOM     99  O5  IDS d 302     -18.809  54.937 172.164  0.00  0.00    -0.340 OA
ATOM    100  O3  IDS d 302     -17.978  58.518 172.458  0.00  0.00    -0.390 OA
ATOM    101  O4  IDS d 302     -16.425  55.407 173.353  0.00  0.00    -0.348 OA
ATOM    102  C1  IDS d 302     -19.008  55.774 171.050  0.00  0.00     0.161 C 
ATOM    103  H   IDS d 302     -17.353  56.970 174.285  0.00  0.00     0.092 H 
ATOM    104  H   IDS d 302     -19.510  56.418 173.353  0.00  0.00     0.104 H 
ATOM    105  H   IDS d 302     -18.230  57.560 170.297  0.00  0.00     0.097 H 
ATOM    106  H   IDS d 302     -16.230  57.488 172.025  0.00  0.00     0.091 H 
ATOM    107  H   IDS d 302     -18.918  58.316 172.584  0.00  0.00     0.210 HD
ATOM    108  H   IDS d 302     -19.090  55.147 170.186  0.00  0.00     0.133 H 
ATOM    109  O6  SGN d 305      -7.406  46.877 171.044  0.00  0.00    -0.254 OA
ATOM    110  C2  SGN d 305     -11.149  45.501 173.142  0.00  0.00     0.081 C 
ATOM    111  O1S SGN d 305     -13.533  44.860 171.415  0.00  0.00    -0.296 OA
ATOM    112  O5  SGN d 305     -10.050  47.118 171.722  0.00  0.00    -0.349 OA
ATOM    113  S1  SGN d 305     -13.344  44.107 172.618  0.00  0.00     0.156 S 
ATOM    114  O5S SGN d 305      -6.618  46.113 168.845  0.00  0.00    -0.572 OA
ATOM    115  C1  SGN d 305     -11.318  46.741 172.266  0.00  0.00     0.150 C 
ATOM    116  O3  SGN d 305      -9.992  44.749 175.151  0.00  0.00    -0.391 OA
ATOM    117  S2  SGN d 305      -6.287  47.020 169.940  0.00  0.00     0.251 S 
ATOM    118  O6S SGN d 305      -6.306  48.402 169.491  0.00  0.00    -0.572 OA
ATOM    119  C5  SGN d 305      -9.038  47.421 172.716  0.00  0.00     0.090 C 
ATOM    120  O4S SGN d 305      -5.074  46.651 170.636  0.00  0.00    -0.572 OA
ATOM    121  C6  SGN d 305      -7.778  47.859 171.964  0.00  0.00     0.067 C 
ATOM    122  N   SGN d 305     -12.463  45.034 173.627  0.00  0.00    -0.210 NA
ATOM    123  O2S SGN d 305     -12.592  42.918 172.335  0.00  0.00    -0.296 OA
ATOM    124  O3S SGN d 305     -14.551  43.859 173.333  0.00  0.00    -0.296 OA
ATOM    125  C4  SGN d 305      -8.826  46.232 173.665  0.00  0.00     0.089 C 
ATOM    126  O4  SGN d 305      -7.965  46.596 174.733  0.00  0.00    -0.390 OA
ATOM    127  C3  SGN d 305     -10.186  45.863 174.294  0.00  0.00     0.083 C 
ATOM    128  H   SGN d 305     -10.731  44.690 172.584  0.00  0.00     0.076 H 
ATOM    129  H   SGN d 305     -12.676  44.994 170.980  0.00  0.00     0.231 HD
ATOM    130  H   SGN d 305     -11.968  46.545 171.439  0.00  0.00     0.131 H 
ATOM    131  H   SGN d 305     -10.838  44.502 175.556  0.00  0.00     0.210 HD
ATOM    132  H   SGN d 305      -9.340  48.223 173.356  0.00  0.00     0.090 H 
ATOM    133  H   SGN d 305      -7.973  48.774 171.446  0.00  0.00     0.080 H 
ATOM    134  H   SGN d 305      -6.982  48.001 172.666  0.00  0.00     0.080 H 
ATOM    135  H   SGN d 305     -13.019  45.860 173.849  0.00  0.00     0.140 HD
ATOM    136  H   SGN d 305     -11.786  43.152 171.850  0.00  0.00     0.231 HD
ATOM    137  H   SGN d 305     -15.011  44.698 173.493  0.00  0.00     0.231 HD
ATOM    138  H   SGN d 305      -8.403  45.421 173.109  0.00  0.00     0.091 H 
ATOM    139  H   SGN d 305      -8.358  47.331 175.229  0.00  0.00     0.210 HD
ATOM    140  H   SGN d 305     -10.595  46.672 174.864  0.00  0.00     0.089 H 
ENDROOT
TORSDOF 45
ENDMDL
MODEL 35
REMARK VINA RESULT:      -3.0      4.041      6.811
REMARK  0 active torsions:
REMARK  status: ('A' for Active; 'I' for Inactive)
REMARK       I    between atoms: C6_1  and  C5_56 
REMARK       I    between atoms: O3_2  and  C3_19 
REMARK       I    between atoms: C2_3  and  N_45 
REMARK       I    between atoms: S1_4  and  N_72 
REMARK       I    between atoms: S1_4  and  O1S_74 
REMARK       I    between atoms: S1_4  and  O2S_20 
REMARK       I    between atoms: S1_4  and  O3S_35 
REMARK       I    between atoms: C5_5  and  C6_27 
REMARK       I    between atoms: C3_7  and  O3_15 
REMARK       I    between atoms: O2S_10  and  S1_60 
REMARK       I    between atoms: O6_11  and  C6_27 
REMARK       I    between atoms: O6_11  and  S2_67 
REMARK       I    between atoms: C4_14  and  O4_71 
REMARK       I    between atoms: C4_16  and  O4_81 
REMARK       I    between atoms: C6_18  and  C5_53 
REMARK       I    between atoms: O2_21  and  C2_30 
REMARK       I    between atoms: O2_21  and  S_68 
REMARK       I    between atoms: O6_22  and  C6_61 
REMARK       I    between atoms: O6_22  and  S2_47 
REMARK       I    between atoms: O1_23  and  C1_86 
REMARK       I    between atoms: O6_24  and  C6_57 
REMARK       I    between atoms: O6_24  and  S2_89 
REMARK       I    between atoms: C4_25  and  O4_85 
REMARK       I    between atoms: C2_26  and  N_73 
REMARK       I    between atoms: C2_28  and  N_72 
REMARK       I    between atoms: O1S_32  and  S1_37 
REMARK       I    between atoms: S1_37  and  N_73 
REMARK       I    between atoms: S1_37  and  O2S_78 
REMARK       I    between atoms: S1_37  and  O3S_82 
REMARK       I    between atoms: C1_39  and  O4_71 
REMARK       I    between atoms: S_41  and  O2_63 
REMARK       I    between atoms: O3_43  and  C3_88 
REMARK       I    between atoms: O1S_44  and  S1_60 
REMARK       I    between atoms: N_45  and  S1_60 
REMARK       I    between atoms: C1_46  and  O4_85 
REMARK       I    between atoms: O4_48  and  C4_54 
REMARK       I    between atoms: O4_48  and  C1_90 
REMARK       I    between atoms: O3_49  and  C3_77 
REMARK       I    between atoms: C5_52  and  C6_61 
REMARK       I    between atoms: C6_57  and  C5_79 
REMARK       I    between atoms: C2_58  and  O2_63 
REMARK       I    between atoms: S1_60  and  O3S_75 
REMARK       I    between atoms: C3_64  and  O3_80 
REMARK       I    between atoms: O4_81  and  C1_84 
REMARK       I    between atoms: C4_83  and  O4_87 
ROOT
ATOM      1  C6  IDS d 304      -9.723  45.479 174.988  0.00  0.00     0.206 C 
ATOM      2  O61 IDS d 304      -9.993  44.409 174.480  0.00  0.00    -0.646 OA
ATOM      3  C4  IDS d 304      -8.840  47.623 174.128  0.00  0.00     0.103 C 
ATOM      4  O2  IDS d 304      -9.346  48.051 171.108  0.00  0.00    -0.244 OA
ATOM      5  O62 IDS d 304      -9.195  45.498 176.058  0.00  0.00    -0.646 OA
ATOM      6  C2  IDS d 304     -10.135  48.577 172.143  0.00  0.00     0.134 C 
ATOM      7  O1S IDS d 304      -9.086  49.559 169.276  0.00  0.00    -0.572 OA
ATOM      8  O3  IDS d 304      -9.868  49.740 174.242  0.00  0.00    -0.390 OA
ATOM      9  C5  IDS d 304     -10.039  46.730 174.304  0.00  0.00     0.152 C 
ATOM     10  O5  IDS d 304     -10.668  46.434 173.099  0.00  0.00    -0.340 OA
ATOM     11  O2S IDS d 304      -8.755  47.219 169.029  0.00  0.00    -0.572 OA
ATOM     12  O3S IDS d 304     -10.923  48.066 169.222  0.00  0.00    -0.572 OA
ATOM     13  S   IDS d 304      -9.559  48.240 169.580  0.00  0.00     0.252 S 
ATOM     14  O4  IDS d 304      -7.870  46.928 173.419  0.00  0.00    -0.348 OA
ATOM     15  C3  IDS d 304      -9.208  48.880 173.352  0.00  0.00     0.094 C 
ATOM     16  C1  IDS d 304     -11.241  47.569 172.476  0.00  0.00     0.161 C 
ATOM     17  H   IDS d 304      -8.478  47.911 175.093  0.00  0.00     0.092 H 
ATOM     18  H   IDS d 304     -10.612  49.491 171.860  0.00  0.00     0.097 H 
ATOM     19  H   IDS d 304      -9.289  49.929 174.997  0.00  0.00     0.210 HD
ATOM     20  H   IDS d 304     -10.706  47.298 174.919  0.00  0.00     0.104 H 
ATOM     21  H   IDS d 304      -8.317  49.319 172.958  0.00  0.00     0.091 H 
ATOM     22  H   IDS d 304     -11.735  47.231 171.589  0.00  0.00     0.133 H 
ATOM     23  O3  SGN d 303     -13.342  47.277 175.814  0.00  0.00    -0.391 OA
ATOM     24  S1  SGN d 303     -17.231  46.857 176.742  0.00  0.00     0.156 S 
ATOM     25  O5S SGN d 303     -14.129  44.562 169.590  0.00  0.00    -0.572 OA
ATOM     26  C4  SGN d 303     -13.461  47.616 173.403  0.00  0.00     0.095 C 
ATOM     27  C3  SGN d 303     -14.057  47.962 174.818  0.00  0.00     0.083 C 
ATOM     28  O2S SGN d 303     -16.480  45.679 177.048  0.00  0.00    -0.296 OA
ATOM     29  O6  SGN d 303     -14.002  46.650 170.715  0.00  0.00    -0.254 OA
ATOM     30  C2  SGN d 303     -15.524  47.510 174.880  0.00  0.00     0.081 C 
ATOM     31  O3S SGN d 303     -17.775  47.495 177.874  0.00  0.00    -0.296 OA
ATOM     32  O5  SGN d 303     -15.708  47.749 172.493  0.00  0.00    -0.349 OA
ATOM     33  C1  SGN d 303     -16.320  48.104 173.722  0.00  0.00     0.150 C 
ATOM     34  O4S SGN d 303     -13.198  46.463 168.470  0.00  0.00    -0.572 OA
ATOM     35  C6  SGN d 303     -13.989  48.013 170.927  0.00  0.00     0.067 C 
ATOM     36  O6S SGN d 303     -15.568  46.384 168.905  0.00  0.00    -0.572 OA
ATOM     37  N   SGN d 303     -16.152  47.889 176.143  0.00  0.00    -0.210 NA
ATOM     38  O1S SGN d 303     -18.205  46.602 175.708  0.00  0.00    -0.296 OA
ATOM     39  C5  SGN d 303     -14.384  48.245 172.353  0.00  0.00     0.091 C 
ATOM     40  O4  SGN d 303     -12.197  48.202 173.289  0.00  0.00    -0.348 OA
ATOM     41  S2  SGN d 303     -14.239  45.979 169.335  0.00  0.00     0.251 S 
ATOM     42  H   SGN d 303     -12.412  47.550 175.790  0.00  0.00     0.210 HD
ATOM     43  H   SGN d 303     -13.383  46.557 173.269  0.00  0.00     0.091 H 
ATOM     44  H   SGN d 303     -13.986  49.018 174.976  0.00  0.00     0.089 H 
ATOM     45  H   SGN d 303     -16.137  45.293 176.227  0.00  0.00     0.231 HD
ATOM     46  H   SGN d 303     -15.527  46.443 174.806  0.00  0.00     0.076 H 
ATOM     47  H   SGN d 303     -18.268  48.282 177.595  0.00  0.00     0.231 HD
ATOM     48  H   SGN d 303     -17.319  47.723 173.696  0.00  0.00     0.131 H 
ATOM     49  H   SGN d 303     -14.685  48.492 170.271  0.00  0.00     0.080 H 
ATOM     50  H   SGN d 303     -13.018  48.419 170.732  0.00  0.00     0.080 H 
ATOM     51  H   SGN d 303     -15.413  48.002 176.837  0.00  0.00     0.140 HD
ATOM     52  H   SGN d 303     -17.773  46.164 174.959  0.00  0.00     0.231 HD
ATOM     53  H   SGN d 303     -14.309  49.295 172.546  0.00  0.00     0.090 H 
ATOM     54  C2  SGN d 301     -17.924  56.643 171.597  0.00  0.00     0.081 C 
ATOM     55  C5  SGN d 301     -18.460  55.819 174.221  0.00  0.00     0.091 C 
ATOM     56  O6S SGN d 301     -17.568  57.589 177.176  0.00  0.00    -0.572 OA
ATOM     57  C3  SGN d 301     -18.435  55.243 171.911  0.00  0.00     0.083 C 
ATOM     58  O2S SGN d 301     -16.611  56.109 168.890  0.00  0.00    -0.296 OA
ATOM     59  O6  SGN d 301     -16.864  55.702 175.912  0.00  0.00    -0.254 OA
ATOM     60  O3  SGN d 301     -18.021  54.321 170.928  0.00  0.00    -0.391 OA
ATOM     61  O1  SGN d 301     -19.827  57.713 172.642  0.00  0.00    -0.369 OA
ATOM     62  C6  SGN d 301     -18.192  55.483 175.663  0.00  0.00     0.067 C 
ATOM     63  O5S SGN d 301     -15.568  57.677 175.770  0.00  0.00    -0.572 OA
ATOM     64  O4S SGN d 301     -15.564  56.369 177.788  0.00  0.00    -0.572 OA
ATOM     65  O1S SGN d 301     -16.281  58.374 169.767  0.00  0.00    -0.296 OA
ATOM     66  N   SGN d 301     -18.365  57.101 170.294  0.00  0.00    -0.210 NA
ATOM     67  O4  SGN d 301     -18.077  53.602 173.609  0.00  0.00    -0.348 OA
ATOM     68  C4  SGN d 301     -17.802  54.904 173.246  0.00  0.00     0.095 C 
ATOM     69  S1  SGN d 301     -17.211  57.399 169.175  0.00  0.00     0.156 S 
ATOM     70  S2  SGN d 301     -16.365  56.910 176.706  0.00  0.00     0.251 S 
ATOM     71  O3S SGN d 301     -17.937  57.894 168.031  0.00  0.00    -0.296 OA
ATOM     72  O5  SGN d 301     -18.017  57.130 173.964  0.00  0.00    -0.350 OA
ATOM     73  C1  SGN d 301     -18.403  57.595 172.696  0.00  0.00     0.147 C 
ATOM     74  H   SGN d 301     -16.854  56.622 171.568  0.00  0.00     0.076 H 
ATOM     75  H   SGN d 301     -19.515  55.712 174.084  0.00  0.00     0.090 H 
ATOM     76  H   SGN d 301     -19.504  55.201 171.935  0.00  0.00     0.089 H 
ATOM     77  H   SGN d 301     -16.129  55.796 169.672  0.00  0.00     0.231 HD
ATOM     78  H   SGN d 301     -17.053  54.323 170.869  0.00  0.00     0.210 HD
ATOM     79  H   SGN d 301     -20.092  58.035 171.766  0.00  0.00     0.212 HD
ATOM     80  H   SGN d 301     -18.430  54.456 175.846  0.00  0.00     0.080 H 
ATOM     81  H   SGN d 301     -18.794  56.093 176.303  0.00  0.00     0.080 H 
ATOM     82  H   SGN d 301     -15.832  57.972 170.528  0.00  0.00     0.231 HD
ATOM     83  H   SGN d 301     -18.888  57.965 170.433  0.00  0.00     0.140 HD
ATOM     84  H   SGN d 301     -16.738  55.010 173.209  0.00  0.00     0.091 H 
ATOM     85  H   SGN d 301     -17.314  58.097 167.316  0.00  0.00     0.231 HD
ATOM     86  H   SGN d 301     -17.953  58.552 172.534  0.00  0.00     0.131 H 
ATOM     87  O1S IDS d 302     -15.963  50.094 177.697  0.00  0.00    -0.572 OA
ATOM     88  O2S IDS d 302     -15.237  52.263 178.316  0.00  0.00    -0.572 OA
ATOM     89  O62 IDS d 302     -17.796  49.742 170.835  0.00  0.00    -0.646 OA
ATOM     90  C6  IDS d 302     -17.089  50.608 171.324  0.00  0.00     0.206 C 
ATOM     91  C4  IDS d 302     -17.599  50.132 173.718  0.00  0.00     0.103 C 
ATOM     92  S   IDS d 302     -16.231  51.489 177.659  0.00  0.00     0.252 S 
ATOM     93  O3S IDS d 302     -17.540  51.770 178.108  0.00  0.00    -0.572 OA
ATOM     94  C5  IDS d 302     -17.410  51.169 172.659  0.00  0.00     0.152 C 
ATOM     95  C2  IDS d 302     -17.351  52.136 175.339  0.00  0.00     0.134 C 
ATOM     96  O2  IDS d 302     -16.217  51.882 176.148  0.00  0.00    -0.244 OA
ATOM     97  C3  IDS d 302     -18.050  50.797 175.045  0.00  0.00     0.094 C 
ATOM     98  O61 IDS d 302     -16.118  51.009 170.703  0.00  0.00    -0.646 OA
ATOM     99  O5  IDS d 302     -16.441  52.075 173.084  0.00  0.00    -0.340 OA
ATOM    100  O3  IDS d 302     -19.437  51.031 174.964  0.00  0.00    -0.390 OA
ATOM    101  O4  IDS d 302     -16.367  49.499 173.908  0.00  0.00    -0.348 OA
ATOM    102  C1  IDS d 302     -16.945  52.927 174.086  0.00  0.00     0.161 C 
ATOM    103  H   IDS d 302     -18.350  49.431 173.422  0.00  0.00     0.092 H 
ATOM    104  H   IDS d 302     -18.345  51.671 172.524  0.00  0.00     0.104 H 
ATOM    105  H   IDS d 302     -18.060  52.758 175.844  0.00  0.00     0.097 H 
ATOM    106  H   IDS d 302     -17.787  50.128 175.837  0.00  0.00     0.091 H 
ATOM    107  H   IDS d 302     -19.619  51.641 174.233  0.00  0.00     0.210 HD
ATOM    108  H   IDS d 302     -16.170  53.619 174.341  0.00  0.00     0.133 H 
ATOM    109  O6  SGN d 305      -4.951  45.104 177.038  0.00  0.00    -0.254 OA
ATOM    110  C2  SGN d 305      -5.614  46.477 172.798  0.00  0.00     0.081 C 
ATOM    111  O1S SGN d 305      -5.384  49.432 172.260  0.00  0.00    -0.296 OA
ATOM    112  O5  SGN d 305      -6.277  46.543 175.120  0.00  0.00    -0.349 OA
ATOM    113  S1  SGN d 305      -4.983  48.521 171.231  0.00  0.00     0.156 S 
ATOM    114  O5S SGN d 305      -3.375  46.089 178.646  0.00  0.00    -0.572 OA
ATOM    115  C1  SGN d 305      -6.534  47.116 173.835  0.00  0.00     0.150 C 
ATOM    116  O3  SGN d 305      -5.104  44.312 171.801  0.00  0.00    -0.391 OA
ATOM    117  S2  SGN d 305      -4.379  45.038 178.508  0.00  0.00     0.251 S 
ATOM    118  O6S SGN d 305      -5.496  45.266 179.410  0.00  0.00    -0.572 OA
ATOM    119  C5  SGN d 305      -6.477  45.108 175.186  0.00  0.00     0.090 C 
ATOM    120  O4S SGN d 305      -3.823  43.705 178.596  0.00  0.00    -0.572 OA
ATOM    121  C6  SGN d 305      -6.218  44.678 176.633  0.00  0.00     0.067 C 
ATOM    122  N   SGN d 305      -5.790  47.129 171.485  0.00  0.00    -0.210 NA
ATOM    123  O2S SGN d 305      -3.578  48.249 171.340  0.00  0.00    -0.296 OA
ATOM    124  O3S SGN d 305      -5.382  48.925 169.923  0.00  0.00    -0.296 OA
ATOM    125  C4  SGN d 305      -5.606  44.383 174.148  0.00  0.00     0.089 C 
ATOM    126  O4  SGN d 305      -5.933  43.003 174.102  0.00  0.00    -0.390 OA
ATOM    127  C3  SGN d 305      -5.927  44.965 172.755  0.00  0.00     0.083 C 
ATOM    128  H   SGN d 305      -4.586  46.609 173.062  0.00  0.00     0.076 H 
ATOM    129  H   SGN d 305      -5.083  49.100 173.121  0.00  0.00     0.231 HD
ATOM    130  H   SGN d 305      -6.353  48.167 173.918  0.00  0.00     0.131 H 
ATOM    131  H   SGN d 305      -5.291  44.665 170.916  0.00  0.00     0.210 HD
ATOM    132  H   SGN d 305      -7.479  44.835 174.931  0.00  0.00     0.090 H 
ATOM    133  H   SGN d 305      -6.958  45.113 177.270  0.00  0.00     0.080 H 
ATOM    134  H   SGN d 305      -6.266  43.611 176.696  0.00  0.00     0.080 H 
ATOM    135  H   SGN d 305      -6.784  47.325 171.371  0.00  0.00     0.140 HD
ATOM    136  H   SGN d 305      -3.371  47.980 172.249  0.00  0.00     0.231 HD
ATOM    137  H   SGN d 305      -6.337  49.093 169.914  0.00  0.00     0.231 HD
ATOM    138  H   SGN d 305      -4.578  44.511 174.413  0.00  0.00     0.091 H 
ATOM    139  H   SGN d 305      -6.867  42.900 173.860  0.00  0.00     0.210 HD
ATOM    140  H   SGN d 305      -6.952  44.817 172.487  0.00  0.00     0.089 H 
ENDROOT
TORSDOF 45
ENDMDL
MODEL 36
REMARK VINA RESULT:      -2.7      2.657      3.730
REMARK  0 active torsions:
REMARK  status: ('A' for Active; 'I' for Inactive)
REMARK       I    between atoms: C6_1  and  C5_56 
REMARK       I    between atoms: O3_2  and  C3_19 
REMARK       I    between atoms: C2_3  and  N_45 
REMARK       I    between atoms: S1_4  and  N_72 
REMARK       I    between atoms: S1_4  and  O1S_74 
REMARK       I    between atoms: S1_4  and  O2S_20 
REMARK       I    between atoms: S1_4  and  O3S_35 
REMARK       I    between atoms: C5_5  and  C6_27 
REMARK       I    between atoms: C3_7  and  O3_15 
REMARK       I    between atoms: O2S_10  and  S1_60 
REMARK       I    between atoms: O6_11  and  C6_27 
REMARK       I    between atoms: O6_11  and  S2_67 
REMARK       I    between atoms: C4_14  and  O4_71 
REMARK       I    between atoms: C4_16  and  O4_81 
REMARK       I    between atoms: C6_18  and  C5_53 
REMARK       I    between atoms: O2_21  and  C2_30 
REMARK       I    between atoms: O2_21  and  S_68 
REMARK       I    between atoms: O6_22  and  C6_61 
REMARK       I    between atoms: O6_22  and  S2_47 
REMARK       I    between atoms: O1_23  and  C1_86 
REMARK       I    between atoms: O6_24  and  C6_57 
REMARK       I    between atoms: O6_24  and  S2_89 
REMARK       I    between atoms: C4_25  and  O4_85 
REMARK       I    between atoms: C2_26  and  N_73 
REMARK       I    between atoms: C2_28  and  N_72 
REMARK       I    between atoms: O1S_32  and  S1_37 
REMARK       I    between atoms: S1_37  and  N_73 
REMARK       I    between atoms: S1_37  and  O2S_78 
REMARK       I    between atoms: S1_37  and  O3S_82 
REMARK       I    between atoms: C1_39  and  O4_71 
REMARK       I    between atoms: S_41  and  O2_63 
REMARK       I    between atoms: O3_43  and  C3_88 
REMARK       I    between atoms: O1S_44  and  S1_60 
REMARK       I    between atoms: N_45  and  S1_60 
REMARK       I    between atoms: C1_46  and  O4_85 
REMARK       I    between atoms: O4_48  and  C4_54 
REMARK       I    between atoms: O4_48  and  C1_90 
REMARK       I    between atoms: O3_49  and  C3_77 
REMARK       I    between atoms: C5_52  and  C6_61 
REMARK       I    between atoms: C6_57  and  C5_79 
REMARK       I    between atoms: C2_58  and  O2_63 
REMARK       I    between atoms: S1_60  and  O3S_75 
REMARK       I    between atoms: C3_64  and  O3_80 
REMARK       I    between atoms: O4_81  and  C1_84 
REMARK       I    between atoms: C4_83  and  O4_87 
ROOT
ATOM      1  C6  IDS d 304     -12.876  47.305 174.281  0.00  0.00     0.206 C 
ATOM      2  O61 IDS d 304     -12.880  46.103 174.452  0.00  0.00    -0.646 OA
ATOM      3  C4  IDS d 304     -12.910  48.763 172.283  0.00  0.00     0.103 C 
ATOM      4  O2  IDS d 304     -14.095  47.401 169.774  0.00  0.00    -0.244 OA
ATOM      5  O62 IDS d 304     -12.187  47.990 174.975  0.00  0.00    -0.646 OA
ATOM      6  C2  IDS d 304     -14.797  48.255 170.638  0.00  0.00     0.134 C 
ATOM      7  O1S IDS d 304     -14.688  47.703 167.481  0.00  0.00    -0.572 OA
ATOM      8  O3  IDS d 304     -14.521  50.390 171.730  0.00  0.00    -0.390 OA
ATOM      9  C5  IDS d 304     -13.701  47.913 173.241  0.00  0.00     0.152 C 
ATOM     10  O5  IDS d 304     -14.420  46.910 172.598  0.00  0.00    -0.340 OA
ATOM     11  O2S IDS d 304     -13.677  45.699 168.260  0.00  0.00    -0.572 OA
ATOM     12  O3S IDS d 304     -15.923  46.123 168.740  0.00  0.00    -0.572 OA
ATOM     13  S   IDS d 304     -14.645  46.697 168.502  0.00  0.00     0.252 S 
ATOM     14  O4  IDS d 304     -11.923  47.977 171.705  0.00  0.00    -0.348 OA
ATOM     15  C3  IDS d 304     -13.803  49.317 171.183  0.00  0.00     0.094 C 
ATOM     16  C1  IDS d 304     -15.436  47.411 171.747  0.00  0.00     0.161 C 
ATOM     17  H   IDS d 304     -12.481  49.584 172.821  0.00  0.00     0.092 H 
ATOM     18  H   IDS d 304     -15.588  48.773 170.138  0.00  0.00     0.097 H 
ATOM     19  H   IDS d 304     -13.901  51.054 172.070  0.00  0.00     0.210 HD
ATOM     20  H   IDS d 304     -14.385  48.596 173.701  0.00  0.00     0.104 H 
ATOM     21  H   IDS d 304     -13.193  49.623 170.359  0.00  0.00     0.091 H 
ATOM     22  H   IDS d 304     -15.955  46.568 171.341  0.00  0.00     0.133 H 
ATOM     23  O3  SGN d 303     -16.651  48.602 175.317  0.00  0.00    -0.391 OA
ATOM     24  S1  SGN d 303     -19.946  48.078 177.561  0.00  0.00     0.156 S 
ATOM     25  O5S SGN d 303     -17.701  42.875 171.736  0.00  0.00    -0.572 OA
ATOM     26  C4  SGN d 303     -17.332  47.562 173.220  0.00  0.00     0.095 C 
ATOM     27  C3  SGN d 303     -17.725  48.506 174.416  0.00  0.00     0.083 C 
ATOM     28  O2S SGN d 303     -18.813  47.402 178.112  0.00  0.00    -0.296 OA
ATOM     29  O6  SGN d 303     -18.038  45.224 171.644  0.00  0.00    -0.254 OA
ATOM     30  C2  SGN d 303     -18.928  47.911 175.163  0.00  0.00     0.081 C 
ATOM     31  O3S SGN d 303     -20.439  49.118 178.372  0.00  0.00    -0.296 OA
ATOM     32  O5  SGN d 303     -19.634  46.790 173.154  0.00  0.00    -0.349 OA
ATOM     33  C1  SGN d 303     -20.079  47.638 174.199  0.00  0.00     0.150 C 
ATOM     34  O4S SGN d 303     -17.662  44.001 169.623  0.00  0.00    -0.572 OA
ATOM     35  C6  SGN d 303     -18.423  46.464 171.178  0.00  0.00     0.067 C 
ATOM     36  O6S SGN d 303     -19.752  43.756 170.800  0.00  0.00    -0.572 OA
ATOM     37  N   SGN d 303     -19.391  48.794 176.231  0.00  0.00    -0.210 NA
ATOM     38  O1S SGN d 303     -20.965  47.142 177.153  0.00  0.00    -0.296 OA
ATOM     39  C5  SGN d 303     -18.592  47.354 172.370  0.00  0.00     0.091 C 
ATOM     40  O4  SGN d 303     -16.370  48.204 172.436  0.00  0.00    -0.348 OA
ATOM     41  S2  SGN d 303     -18.307  43.887 170.903  0.00  0.00     0.251 S 
ATOM     42  H   SGN d 303     -15.881  48.976 174.863  0.00  0.00     0.210 HD
ATOM     43  H   SGN d 303     -16.945  46.630 173.578  0.00  0.00     0.091 H 
ATOM     44  H   SGN d 303     -17.968  49.474 174.030  0.00  0.00     0.089 H 
ATOM     45  H   SGN d 303     -18.527  46.702 177.505  0.00  0.00     0.231 HD
ATOM     46  H   SGN d 303     -18.603  46.990 175.601  0.00  0.00     0.076 H 
ATOM     47  H   SGN d 303     -21.203  49.531 177.939  0.00  0.00     0.231 HD
ATOM     48  H   SGN d 303     -20.889  47.136 174.686  0.00  0.00     0.131 H 
ATOM     49  H   SGN d 303     -19.348  46.384 170.646  0.00  0.00     0.080 H 
ATOM     50  H   SGN d 303     -17.690  46.862 170.507  0.00  0.00     0.080 H 
ATOM     51  H   SGN d 303     -18.609  49.390 176.503  0.00  0.00     0.140 HD
ATOM     52  H   SGN d 303     -20.568  46.452 176.600  0.00  0.00     0.231 HD
ATOM     53  H   SGN d 303     -18.822  48.337 172.015  0.00  0.00     0.090 H 
ATOM     54  C2  SGN d 301     -24.715  53.253 169.005  0.00  0.00     0.081 C 
ATOM     55  C5  SGN d 301     -24.446  53.894 171.720  0.00  0.00     0.091 C 
ATOM     56  O6S SGN d 301     -23.622  57.100 173.024  0.00  0.00    -0.572 OA
ATOM     57  C3  SGN d 301     -24.680  52.180 170.085  0.00  0.00     0.083 C 
ATOM     58  O2S SGN d 301     -23.844  51.583 166.599  0.00  0.00    -0.296 OA
ATOM     59  O6  SGN d 301     -22.605  54.987 172.634  0.00  0.00    -0.254 OA
ATOM     60  O3  SGN d 301     -24.189  50.962 169.571  0.00  0.00    -0.391 OA
ATOM     61  O1  SGN d 301     -26.624  54.367 169.993  0.00  0.00    -0.369 OA
ATOM     62  C6  SGN d 301     -23.813  54.440 172.971  0.00  0.00     0.067 C 
ATOM     63  O5S SGN d 301     -22.064  56.764 171.168  0.00  0.00    -0.572 OA
ATOM     64  O4S SGN d 301     -21.254  56.773 173.433  0.00  0.00    -0.572 OA
ATOM     65  O1S SGN d 301     -24.098  53.981 166.154  0.00  0.00    -0.296 OA
ATOM     66  N   SGN d 301     -25.521  52.852 167.869  0.00  0.00    -0.210 NA
ATOM     67  O4  SGN d 301     -23.496  51.804 172.125  0.00  0.00    -0.348 OA
ATOM     68  C4  SGN d 301     -23.728  52.729 171.129  0.00  0.00     0.095 C 
ATOM     69  S1  SGN d 301     -24.761  52.696 166.430  0.00  0.00     0.156 S 
ATOM     70  S2  SGN d 301     -22.377  56.496 172.557  0.00  0.00     0.251 S 
ATOM     71  O3S SGN d 301     -25.812  52.362 165.500  0.00  0.00    -0.296 OA
ATOM     72  O5  SGN d 301     -24.505  54.914 170.752  0.00  0.00    -0.350 OA
ATOM     73  C1  SGN d 301     -25.255  54.547 169.622  0.00  0.00     0.147 C 
ATOM     74  H   SGN d 301     -23.722  53.407 168.637  0.00  0.00     0.076 H 
ATOM     75  H   SGN d 301     -25.417  53.548 172.006  0.00  0.00     0.090 H 
ATOM     76  H   SGN d 301     -25.653  51.971 170.478  0.00  0.00     0.089 H 
ATOM     77  H   SGN d 301     -23.147  51.830 167.227  0.00  0.00     0.231 HD
ATOM     78  H   SGN d 301     -23.303  51.101 169.202  0.00  0.00     0.210 HD
ATOM     79  H   SGN d 301     -27.141  54.114 169.212  0.00  0.00     0.212 HD
ATOM     80  H   SGN d 301     -23.670  53.651 173.679  0.00  0.00     0.080 H 
ATOM     81  H   SGN d 301     -24.445  55.183 173.411  0.00  0.00     0.080 H 
ATOM     82  H   SGN d 301     -23.407  54.137 166.816  0.00  0.00     0.231 HD
ATOM     83  H   SGN d 301     -26.257  53.548 167.753  0.00  0.00     0.140 HD
ATOM     84  H   SGN d 301     -22.783  52.982 170.697  0.00  0.00     0.091 H 
ATOM     85  H   SGN d 301     -25.436  52.252 164.613  0.00  0.00     0.231 HD
ATOM     86  H   SGN d 301     -25.176  55.326 168.894  0.00  0.00     0.131 H 
ATOM     87  O1S IDS d 302     -19.626  51.482 176.415  0.00  0.00    -0.572 OA
ATOM     88  O2S IDS d 302     -19.531  53.730 175.672  0.00  0.00    -0.572 OA
ATOM     89  O62 IDS d 302     -22.527  47.177 171.555  0.00  0.00    -0.646 OA
ATOM     90  C6  IDS d 302     -22.055  48.277 171.319  0.00  0.00     0.206 C 
ATOM     91  C4  IDS d 302     -21.917  49.085 173.674  0.00  0.00     0.103 C 
ATOM     92  S   IDS d 302     -20.331  52.564 175.823  0.00  0.00     0.252 S 
ATOM     93  O3S IDS d 302     -21.549  52.810 176.493  0.00  0.00    -0.572 OA
ATOM     94  C5  IDS d 302     -22.278  49.402 172.259  0.00  0.00     0.152 C 
ATOM     95  C2  IDS d 302     -22.021  51.653 173.987  0.00  0.00     0.134 C 
ATOM     96  O2  IDS d 302     -20.733  52.077 174.395  0.00  0.00    -0.244 OA
ATOM     97  C3  IDS d 302     -22.295  50.269 174.602  0.00  0.00     0.094 C 
ATOM     98  O61 IDS d 302     -21.403  48.442 170.302  0.00  0.00    -0.646 OA
ATOM     99  O5  IDS d 302     -21.589  50.547 171.865  0.00  0.00    -0.340 OA
ATOM    100  O3  IDS d 302     -23.673  50.177 174.885  0.00  0.00    -0.390 OA
ATOM    101  O4  IDS d 302     -20.535  48.880 173.717  0.00  0.00    -0.348 OA
ATOM    102  C1  IDS d 302     -22.138  51.701 172.456  0.00  0.00     0.161 C 
ATOM    103  H   IDS d 302     -22.446  48.217 174.006  0.00  0.00     0.092 H 
ATOM    104  H   IDS d 302     -23.332  49.580 172.224  0.00  0.00     0.104 H 
ATOM    105  H   IDS d 302     -22.782  52.314 174.347  0.00  0.00     0.097 H 
ATOM    106  H   IDS d 302     -21.685  50.190 175.477  0.00  0.00     0.091 H 
ATOM    107  H   IDS d 302     -24.178  50.254 174.061  0.00  0.00     0.210 HD
ATOM    108  H   IDS d 302     -21.593  52.544 172.087  0.00  0.00     0.133 H 
ATOM    109  O6  SGN d 305      -7.937  48.932 174.560  0.00  0.00    -0.254 OA
ATOM    110  C2  SGN d 305      -9.804  47.664 170.659  0.00  0.00     0.081 C 
ATOM    111  O1S SGN d 305     -10.642  49.851 168.764  0.00  0.00    -0.296 OA
ATOM    112  O5  SGN d 305      -9.996  48.854 172.754  0.00  0.00    -0.349 OA
ATOM    113  S1  SGN d 305     -10.175  48.615 168.212  0.00  0.00     0.156 S 
ATOM    114  O5S SGN d 305      -6.483  50.884 174.899  0.00  0.00    -0.572 OA
ATOM    115  C1  SGN d 305     -10.664  48.590 171.517  0.00  0.00     0.150 C 
ATOM    116  O3  SGN d 305      -8.826  45.431 170.682  0.00  0.00    -0.391 OA
ATOM    117  S2  SGN d 305      -7.104  49.769 175.607  0.00  0.00     0.251 S 
ATOM    118  O6S SGN d 305      -8.040  50.248 176.610  0.00  0.00    -0.572 OA
ATOM    119  C5  SGN d 305      -9.707  47.672 173.543  0.00  0.00     0.090 C 
ATOM    120  O4S SGN d 305      -6.144  48.815 176.117  0.00  0.00    -0.572 OA
ATOM    121  C6  SGN d 305      -9.052  48.142 174.845  0.00  0.00     0.067 C 
ATOM    122  N   SGN d 305     -10.428  47.464 169.336  0.00  0.00    -0.210 NA
ATOM    123  O2S SGN d 305      -8.764  48.695 167.964  0.00  0.00    -0.296 OA
ATOM    124  O3S SGN d 305     -10.925  48.175 167.083  0.00  0.00    -0.296 OA
ATOM    125  C4  SGN d 305      -8.867  46.667 172.741  0.00  0.00     0.089 C 
ATOM    126  O4  SGN d 305      -8.735  45.447 173.454  0.00  0.00    -0.390 OA
ATOM    127  C3  SGN d 305      -9.617  46.340 171.432  0.00  0.00     0.083 C 
ATOM    128  H   SGN d 305      -8.842  48.095 170.475  0.00  0.00     0.076 H 
ATOM    129  H   SGN d 305     -10.091  50.093 169.526  0.00  0.00     0.231 HD
ATOM    130  H   SGN d 305     -10.818  49.532 171.035  0.00  0.00     0.131 H 
ATOM    131  H   SGN d 305      -9.283  45.213 169.854  0.00  0.00     0.210 HD
ATOM    132  H   SGN d 305     -10.599  47.135 173.792  0.00  0.00     0.090 H 
ATOM    133  H   SGN d 305      -9.757  48.715 175.410  0.00  0.00     0.080 H 
ATOM    134  H   SGN d 305      -8.743  47.288 175.410  0.00  0.00     0.080 H 
ATOM    135  H   SGN d 305     -11.435  47.391 169.480  0.00  0.00     0.140 HD
ATOM    136  H   SGN d 305      -8.311  48.999 168.767  0.00  0.00     0.231 HD
ATOM    137  H   SGN d 305     -11.867  48.142 167.313  0.00  0.00     0.231 HD
ATOM    138  H   SGN d 305      -7.902  47.095 172.559  0.00  0.00     0.091 H 
ATOM    139  H   SGN d 305      -9.614  45.069 173.613  0.00  0.00     0.210 HD
ATOM    140  H   SGN d 305     -10.572  45.895 171.620  0.00  0.00     0.089 H 
ENDROOT
TORSDOF 45
ENDMDL
MODEL 37
REMARK VINA RESULT:      -2.5      4.210      7.145
REMARK  0 active torsions:
REMARK  status: ('A' for Active; 'I' for Inactive)
REMARK       I    between atoms: C6_1  and  C5_56 
REMARK       I    between atoms: O3_2  and  C3_19 
REMARK       I    between atoms: C2_3  and  N_45 
REMARK       I    between atoms: S1_4  and  N_72 
REMARK       I    between atoms: S1_4  and  O1S_74 
REMARK       I    between atoms: S1_4  and  O2S_20 
REMARK       I    between atoms: S1_4  and  O3S_35 
REMARK       I    between atoms: C5_5  and  C6_27 
REMARK       I    between atoms: C3_7  and  O3_15 
REMARK       I    between atoms: O2S_10  and  S1_60 
REMARK       I    between atoms: O6_11  and  C6_27 
REMARK       I    between atoms: O6_11  and  S2_67 
REMARK       I    between atoms: C4_14  and  O4_71 
REMARK       I    between atoms: C4_16  and  O4_81 
REMARK       I    between atoms: C6_18  and  C5_53 
REMARK       I    between atoms: O2_21  and  C2_30 
REMARK       I    between atoms: O2_21  and  S_68 
REMARK       I    between atoms: O6_22  and  C6_61 
REMARK       I    between atoms: O6_22  and  S2_47 
REMARK       I    between atoms: O1_23  and  C1_86 
REMARK       I    between atoms: O6_24  and  C6_57 
REMARK       I    between atoms: O6_24  and  S2_89 
REMARK       I    between atoms: C4_25  and  O4_85 
REMARK       I    between atoms: C2_26  and  N_73 
REMARK       I    between atoms: C2_28  and  N_72 
REMARK       I    between atoms: O1S_32  and  S1_37 
REMARK       I    between atoms: S1_37  and  N_73 
REMARK       I    between atoms: S1_37  and  O2S_78 
REMARK       I    between atoms: S1_37  and  O3S_82 
REMARK       I    between atoms: C1_39  and  O4_71 
REMARK       I    between atoms: S_41  and  O2_63 
REMARK       I    between atoms: O3_43  and  C3_88 
REMARK       I    between atoms: O1S_44  and  S1_60 
REMARK       I    between atoms: N_45  and  S1_60 
REMARK       I    between atoms: C1_46  and  O4_85 
REMARK       I    between atoms: O4_48  and  C4_54 
REMARK       I    between atoms: O4_48  and  C1_90 
REMARK       I    between atoms: O3_49  and  C3_77 
REMARK       I    between atoms: C5_52  and  C6_61 
REMARK       I    between atoms: C6_57  and  C5_79 
REMARK       I    between atoms: C2_58  and  O2_63 
REMARK       I    between atoms: S1_60  and  O3S_75 
REMARK       I    between atoms: C3_64  and  O3_80 
REMARK       I    between atoms: O4_81  and  C1_84 
REMARK       I    between atoms: C4_83  and  O4_87 
ROOT
ATOM      1  C6  IDS d 304     -10.199  44.638 175.630  0.00  0.00     0.206 C 
ATOM      2  O61 IDS d 304     -10.508  43.603 175.076  0.00  0.00    -0.646 OA
ATOM      3  C4  IDS d 304      -9.027  46.695 174.913  0.00  0.00     0.103 C 
ATOM      4  O2  IDS d 304      -9.146  47.190 171.863  0.00  0.00    -0.244 OA
ATOM      5  O62 IDS d 304      -9.795  44.600 176.752  0.00  0.00    -0.646 OA
ATOM      6  C2  IDS d 304      -9.994  47.781 172.812  0.00  0.00     0.134 C 
ATOM      7  O1S IDS d 304      -8.540  48.680 170.099  0.00  0.00    -0.572 OA
ATOM      8  O3  IDS d 304      -9.859  48.899 174.948  0.00  0.00    -0.390 OA
ATOM      9  C5  IDS d 304     -10.316  45.918 174.938  0.00  0.00     0.152 C 
ATOM     10  O5  IDS d 304     -10.830  45.692 173.665  0.00  0.00    -0.340 OA
ATOM     11  O2S IDS d 304      -8.403  46.322 169.849  0.00  0.00    -0.572 OA
ATOM     12  O3S IDS d 304     -10.491  47.368 169.812  0.00  0.00    -0.572 OA
ATOM     13  S   IDS d 304      -9.166  47.410 170.324  0.00  0.00     0.252 S 
ATOM     14  O4  IDS d 304      -8.053  45.916 174.305  0.00  0.00    -0.348 OA
ATOM     15  C3  IDS d 304      -9.186  47.986 174.123  0.00  0.00     0.094 C 
ATOM     16  C1  IDS d 304     -11.221  46.881 173.001  0.00  0.00     0.161 C 
ATOM     17  H   IDS d 304      -8.751  46.941 175.917  0.00  0.00     0.092 H 
ATOM     18  H   IDS d 304     -10.349  48.739 172.494  0.00  0.00     0.097 H 
ATOM     19  H   IDS d 304      -9.355  49.027 175.767  0.00  0.00     0.210 HD
ATOM     20  H   IDS d 304     -10.993  46.542 175.483  0.00  0.00     0.104 H 
ATOM     21  H   IDS d 304      -8.219  48.342 173.839  0.00  0.00     0.091 H 
ATOM     22  H   IDS d 304     -11.640  46.597 172.059  0.00  0.00     0.133 H 
ATOM     23  O3  SGN d 303     -13.704  46.765 176.077  0.00  0.00    -0.391 OA
ATOM     24  S1  SGN d 303     -17.695  46.709 176.556  0.00  0.00     0.156 S 
ATOM     25  O5S SGN d 303     -14.031  44.182 169.757  0.00  0.00    -0.572 OA
ATOM     26  C4  SGN d 303     -13.516  47.131 173.674  0.00  0.00     0.095 C 
ATOM     27  C3  SGN d 303     -14.234  47.522 175.019  0.00  0.00     0.083 C 
ATOM     28  O2S SGN d 303     -17.097  45.463 176.923  0.00  0.00    -0.296 OA
ATOM     29  O6  SGN d 303     -13.837  46.240 170.926  0.00  0.00    -0.254 OA
ATOM     30  C2  SGN d 303     -15.734  47.211 174.908  0.00  0.00     0.081 C 
ATOM     31  O3S SGN d 303     -18.301  47.388 177.630  0.00  0.00    -0.296 OA
ATOM     32  O5  SGN d 303     -15.624  47.483 172.520  0.00  0.00    -0.349 OA
ATOM     33  C1  SGN d 303     -16.335  47.886 173.679  0.00  0.00     0.150 C 
ATOM     34  O4S SGN d 303     -12.806  45.994 168.782  0.00  0.00    -0.572 OA
ATOM     35  C6  SGN d 303     -13.721  47.594 171.162  0.00  0.00     0.067 C 
ATOM     36  O6S SGN d 303     -15.207  46.137 168.947  0.00  0.00    -0.572 OA
ATOM     37  N   SGN d 303     -16.464  47.639 176.100  0.00  0.00    -0.210 NA
ATOM     38  O1S SGN d 303     -18.565  46.555 175.415  0.00  0.00    -0.296 OA
ATOM     39  C5  SGN d 303     -14.252  47.853 172.538  0.00  0.00     0.091 C 
ATOM     40  O4  SGN d 303     -12.199  47.596 173.713  0.00  0.00    -0.348 OA
ATOM     41  S2  SGN d 303     -13.978  45.605 169.517  0.00  0.00     0.251 S 
ATOM     42  H   SGN d 303     -12.755  46.949 176.162  0.00  0.00     0.210 HD
ATOM     43  H   SGN d 303     -13.523  46.070 173.531  0.00  0.00     0.091 H 
ATOM     44  H   SGN d 303     -14.083  48.566 175.203  0.00  0.00     0.089 H 
ATOM     45  H   SGN d 303     -16.700  45.052 176.139  0.00  0.00     0.231 HD
ATOM     46  H   SGN d 303     -15.829  46.149 174.815  0.00  0.00     0.076 H 
ATOM     47  H   SGN d 303     -18.685  48.220 177.312  0.00  0.00     0.231 HD
ATOM     48  H   SGN d 303     -17.356  47.601 173.535  0.00  0.00     0.131 H 
ATOM     49  H   SGN d 303     -14.291  48.142 170.441  0.00  0.00     0.080 H 
ATOM     50  H   SGN d 303     -12.701  47.907 171.084  0.00  0.00     0.080 H 
ATOM     51  H   SGN d 303     -15.800  47.676 176.874  0.00  0.00     0.140 HD
ATOM     52  H   SGN d 303     -18.094  46.083 174.711  0.00  0.00     0.231 HD
ATOM     53  H   SGN d 303     -14.102  48.889 172.758  0.00  0.00     0.090 H 
ATOM     54  C2  SGN d 301     -16.884  56.553 171.540  0.00  0.00     0.081 C 
ATOM     55  C5  SGN d 301     -17.788  55.765 174.073  0.00  0.00     0.091 C 
ATOM     56  O6S SGN d 301     -17.075  57.422 177.140  0.00  0.00    -0.572 OA
ATOM     57  C3  SGN d 301     -17.556  55.206 171.770  0.00  0.00     0.083 C 
ATOM     58  O2S SGN d 301     -15.328  55.916 168.988  0.00  0.00    -0.296 OA
ATOM     59  O6  SGN d 301     -16.412  55.486 175.929  0.00  0.00    -0.254 OA
ATOM     60  O3  SGN d 301     -17.121  54.256 170.823  0.00  0.00    -0.391 OA
ATOM     61  O1  SGN d 301     -18.785  57.792 172.384  0.00  0.00    -0.369 OA
ATOM     62  C6  SGN d 301     -17.717  55.395 175.529  0.00  0.00     0.067 C 
ATOM     63  O5S SGN d 301     -14.929  57.330 175.969  0.00  0.00    -0.572 OA
ATOM     64  O4S SGN d 301     -15.276  56.013 177.951  0.00  0.00    -0.572 OA
ATOM     65  O1S SGN d 301     -14.890  58.134 169.937  0.00  0.00    -0.296 OA
ATOM     66  N   SGN d 301     -17.130  57.060 170.204  0.00  0.00    -0.210 NA
ATOM     67  O4  SGN d 301     -17.547  53.527 173.468  0.00  0.00    -0.348 OA
ATOM     68  C4  SGN d 301     -17.112  54.799 173.161  0.00  0.00     0.095 C 
ATOM     69  S1  SGN d 301     -15.834  57.256 169.227  0.00  0.00     0.156 S 
ATOM     70  S2  SGN d 301     -15.895  56.635 176.795  0.00  0.00     0.251 S 
ATOM     71  O3S SGN d 301     -16.376  57.826 168.018  0.00  0.00    -0.296 OA
ATOM     72  O5  SGN d 301     -17.199  57.030 173.890  0.00  0.00    -0.350 OA
ATOM     73  C1  SGN d 301     -17.393  57.538 172.595  0.00  0.00     0.147 C 
ATOM     74  H   SGN d 301     -15.824  56.431 171.631  0.00  0.00     0.076 H 
ATOM     75  H   SGN d 301     -18.826  55.760 173.816  0.00  0.00     0.090 H 
ATOM     76  H   SGN d 301     -18.620  55.265 171.673  0.00  0.00     0.089 H 
ATOM     77  H   SGN d 301     -14.970  55.553 169.813  0.00  0.00     0.231 HD
ATOM     78  H   SGN d 301     -16.157  54.167 170.873  0.00  0.00     0.210 HD
ATOM     79  H   SGN d 301     -18.917  58.143 171.489  0.00  0.00     0.212 HD
ATOM     80  H   SGN d 301     -18.070  54.394 175.666  0.00  0.00     0.080 H 
ATOM     81  H   SGN d 301     -18.328  56.055 176.108  0.00  0.00     0.080 H 
ATOM     82  H   SGN d 301     -14.569  57.686 170.735  0.00  0.00     0.231 HD
ATOM     83  H   SGN d 301     -17.582  57.969 170.299  0.00  0.00     0.140 HD
ATOM     84  H   SGN d 301     -16.046  54.804 173.245  0.00  0.00     0.091 H 
ATOM     85  H   SGN d 301     -15.660  57.973 167.380  0.00  0.00     0.231 HD
ATOM     86  H   SGN d 301     -16.841  58.449 172.502  0.00  0.00     0.131 H 
ATOM     87  O1S IDS d 302     -16.246  49.805 177.704  0.00  0.00    -0.572 OA
ATOM     88  O2S IDS d 302     -15.396  51.891 178.439  0.00  0.00    -0.572 OA
ATOM     89  O62 IDS d 302     -17.315  49.677 170.675  0.00  0.00    -0.646 OA
ATOM     90  C6  IDS d 302     -16.590  50.468 171.256  0.00  0.00     0.206 C 
ATOM     91  C4  IDS d 302     -17.410  50.026 173.568  0.00  0.00     0.103 C 
ATOM     92  S   IDS d 302     -16.377  51.219 177.661  0.00  0.00     0.252 S 
ATOM     93  O3S IDS d 302     -17.697  51.620 177.966  0.00  0.00    -0.572 OA
ATOM     94  C5  IDS d 302     -17.007  51.048 172.556  0.00  0.00     0.152 C 
ATOM     95  C2  IDS d 302     -17.161  51.986 175.242  0.00  0.00     0.134 C 
ATOM     96  O2  IDS d 302     -16.156  51.620 176.168  0.00  0.00    -0.244 OA
ATOM     97  C3  IDS d 302     -17.945  50.721 174.847  0.00  0.00     0.094 C 
ATOM     98  O61 IDS d 302     -15.523  50.780 170.754  0.00  0.00    -0.646 OA
ATOM     99  O5  IDS d 302     -16.012  51.855 173.102  0.00  0.00    -0.340 OA
ATOM    100  O3  IDS d 302     -19.286  51.087 174.616  0.00  0.00    -0.390 OA
ATOM    101  O4  IDS d 302     -16.272  49.278 173.883  0.00  0.00    -0.348 OA
ATOM    102  C1  IDS d 302     -16.545  52.744 174.056  0.00  0.00     0.161 C 
ATOM    103  H   IDS d 302     -18.186  49.401 173.177  0.00  0.00     0.092 H 
ATOM    104  H   IDS d 302     -17.869  51.637 172.326  0.00  0.00     0.104 H 
ATOM    105  H   IDS d 302     -17.863  52.668 175.675  0.00  0.00     0.097 H 
ATOM    106  H   IDS d 302     -17.837  50.024 175.652  0.00  0.00     0.091 H 
ATOM    107  H   IDS d 302     -19.327  51.716 173.880  0.00  0.00     0.210 HD
ATOM    108  H   IDS d 302     -15.742  53.357 174.409  0.00  0.00     0.133 H 
ATOM    109  O6  SGN d 305      -5.745  43.798 178.195  0.00  0.00    -0.254 OA
ATOM    110  C2  SGN d 305      -5.792  45.258 173.932  0.00  0.00     0.081 C 
ATOM    111  O1S SGN d 305      -5.228  48.181 173.476  0.00  0.00    -0.296 OA
ATOM    112  O5  SGN d 305      -6.705  45.370 176.166  0.00  0.00    -0.349 OA
ATOM    113  S1  SGN d 305      -4.800  47.244 172.482  0.00  0.00     0.156 S 
ATOM    114  O5S SGN d 305      -4.277  44.618 179.987  0.00  0.00    -0.572 OA
ATOM    115  C1  SGN d 305      -6.761  45.974 174.871  0.00  0.00     0.150 C 
ATOM    116  O3  SGN d 305      -5.377  43.061 172.960  0.00  0.00    -0.391 OA
ATOM    117  S2  SGN d 305      -5.352  43.668 179.718  0.00  0.00     0.251 S 
ATOM    118  O6S SGN d 305      -6.537  43.995 180.493  0.00  0.00    -0.572 OA
ATOM    119  C5  SGN d 305      -7.044  43.960 176.184  0.00  0.00     0.090 C 
ATOM    120  O4S SGN d 305      -4.937  42.288 179.845  0.00  0.00    -0.572 OA
ATOM    121  C6  SGN d 305      -6.992  43.497 177.643  0.00  0.00     0.067 C 
ATOM    122  N   SGN d 305      -5.757  45.933 172.620  0.00  0.00    -0.210 NA
ATOM    123  O2S SGN d 305      -3.448  46.840 172.744  0.00  0.00    -0.296 OA
ATOM    124  O3S SGN d 305      -5.009  47.693 171.146  0.00  0.00    -0.296 OA
ATOM    125  C4  SGN d 305      -6.133  43.164 175.237  0.00  0.00     0.089 C 
ATOM    126  O4  SGN d 305      -6.580  41.821 175.130  0.00  0.00    -0.390 OA
ATOM    127  C3  SGN d 305      -6.238  43.783 173.827  0.00  0.00     0.083 C 
ATOM    128  H   SGN d 305      -4.793  45.290 174.312  0.00  0.00     0.076 H 
ATOM    129  H   SGN d 305      -5.059  47.816 174.359  0.00  0.00     0.231 HD
ATOM    130  H   SGN d 305      -6.493  47.003 174.993  0.00  0.00     0.131 H 
ATOM    131  H   SGN d 305      -5.429  43.437 172.067  0.00  0.00     0.210 HD
ATOM    132  H   SGN d 305      -8.032  43.785 175.813  0.00  0.00     0.090 H 
ATOM    133  H   SGN d 305      -7.756  43.996 178.201  0.00  0.00     0.080 H 
ATOM    134  H   SGN d 305      -7.147  42.439 177.681  0.00  0.00     0.080 H 
ATOM    135  H   SGN d 305      -6.709  46.224 172.399  0.00  0.00     0.140 HD
ATOM    136  H   SGN d 305      -3.371  46.546 173.665  0.00  0.00     0.231 HD
ATOM    137  H   SGN d 305      -5.937  47.952 171.033  0.00  0.00     0.231 HD
ATOM    138  H   SGN d 305      -5.134  43.191 175.619  0.00  0.00     0.091 H 
ATOM    139  H   SGN d 305      -7.486  41.808 174.784  0.00  0.00     0.210 HD
ATOM    140  H   SGN d 305      -7.236  43.735 173.444  0.00  0.00     0.089 H 
ENDROOT
TORSDOF 45
ENDMDL
MODEL 38
REMARK VINA RESULT:      -2.0      5.816     12.292
REMARK  0 active torsions:
REMARK  status: ('A' for Active; 'I' for Inactive)
REMARK       I    between atoms: C6_1  and  C5_56 
REMARK       I    between atoms: O3_2  and  C3_19 
REMARK       I    between atoms: C2_3  and  N_45 
REMARK       I    between atoms: S1_4  and  N_72 
REMARK       I    between atoms: S1_4  and  O1S_74 
REMARK       I    between atoms: S1_4  and  O2S_20 
REMARK       I    between atoms: S1_4  and  O3S_35 
REMARK       I    between atoms: C5_5  and  C6_27 
REMARK       I    between atoms: C3_7  and  O3_15 
REMARK       I    between atoms: O2S_10  and  S1_60 
REMARK       I    between atoms: O6_11  and  C6_27 
REMARK       I    between atoms: O6_11  and  S2_67 
REMARK       I    between atoms: C4_14  and  O4_71 
REMARK       I    between atoms: C4_16  and  O4_81 
REMARK       I    between atoms: C6_18  and  C5_53 
REMARK       I    between atoms: O2_21  and  C2_30 
REMARK       I    between atoms: O2_21  and  S_68 
REMARK       I    between atoms: O6_22  and  C6_61 
REMARK       I    between atoms: O6_22  and  S2_47 
REMARK       I    between atoms: O1_23  and  C1_86 
REMARK       I    between atoms: O6_24  and  C6_57 
REMARK       I    between atoms: O6_24  and  S2_89 
REMARK       I    between atoms: C4_25  and  O4_85 
REMARK       I    between atoms: C2_26  and  N_73 
REMARK       I    between atoms: C2_28  and  N_72 
REMARK       I    between atoms: O1S_32  and  S1_37 
REMARK       I    between atoms: S1_37  and  N_73 
REMARK       I    between atoms: S1_37  and  O2S_78 
REMARK       I    between atoms: S1_37  and  O3S_82 
REMARK       I    between atoms: C1_39  and  O4_71 
REMARK       I    between atoms: S_41  and  O2_63 
REMARK       I    between atoms: O3_43  and  C3_88 
REMARK       I    between atoms: O1S_44  and  S1_60 
REMARK       I    between atoms: N_45  and  S1_60 
REMARK       I    between atoms: C1_46  and  O4_85 
REMARK       I    between atoms: O4_48  and  C4_54 
REMARK       I    between atoms: O4_48  and  C1_90 
REMARK       I    between atoms: O3_49  and  C3_77 
REMARK       I    between atoms: C5_52  and  C6_61 
REMARK       I    between atoms: C6_57  and  C5_79 
REMARK       I    between atoms: C2_58  and  O2_63 
REMARK       I    between atoms: S1_60  and  O3S_75 
REMARK       I    between atoms: C3_64  and  O3_80 
REMARK       I    between atoms: O4_81  and  C1_84 
REMARK       I    between atoms: C4_83  and  O4_87 
ROOT
ATOM      1  C6  IDS d 304     -15.012  55.485 175.411  0.00  0.00     0.206 C 
ATOM      2  O61 IDS d 304     -14.419  56.104 176.271  0.00  0.00    -0.646 OA
ATOM      3  C4  IDS d 304     -14.632  55.090 172.999  0.00  0.00     0.103 C 
ATOM      4  O2  IDS d 304     -11.682  55.425 172.137  0.00  0.00    -0.244 OA
ATOM      5  O62 IDS d 304     -16.204  55.515 175.389  0.00  0.00    -0.646 OA
ATOM      6  C2  IDS d 304     -12.306  54.202 172.429  0.00  0.00     0.134 C 
ATOM      7  O1S IDS d 304     -10.149  55.277 170.312  0.00  0.00    -0.572 OA
ATOM      8  O3  IDS d 304     -14.346  53.016 171.919  0.00  0.00    -0.390 OA
ATOM      9  C5  IDS d 304     -14.280  54.710 174.413  0.00  0.00     0.152 C 
ATOM     10  O5  IDS d 304     -12.918  54.819 174.673  0.00  0.00    -0.340 OA
ATOM     11  O2S IDS d 304     -10.021  57.024 171.918  0.00  0.00    -0.572 OA
ATOM     12  O3S IDS d 304      -9.312  54.874 172.491  0.00  0.00    -0.572 OA
ATOM     13  S   IDS d 304     -10.207  55.642 171.698  0.00  0.00     0.252 S 
ATOM     14  O4  IDS d 304     -14.377  56.444 172.828  0.00  0.00    -0.348 OA
ATOM     15  C3  IDS d 304     -13.796  54.303 172.001  0.00  0.00     0.094 C 
ATOM     16  C1  IDS d 304     -12.133  53.909 173.924  0.00  0.00     0.161 C 
ATOM     17  H   IDS d 304     -15.665  54.869 172.828  0.00  0.00     0.092 H 
ATOM     18  H   IDS d 304     -11.866  53.388 171.892  0.00  0.00     0.097 H 
ATOM     19  H   IDS d 304     -15.276  53.079 171.651  0.00  0.00     0.210 HD
ATOM     20  H   IDS d 304     -14.572  53.684 174.493  0.00  0.00     0.104 H 
ATOM     21  H   IDS d 304     -13.814  54.807 171.057  0.00  0.00     0.091 H 
ATOM     22  H   IDS d 304     -11.115  54.040 174.228  0.00  0.00     0.133 H 
ATOM     23  O3  SGN d 303     -14.294  51.500 176.197  0.00  0.00    -0.391 OA
ATOM     24  S1  SGN d 303     -13.519  48.641 178.915  0.00  0.00     0.156 S 
ATOM     25  O5S SGN d 303      -8.258  54.571 177.126  0.00  0.00    -0.572 OA
ATOM     26  C4  SGN d 303     -12.057  51.976 175.354  0.00  0.00     0.095 C 
ATOM     27  C3  SGN d 303     -13.103  50.881 175.783  0.00  0.00     0.083 C 
ATOM     28  O2S SGN d 303     -14.088  49.807 179.516  0.00  0.00    -0.296 OA
ATOM     29  O6  SGN d 303      -9.371  53.030 175.702  0.00  0.00    -0.254 OA
ATOM     30  C2  SGN d 303     -12.543  50.074 176.964  0.00  0.00     0.081 C 
ATOM     31  O3S SGN d 303     -14.334  47.497 179.010  0.00  0.00    -0.296 OA
ATOM     32  O5  SGN d 303     -10.299  50.555 176.243  0.00  0.00    -0.349 OA
ATOM     33  C1  SGN d 303     -11.170  49.503 176.624  0.00  0.00     0.150 C 
ATOM     34  O4S SGN d 303      -7.658  54.442 174.812  0.00  0.00    -0.572 OA
ATOM     35  C6  SGN d 303      -9.592  52.140 174.672  0.00  0.00     0.067 C 
ATOM     36  O6S SGN d 303      -7.069  52.634 176.293  0.00  0.00    -0.572 OA
ATOM     37  N   SGN d 303     -13.439  48.984 177.345  0.00  0.00    -0.210 NA
ATOM     38  O1S SGN d 303     -12.170  48.420 179.378  0.00  0.00    -0.296 OA
ATOM     39  C5  SGN d 303     -10.729  51.257 175.084  0.00  0.00     0.091 C 
ATOM     40  O4  SGN d 303     -12.487  52.570 174.164  0.00  0.00    -0.348 OA
ATOM     41  S2  SGN d 303      -8.005  53.707 175.997  0.00  0.00     0.251 S 
ATOM     42  H   SGN d 303     -14.663  52.016 175.463  0.00  0.00     0.210 HD
ATOM     43  H   SGN d 303     -11.949  52.722 176.114  0.00  0.00     0.091 H 
ATOM     44  H   SGN d 303     -13.294  50.238 174.950  0.00  0.00     0.089 H 
ATOM     45  H   SGN d 303     -13.477  50.554 179.415  0.00  0.00     0.231 HD
ATOM     46  H   SGN d 303     -12.456  50.747 177.792  0.00  0.00     0.076 H 
ATOM     47  H   SGN d 303     -13.889  46.747 178.584  0.00  0.00     0.231 HD
ATOM     48  H   SGN d 303     -10.725  49.020 177.469  0.00  0.00     0.131 H 
ATOM     49  H   SGN d 303      -8.715  51.552 174.501  0.00  0.00     0.080 H 
ATOM     50  H   SGN d 303      -9.824  52.658 173.765  0.00  0.00     0.080 H 
ATOM     51  H   SGN d 303     -14.378  49.230 177.033  0.00  0.00     0.140 HD
ATOM     52  H   SGN d 303     -11.660  49.240 179.288  0.00  0.00     0.231 HD
ATOM     53  H   SGN d 303     -10.955  50.609 174.263  0.00  0.00     0.090 H 
ATOM     54  C2  SGN d 301      -8.719  43.805 170.181  0.00  0.00     0.081 C 
ATOM     55  C5  SGN d 301     -10.870  43.083 171.825  0.00  0.00     0.091 C 
ATOM     56  O6S SGN d 301     -13.959  41.706 170.718  0.00  0.00    -0.572 OA
ATOM     57  C3  SGN d 301      -8.769  44.188 171.654  0.00  0.00     0.083 C 
ATOM     58  O2S SGN d 301      -6.791  45.946 169.163  0.00  0.00    -0.296 OA
ATOM     59  O6  SGN d 301     -13.068  43.771 171.489  0.00  0.00    -0.254 OA
ATOM     60  O3  SGN d 301      -8.030  45.364 171.895  0.00  0.00    -0.391 OA
ATOM     61  O1  SGN d 301      -8.899  41.438 170.658  0.00  0.00    -0.369 OA
ATOM     62  C6  SGN d 301     -12.287  43.022 172.327  0.00  0.00     0.067 C 
ATOM     63  O5S SGN d 301     -13.510  43.551 169.174  0.00  0.00    -0.572 OA
ATOM     64  O4S SGN d 301     -15.325  43.709 170.744  0.00  0.00    -0.572 OA
ATOM     65  O1S SGN d 301      -7.765  44.522 167.421  0.00  0.00    -0.296 OA
ATOM     66  N   SGN d 301      -7.358  43.621 169.715  0.00  0.00    -0.210 NA
ATOM     67  O4  SGN d 301     -10.434  44.909 173.207  0.00  0.00    -0.348 OA
ATOM     68  C4  SGN d 301     -10.240  44.429 171.929  0.00  0.00     0.095 C 
ATOM     69  S1  SGN d 301      -6.824  44.632 168.547  0.00  0.00     0.156 S 
ATOM     70  S2  SGN d 301     -14.018  43.143 170.469  0.00  0.00     0.251 S 
ATOM     71  O3S SGN d 301      -5.491  44.168 168.250  0.00  0.00    -0.296 OA
ATOM     72  O5  SGN d 301     -10.842  42.685 170.475  0.00  0.00    -0.350 OA
ATOM     73  C1  SGN d 301      -9.537  42.526 169.982  0.00  0.00     0.147 C 
ATOM     74  H   SGN d 301      -9.135  44.602 169.601  0.00  0.00     0.076 H 
ATOM     75  H   SGN d 301     -10.305  42.426 172.453  0.00  0.00     0.090 H 
ATOM     76  H   SGN d 301      -8.346  43.432 172.282  0.00  0.00     0.089 H 
ATOM     77  H   SGN d 301      -7.696  46.237 169.353  0.00  0.00     0.231 HD
ATOM     78  H   SGN d 301      -8.377  46.084 171.346  0.00  0.00     0.210 HD
ATOM     79  H   SGN d 301      -7.997  41.329 170.316  0.00  0.00     0.212 HD
ATOM     80  H   SGN d 301     -12.337  43.418 173.320  0.00  0.00     0.080 H 
ATOM     81  H   SGN d 301     -12.630  42.009 172.344  0.00  0.00     0.080 H 
ATOM     82  H   SGN d 301      -8.636  44.850 167.694  0.00  0.00     0.231 HD
ATOM     83  H   SGN d 301      -7.283  42.670 169.355  0.00  0.00     0.140 HD
ATOM     84  H   SGN d 301     -10.649  45.147 171.250  0.00  0.00     0.091 H 
ATOM     85  H   SGN d 301      -5.101  44.724 167.557  0.00  0.00     0.231 HD
ATOM     86  H   SGN d 301      -9.592  42.319 168.935  0.00  0.00     0.131 H 
ATOM     87  O1S IDS d 302     -14.969  47.280 175.908  0.00  0.00    -0.572 OA
ATOM     88  O2S IDS d 302     -15.871  46.284 173.956  0.00  0.00    -0.572 OA
ATOM     89  O62 IDS d 302      -7.960  48.353 175.372  0.00  0.00    -0.646 OA
ATOM     90  C6  IDS d 302      -8.713  48.182 174.428  0.00  0.00     0.206 C 
ATOM     91  C4  IDS d 302     -10.671  47.339 175.720  0.00  0.00     0.103 C 
ATOM     92  S   IDS d 302     -14.847  46.246 174.941  0.00  0.00     0.252 S 
ATOM     93  O3S IDS d 302     -14.718  44.982 175.558  0.00  0.00    -0.572 OA
ATOM     94  C5  IDS d 302      -9.804  47.181 174.515  0.00  0.00     0.152 C 
ATOM     95  C2  IDS d 302     -12.283  45.779 174.428  0.00  0.00     0.134 C 
ATOM     96  O2  IDS d 302     -13.485  46.497 174.220  0.00  0.00    -0.244 OA
ATOM     97  C3  IDS d 302     -11.703  46.183 175.795  0.00  0.00     0.094 C 
ATOM     98  O61 IDS d 302      -8.557  48.838 173.411  0.00  0.00    -0.646 OA
ATOM     99  O5  IDS d 302     -10.608  47.194 173.377  0.00  0.00    -0.340 OA
ATOM    100  O3  IDS d 302     -11.058  45.060 176.351  0.00  0.00    -0.390 OA
ATOM    101  O4  IDS d 302     -11.344  48.558 175.595  0.00  0.00    -0.348 OA
ATOM    102  C1  IDS d 302     -11.325  45.989 173.246  0.00  0.00     0.161 C 
ATOM    103  H   IDS d 302     -10.078  47.317 176.611  0.00  0.00     0.092 H 
ATOM    104  H   IDS d 302      -9.302  46.240 174.596  0.00  0.00     0.104 H 
ATOM    105  H   IDS d 302     -12.460  44.724 174.460  0.00  0.00     0.097 H 
ATOM    106  H   IDS d 302     -12.521  46.530 176.391  0.00  0.00     0.091 H 
ATOM    107  H   IDS d 302     -10.328  44.789 175.774  0.00  0.00     0.210 HD
ATOM    108  H   IDS d 302     -11.890  46.047 172.339  0.00  0.00     0.133 H 
ATOM    109  O6  SGN d 305     -18.849  58.520 173.627  0.00  0.00    -0.254 OA
ATOM    110  C2  SGN d 305     -14.740  58.553 171.779  0.00  0.00     0.081 C 
ATOM    111  O1S SGN d 305     -14.397  57.087 169.170  0.00  0.00    -0.296 OA
ATOM    112  O5  SGN d 305     -16.579  57.291 172.708  0.00  0.00    -0.349 OA
ATOM    113  S1  SGN d 305     -13.611  58.262 169.397  0.00  0.00     0.156 S 
ATOM    114  O5S SGN d 305     -20.982  58.549 172.408  0.00  0.00    -0.572 OA
ATOM    115  C1  SGN d 305     -15.313  57.165 172.054  0.00  0.00     0.150 C 
ATOM    116  O3  SGN d 305     -14.007  60.562 172.948  0.00  0.00    -0.391 OA
ATOM    117  S2  SGN d 305     -20.422  58.506 173.755  0.00  0.00     0.251 S 
ATOM    118  O6S SGN d 305     -20.784  57.270 174.428  0.00  0.00    -0.572 OA
ATOM    119  C5  SGN d 305     -16.532  58.002 173.972  0.00  0.00     0.090 C 
ATOM    120  O4S SGN d 305     -20.710  59.695 174.529  0.00  0.00    -0.572 OA
ATOM    121  C6  SGN d 305     -17.948  57.991 174.554  0.00  0.00     0.067 C 
ATOM    122  N   SGN d 305     -13.483  58.446 171.010  0.00  0.00    -0.210 NA
ATOM    123  O2S SGN d 305     -14.288  59.411 168.869  0.00  0.00    -0.296 OA
ATOM    124  O3S SGN d 305     -12.263  58.143 168.949  0.00  0.00    -0.296 OA
ATOM    125  C4  SGN d 305     -15.935  59.406 173.791  0.00  0.00     0.089 C 
ATOM    126  O4  SGN d 305     -15.734  60.027 175.051  0.00  0.00    -0.390 OA
ATOM    127  C3  SGN d 305     -14.545  59.263 173.137  0.00  0.00     0.083 C 
ATOM    128  H   SGN d 305     -15.409  59.133 171.179  0.00  0.00     0.076 H 
ATOM    129  H   SGN d 305     -15.299  57.234 169.496  0.00  0.00     0.231 HD
ATOM    130  H   SGN d 305     -15.482  56.628 171.145  0.00  0.00     0.131 H 
ATOM    131  H   SGN d 305     -13.131  60.493 172.536  0.00  0.00     0.210 HD
ATOM    132  H   SGN d 305     -15.879  57.523 174.671  0.00  0.00     0.090 H 
ATOM    133  H   SGN d 305     -18.228  56.985 174.786  0.00  0.00     0.080 H 
ATOM    134  H   SGN d 305     -17.967  58.587 175.442  0.00  0.00     0.080 H 
ATOM    135  H   SGN d 305     -12.971  57.641 171.372  0.00  0.00     0.140 HD
ATOM    136  H   SGN d 305     -15.196  59.436 169.209  0.00  0.00     0.231 HD
ATOM    137  H   SGN d 305     -11.862  57.350 169.339  0.00  0.00     0.231 HD
ATOM    138  H   SGN d 305     -16.606  59.989 173.194  0.00  0.00     0.091 H 
ATOM    139  H   SGN d 305     -15.125  59.490 175.583  0.00  0.00     0.210 HD
ATOM    140  H   SGN d 305     -13.873  58.695 173.746  0.00  0.00     0.089 H 
ENDROOT
TORSDOF 45
ENDMDL
MODEL 39
REMARK VINA RESULT:      -1.4      3.708      5.380
REMARK  0 active torsions:
REMARK  status: ('A' for Active; 'I' for Inactive)
REMARK       I    between atoms: C6_1  and  C5_56 
REMARK       I    between atoms: O3_2  and  C3_19 
REMARK       I    between atoms: C2_3  and  N_45 
REMARK       I    between atoms: S1_4  and  N_72 
REMARK       I    between atoms: S1_4  and  O1S_74 
REMARK       I    between atoms: S1_4  and  O2S_20 
REMARK       I    between atoms: S1_4  and  O3S_35 
REMARK       I    between atoms: C5_5  and  C6_27 
REMARK       I    between atoms: C3_7  and  O3_15 
REMARK       I    between atoms: O2S_10  and  S1_60 
REMARK       I    between atoms: O6_11  and  C6_27 
REMARK       I    between atoms: O6_11  and  S2_67 
REMARK       I    between atoms: C4_14  and  O4_71 
REMARK       I    between atoms: C4_16  and  O4_81 
REMARK       I    between atoms: C6_18  and  C5_53 
REMARK       I    between atoms: O2_21  and  C2_30 
REMARK       I    between atoms: O2_21  and  S_68 
REMARK       I    between atoms: O6_22  and  C6_61 
REMARK       I    between atoms: O6_22  and  S2_47 
REMARK       I    between atoms: O1_23  and  C1_86 
REMARK       I    between atoms: O6_24  and  C6_57 
REMARK       I    between atoms: O6_24  and  S2_89 
REMARK       I    between atoms: C4_25  and  O4_85 
REMARK       I    between atoms: C2_26  and  N_73 
REMARK       I    between atoms: C2_28  and  N_72 
REMARK       I    between atoms: O1S_32  and  S1_37 
REMARK       I    between atoms: S1_37  and  N_73 
REMARK       I    between atoms: S1_37  and  O2S_78 
REMARK       I    between atoms: S1_37  and  O3S_82 
REMARK       I    between atoms: C1_39  and  O4_71 
REMARK       I    between atoms: S_41  and  O2_63 
REMARK       I    between atoms: O3_43  and  C3_88 
REMARK       I    between atoms: O1S_44  and  S1_60 
REMARK       I    between atoms: N_45  and  S1_60 
REMARK       I    between atoms: C1_46  and  O4_85 
REMARK       I    between atoms: O4_48  and  C4_54 
REMARK       I    between atoms: O4_48  and  C1_90 
REMARK       I    between atoms: O3_49  and  C3_77 
REMARK       I    between atoms: C5_52  and  C6_61 
REMARK       I    between atoms: C6_57  and  C5_79 
REMARK       I    between atoms: C2_58  and  O2_63 
REMARK       I    between atoms: S1_60  and  O3S_75 
REMARK       I    between atoms: C3_64  and  O3_80 
REMARK       I    between atoms: O4_81  and  C1_84 
REMARK       I    between atoms: C4_83  and  O4_87 
ROOT
ATOM      1  C6  IDS d 304     -10.740  47.084 175.394  0.00  0.00     0.206 C 
ATOM      2  O61 IDS d 304     -11.298  46.106 175.850  0.00  0.00    -0.646 OA
ATOM      3  C4  IDS d 304     -10.292  47.904 173.104  0.00  0.00     0.103 C 
ATOM      4  O2  IDS d 304     -12.247  46.790 170.984  0.00  0.00    -0.244 OA
ATOM      5  O62 IDS d 304      -9.738  47.476 175.910  0.00  0.00    -0.646 OA
ATOM      6  C2  IDS d 304     -12.360  48.041 171.609  0.00  0.00     0.134 C 
ATOM      7  O1S IDS d 304     -12.870  46.841 168.679  0.00  0.00    -0.572 OA
ATOM      8  O3  IDS d 304     -10.984  49.947 172.157  0.00  0.00    -0.390 OA
ATOM      9  C5  IDS d 304     -11.284  47.777 174.230  0.00  0.00     0.152 C 
ATOM     10  O5  IDS d 304     -12.458  47.142 173.840  0.00  0.00    -0.340 OA
ATOM     11  O2S IDS d 304     -12.858  44.820 169.929  0.00  0.00    -0.572 OA
ATOM     12  O3S IDS d 304     -14.564  46.379 170.269  0.00  0.00    -0.572 OA
ATOM     13  S   IDS d 304     -13.201  46.189 169.913  0.00  0.00     0.252 S 
ATOM     14  O4  IDS d 304      -9.868  46.633 172.743  0.00  0.00    -0.348 OA
ATOM     15  C3  IDS d 304     -10.928  48.571 171.893  0.00  0.00     0.094 C 
ATOM     16  C1  IDS d 304     -13.199  47.878 172.882  0.00  0.00     0.161 C 
ATOM     17  H   IDS d 304      -9.469  48.504 173.432  0.00  0.00     0.092 H 
ATOM     18  H   IDS d 304     -12.857  48.757 170.990  0.00  0.00     0.097 H 
ATOM     19  H   IDS d 304     -10.089  50.279 172.334  0.00  0.00     0.210 HD
ATOM     20  H   IDS d 304     -11.505  48.787 174.504  0.00  0.00     0.104 H 
ATOM     21  H   IDS d 304     -10.339  48.354 171.026  0.00  0.00     0.091 H 
ATOM     22  H   IDS d 304     -14.097  47.331 172.685  0.00  0.00     0.133 H 
ATOM     23  O3  SGN d 303     -13.305  50.247 176.047  0.00  0.00    -0.391 OA
ATOM     24  S1  SGN d 303     -16.185  51.896 178.315  0.00  0.00     0.156 S 
ATOM     25  O5S SGN d 303     -17.337  45.146 173.940  0.00  0.00    -0.572 OA
ATOM     26  C4  SGN d 303     -14.622  49.248 174.255  0.00  0.00     0.095 C 
ATOM     27  C3  SGN d 303     -14.385  50.496 175.184  0.00  0.00     0.083 C 
ATOM     28  O2S SGN d 303     -15.459  50.890 179.025  0.00  0.00    -0.296 OA
ATOM     29  O6  SGN d 303     -16.522  47.277 173.281  0.00  0.00    -0.254 OA
ATOM     30  C2  SGN d 303     -15.638  50.741 176.040  0.00  0.00     0.081 C 
ATOM     31  O3S SGN d 303     -16.032  53.191 178.846  0.00  0.00    -0.296 OA
ATOM     32  O5  SGN d 303     -17.005  49.705 174.352  0.00  0.00    -0.349 OA
ATOM     33  C1  SGN d 303     -16.876  50.865 175.157  0.00  0.00     0.150 C 
ATOM     34  O4S SGN d 303     -16.996  45.624 171.619  0.00  0.00    -0.572 OA
ATOM     35  C6  SGN d 303     -16.318  48.413 172.526  0.00  0.00     0.067 C 
ATOM     36  O6S SGN d 303     -18.809  46.691 172.797  0.00  0.00    -0.572 OA
ATOM     37  N   SGN d 303     -15.505  51.945 176.858  0.00  0.00    -0.210 NA
ATOM     38  O1S SGN d 303     -17.565  51.514 178.134  0.00  0.00    -0.296 OA
ATOM     39  C5  SGN d 303     -15.912  49.505 173.467  0.00  0.00     0.091 C 
ATOM     40  O4  SGN d 303     -13.562  49.153 173.349  0.00  0.00    -0.348 OA
ATOM     41  S2  SGN d 303     -17.474  46.117 172.881  0.00  0.00     0.251 S 
ATOM     42  H   SGN d 303     -12.504  50.090 175.524  0.00  0.00     0.210 HD
ATOM     43  H   SGN d 303     -14.689  48.349 174.831  0.00  0.00     0.091 H 
ATOM     44  H   SGN d 303     -14.179  51.350 174.574  0.00  0.00     0.089 H 
ATOM     45  H   SGN d 303     -15.609  50.028 178.608  0.00  0.00     0.231 HD
ATOM     46  H   SGN d 303     -15.745  49.899 176.690  0.00  0.00     0.076 H 
ATOM     47  H   SGN d 303     -16.549  53.820 178.318  0.00  0.00     0.231 HD
ATOM     48  H   SGN d 303     -17.769  50.941 175.742  0.00  0.00     0.131 H 
ATOM     49  H   SGN d 303     -17.221  48.683 172.019  0.00  0.00     0.080 H 
ATOM     50  H   SGN d 303     -15.562  48.247 171.787  0.00  0.00     0.080 H 
ATOM     51  H   SGN d 303     -14.510  52.125 176.987  0.00  0.00     0.140 HD
ATOM     52  H   SGN d 303     -17.607  50.618 177.768  0.00  0.00     0.231 HD
ATOM     53  H   SGN d 303     -15.684  50.372 172.882  0.00  0.00     0.090 H 
ATOM     54  C2  SGN d 301     -18.812  56.759 168.714  0.00  0.00     0.081 C 
ATOM     55  C5  SGN d 301     -17.977  57.754 171.197  0.00  0.00     0.091 C 
ATOM     56  O6S SGN d 301     -15.589  60.344 171.699  0.00  0.00    -0.572 OA
ATOM     57  C3  SGN d 301     -19.175  56.066 170.021  0.00  0.00     0.083 C 
ATOM     58  O2S SGN d 301     -19.108  54.403 166.790  0.00  0.00    -0.296 OA
ATOM     59  O6  SGN d 301     -15.751  57.976 171.841  0.00  0.00    -0.254 OA
ATOM     60  O3  SGN d 301     -19.382  54.686 169.821  0.00  0.00    -0.391 OA
ATOM     61  O1  SGN d 301     -19.840  58.846 169.384  0.00  0.00    -0.369 OA
ATOM     62  C6  SGN d 301     -17.029  58.176 172.286  0.00  0.00     0.067 C 
ATOM     63  O5S SGN d 301     -14.591  58.899 169.995  0.00  0.00    -0.572 OA
ATOM     64  O4S SGN d 301     -13.634  58.999 172.200  0.00  0.00    -0.572 OA
ATOM     65  O1S SGN d 301     -18.236  56.459 165.778  0.00  0.00    -0.296 OA
ATOM     66  N   SGN d 301     -19.830  56.568 167.699  0.00  0.00    -0.210 NA
ATOM     67  O4  SGN d 301     -18.099  55.610 172.104  0.00  0.00    -0.348 OA
ATOM     68  C4  SGN d 301     -17.970  56.291 170.912  0.00  0.00     0.095 C 
ATOM     69  S1  SGN d 301     -19.396  55.756 166.348  0.00  0.00     0.156 S 
ATOM     70  S2  SGN d 301     -14.842  59.125 171.405  0.00  0.00     0.251 S 
ATOM     71  O3S SGN d 301     -20.574  55.786 165.515  0.00  0.00    -0.296 OA
ATOM     72  O5  SGN d 301     -17.648  58.437 170.011  0.00  0.00    -0.350 OA
ATOM     73  C1  SGN d 301     -18.600  58.249 168.995  0.00  0.00     0.147 C 
ATOM     74  H   SGN d 301     -17.912  56.325 168.331  0.00  0.00     0.076 H 
ATOM     75  H   SGN d 301     -18.958  57.997 171.547  0.00  0.00     0.090 H 
ATOM     76  H   SGN d 301     -20.081  56.450 170.442  0.00  0.00     0.089 H 
ATOM     77  H   SGN d 301     -18.314  54.407 167.348  0.00  0.00     0.231 HD
ATOM     78  H   SGN d 301     -18.583  54.291 169.439  0.00  0.00     0.210 HD
ATOM     79  H   SGN d 301     -20.496  58.716 168.681  0.00  0.00     0.212 HD
ATOM     80  H   SGN d 301     -17.203  57.591 173.165  0.00  0.00     0.080 H 
ATOM     81  H   SGN d 301     -17.179  59.208 172.527  0.00  0.00     0.080 H 
ATOM     82  H   SGN d 301     -17.487  56.397 166.391  0.00  0.00     0.231 HD
ATOM     83  H   SGN d 301     -20.153  57.491 167.411  0.00  0.00     0.140 HD
ATOM     84  H   SGN d 301     -17.071  55.951 170.442  0.00  0.00     0.091 H 
ATOM     85  H   SGN d 301     -20.394  55.318 164.685  0.00  0.00     0.231 HD
ATOM     86  H   SGN d 301     -18.239  58.713 168.102  0.00  0.00     0.131 H 
ATOM     87  O1S IDS d 302     -14.410  54.372 176.387  0.00  0.00    -0.572 OA
ATOM     88  O2S IDS d 302     -13.337  56.067 175.125  0.00  0.00    -0.572 OA
ATOM     89  O62 IDS d 302     -19.519  51.101 172.676  0.00  0.00    -0.646 OA
ATOM     90  C6  IDS d 302     -18.609  51.750 172.187  0.00  0.00     0.206 C 
ATOM     91  C4  IDS d 302     -17.848  52.874 174.279  0.00  0.00     0.103 C 
ATOM     92  S   IDS d 302     -14.574  55.504 175.543  0.00  0.00     0.252 S 
ATOM     93  O3S IDS d 302     -15.447  56.451 176.122  0.00  0.00    -0.572 OA
ATOM     94  C5  IDS d 302     -18.165  53.013 172.826  0.00  0.00     0.152 C 
ATOM     95  C2  IDS d 302     -16.682  55.163 173.963  0.00  0.00     0.134 C 
ATOM     96  O2  IDS d 302     -15.312  54.981 174.270  0.00  0.00    -0.244 OA
ATOM     97  C3  IDS d 302     -17.514  54.259 174.890  0.00  0.00     0.094 C 
ATOM     98  O61 IDS d 302     -18.072  51.352 171.167  0.00  0.00    -0.646 OA
ATOM     99  O5  IDS d 302     -17.062  53.560 172.175  0.00  0.00    -0.340 OA
ATOM    100  O3  IDS d 302     -18.729  54.915 175.172  0.00  0.00    -0.390 OA
ATOM    101  O4  IDS d 302     -16.735  52.034 174.385  0.00  0.00    -0.348 OA
ATOM    102  C1  IDS d 302     -16.928  54.931 172.465  0.00  0.00     0.161 C 
ATOM    103  H   IDS d 302     -18.687  52.469 174.805  0.00  0.00     0.092 H 
ATOM    104  H   IDS d 302     -19.004  53.671 172.737  0.00  0.00     0.104 H 
ATOM    105  H   IDS d 302     -16.992  56.171 174.145  0.00  0.00     0.097 H 
ATOM    106  H   IDS d 302     -16.924  54.083 175.765  0.00  0.00     0.091 H 
ATOM    107  H   IDS d 302     -19.222  55.049 174.349  0.00  0.00     0.210 HD
ATOM    108  H   IDS d 302     -16.090  55.298 171.909  0.00  0.00     0.133 H 
ATOM    109  O6  SGN d 305      -5.625  46.108 175.326  0.00  0.00    -0.254 OA
ATOM    110  C2  SGN d 305      -8.282  45.108 171.826  0.00  0.00     0.081 C 
ATOM    111  O1S SGN d 305      -8.178  46.958 169.451  0.00  0.00    -0.296 OA
ATOM    112  O5  SGN d 305      -7.656  46.659 173.569  0.00  0.00    -0.349 OA
ATOM    113  S1  SGN d 305      -8.419  45.566 169.217  0.00  0.00     0.156 S 
ATOM    114  O5S SGN d 305      -3.391  47.122 175.200  0.00  0.00    -0.572 OA
ATOM    115  C1  SGN d 305      -8.499  46.495 172.426  0.00  0.00     0.150 C 
ATOM    116  O3  SGN d 305      -8.490  42.747 172.396  0.00  0.00    -0.391 OA
ATOM    117  S2  SGN d 305      -4.387  46.635 176.150  0.00  0.00     0.251 S 
ATOM    118  O6S SGN d 305      -4.866  47.713 176.997  0.00  0.00    -0.572 OA
ATOM    119  C5  SGN d 305      -7.881  45.688 174.624  0.00  0.00     0.090 C 
ATOM    120  O4S SGN d 305      -3.948  45.469 176.885  0.00  0.00    -0.572 OA
ATOM    121  C6  SGN d 305      -6.944  46.046 175.781  0.00  0.00     0.067 C 
ATOM    122  N   SGN d 305      -9.065  44.958 170.583  0.00  0.00    -0.210 NA
ATOM    123  O2S SGN d 305      -7.176  44.891 168.973  0.00  0.00    -0.296 OA
ATOM    124  O3S SGN d 305      -9.406  45.317 168.220  0.00  0.00    -0.296 OA
ATOM    125  C4  SGN d 305      -7.713  44.255 174.096  0.00  0.00     0.089 C 
ATOM    126  O4  SGN d 305      -8.101  43.313 175.084  0.00  0.00    -0.390 OA
ATOM    127  C3  SGN d 305      -8.665  44.063 172.897  0.00  0.00     0.083 C 
ATOM    128  H   SGN d 305      -7.258  44.962 171.553  0.00  0.00     0.076 H 
ATOM    129  H   SGN d 305      -7.500  47.058 170.138  0.00  0.00     0.231 HD
ATOM    130  H   SGN d 305      -8.236  47.264 171.730  0.00  0.00     0.131 H 
ATOM    131  H   SGN d 305      -9.082  42.607 171.640  0.00  0.00     0.210 HD
ATOM    132  H   SGN d 305      -8.887  45.723 174.985  0.00  0.00     0.090 H 
ATOM    133  H   SGN d 305      -7.225  46.997 176.183  0.00  0.00     0.080 H 
ATOM    134  H   SGN d 305      -7.019  45.294 176.538  0.00  0.00     0.080 H 
ATOM    135  H   SGN d 305      -9.963  45.419 170.730  0.00  0.00     0.140 HD
ATOM    136  H   SGN d 305      -6.549  45.100 169.683  0.00  0.00     0.231 HD
ATOM    137  H   SGN d 305     -10.218  45.798 168.441  0.00  0.00     0.231 HD
ATOM    138  H   SGN d 305      -6.688  44.107 173.827  0.00  0.00     0.091 H 
ATOM    139  H   SGN d 305      -9.031  43.456 175.320  0.00  0.00     0.210 HD
ATOM    140  H   SGN d 305      -9.690  44.194 173.177  0.00  0.00     0.089 H 
ENDROOT
TORSDOF 45
ENDMDL
MODEL 40
REMARK VINA RESULT:      -0.9      4.303     12.058
REMARK  0 active torsions:
REMARK  status: ('A' for Active; 'I' for Inactive)
REMARK       I    between atoms: C6_1  and  C5_56 
REMARK       I    between atoms: O3_2  and  C3_19 
REMARK       I    between atoms: C2_3  and  N_45 
REMARK       I    between atoms: S1_4  and  N_72 
REMARK       I    between atoms: S1_4  and  O1S_74 
REMARK       I    between atoms: S1_4  and  O2S_20 
REMARK       I    between atoms: S1_4  and  O3S_35 
REMARK       I    between atoms: C5_5  and  C6_27 
REMARK       I    between atoms: C3_7  and  O3_15 
REMARK       I    between atoms: O2S_10  and  S1_60 
REMARK       I    between atoms: O6_11  and  C6_27 
REMARK       I    between atoms: O6_11  and  S2_67 
REMARK       I    between atoms: C4_14  and  O4_71 
REMARK       I    between atoms: C4_16  and  O4_81 
REMARK       I    between atoms: C6_18  and  C5_53 
REMARK       I    between atoms: O2_21  and  C2_30 
REMARK       I    between atoms: O2_21  and  S_68 
REMARK       I    between atoms: O6_22  and  C6_61 
REMARK       I    between atoms: O6_22  and  S2_47 
REMARK       I    between atoms: O1_23  and  C1_86 
REMARK       I    between atoms: O6_24  and  C6_57 
REMARK       I    between atoms: O6_24  and  S2_89 
REMARK       I    between atoms: C4_25  and  O4_85 
REMARK       I    between atoms: C2_26  and  N_73 
REMARK       I    between atoms: C2_28  and  N_72 
REMARK       I    between atoms: O1S_32  and  S1_37 
REMARK       I    between atoms: S1_37  and  N_73 
REMARK       I    between atoms: S1_37  and  O2S_78 
REMARK       I    between atoms: S1_37  and  O3S_82 
REMARK       I    between atoms: C1_39  and  O4_71 
REMARK       I    between atoms: S_41  and  O2_63 
REMARK       I    between atoms: O3_43  and  C3_88 
REMARK       I    between atoms: O1S_44  and  S1_60 
REMARK       I    between atoms: N_45  and  S1_60 
REMARK       I    between atoms: C1_46  and  O4_85 
REMARK       I    between atoms: O4_48  and  C4_54 
REMARK       I    between atoms: O4_48  and  C1_90 
REMARK       I    between atoms: O3_49  and  C3_77 
REMARK       I    between atoms: C5_52  and  C6_61 
REMARK       I    between atoms: C6_57  and  C5_79 
REMARK       I    between atoms: C2_58  and  O2_63 
REMARK       I    between atoms: S1_60  and  O3S_75 
REMARK       I    between atoms: C3_64  and  O3_80 
REMARK       I    between atoms: O4_81  and  C1_84 
REMARK       I    between atoms: C4_83  and  O4_87 
ROOT
ATOM      1  C6  IDS d 304     -21.789  55.377 173.165  0.00  0.00     0.206 C 
ATOM      2  O61 IDS d 304     -21.648  56.073 174.150  0.00  0.00    -0.646 OA
ATOM      3  C4  IDS d 304     -20.382  54.871 171.195  0.00  0.00     0.103 C 
ATOM      4  O2  IDS d 304     -17.361  55.315 171.681  0.00  0.00    -0.244 OA
ATOM      5  O62 IDS d 304     -22.852  55.342 172.624  0.00  0.00    -0.646 OA
ATOM      6  C2  IDS d 304     -18.020  54.079 171.761  0.00  0.00     0.134 C 
ATOM      7  O1S IDS d 304     -15.181  55.151 170.723  0.00  0.00    -0.572 OA
ATOM      8  O3  IDS d 304     -19.601  52.760 170.500  0.00  0.00    -0.390 OA
ATOM      9  C5  IDS d 304     -20.676  54.589 172.644  0.00  0.00     0.152 C 
ATOM     10  O5  IDS d 304     -19.569  54.784 173.463  0.00  0.00    -0.340 OA
ATOM     11  O2S IDS d 304     -15.812  56.987 172.092  0.00  0.00    -0.572 OA
ATOM     12  O3S IDS d 304     -15.374  54.912 173.071  0.00  0.00    -0.572 OA
ATOM     13  S   IDS d 304     -15.849  55.587 171.915  0.00  0.00     0.252 S 
ATOM     14  O4  IDS d 304     -20.111  56.225 171.054  0.00  0.00    -0.348 OA
ATOM     15  C3  IDS d 304     -19.174  54.077 170.720  0.00  0.00     0.094 C 
ATOM     16  C1  IDS d 304     -18.513  53.878 173.199  0.00  0.00     0.161 C 
ATOM     17  H   IDS d 304     -21.230  54.587 170.607  0.00  0.00     0.092 H 
ATOM     18  H   IDS d 304     -17.370  53.261 171.530  0.00  0.00     0.097 H 
ATOM     19  H   IDS d 304     -20.322  52.758 169.851  0.00  0.00     0.210 HD
ATOM     20  H   IDS d 304     -20.949  53.554 172.663  0.00  0.00     0.104 H 
ATOM     21  H   IDS d 304     -18.789  54.527 169.829  0.00  0.00     0.091 H 
ATOM     22  H   IDS d 304     -17.735  54.080 173.905  0.00  0.00     0.133 H 
ATOM     23  O3  SGN d 303     -21.393  51.485 174.472  0.00  0.00    -0.391 OA
ATOM     24  S1  SGN d 303     -21.818  48.825 177.455  0.00  0.00     0.156 S 
ATOM     25  O5S SGN d 303     -16.450  54.920 177.711  0.00  0.00    -0.572 OA
ATOM     26  C4  SGN d 303     -19.024  52.033 174.655  0.00  0.00     0.095 C 
ATOM     27  C3  SGN d 303     -20.126  50.909 174.664  0.00  0.00     0.083 C 
ATOM     28  O2S SGN d 303     -22.621  49.989 177.662  0.00  0.00    -0.296 OA
ATOM     29  O6  SGN d 303     -16.789  53.246 176.061  0.00  0.00    -0.254 OA
ATOM     30  C2  SGN d 303     -20.121  50.199 176.026  0.00  0.00     0.081 C 
ATOM     31  O3S SGN d 303     -22.564  47.645 177.269  0.00  0.00    -0.296 OA
ATOM     32  O5  SGN d 303     -17.800  50.759 176.321  0.00  0.00    -0.349 OA
ATOM     33  C1  SGN d 303     -18.724  49.684 176.360  0.00  0.00     0.150 C 
ATOM     34  O4S SGN d 303     -14.893  54.697 175.906  0.00  0.00    -0.572 OA
ATOM     35  C6  SGN d 303     -16.515  52.291 175.105  0.00  0.00     0.067 C 
ATOM     36  O6S SGN d 303     -14.970  53.007 177.623  0.00  0.00    -0.572 OA
ATOM     37  N   SGN d 303     -21.067  49.085 176.057  0.00  0.00    -0.210 NA
ATOM     38  O1S SGN d 303     -20.803  48.702 178.474  0.00  0.00    -0.296 OA
ATOM     39  C5  SGN d 303     -17.696  51.372 175.044  0.00  0.00     0.091 C 
ATOM     40  O4  SGN d 303     -18.904  52.537 173.357  0.00  0.00    -0.348 OA
ATOM     41  S2  SGN d 303     -15.707  54.011 176.871  0.00  0.00     0.251 S 
ATOM     42  H   SGN d 303     -21.415  51.939 173.615  0.00  0.00     0.210 HD
ATOM     43  H   SGN d 303     -19.278  52.824 175.330  0.00  0.00     0.091 H 
ATOM     44  H   SGN d 303     -19.917  50.211 173.880  0.00  0.00     0.089 H 
ATOM     45  H   SGN d 303     -22.045  50.761 177.783  0.00  0.00     0.231 HD
ATOM     46  H   SGN d 303     -20.421  50.919 176.758  0.00  0.00     0.076 H 
ATOM     47  H   SGN d 303     -21.960  46.898 177.135  0.00  0.00     0.231 HD
ATOM     48  H   SGN d 303     -18.683  49.272 177.347  0.00  0.00     0.131 H 
ATOM     49  H   SGN d 303     -15.637  51.742 175.376  0.00  0.00     0.080 H 
ATOM     50  H   SGN d 303     -16.338  52.746 174.152  0.00  0.00     0.080 H 
ATOM     51  H   SGN d 303     -21.780  49.263 175.350  0.00  0.00     0.140 HD
ATOM     52  H   SGN d 303     -20.325  49.541 178.557  0.00  0.00     0.231 HD
ATOM     53  H   SGN d 303     -17.523  50.669 174.256  0.00  0.00     0.090 H 
ATOM     54  C2  SGN d 301     -13.561  43.781 172.060  0.00  0.00     0.081 C 
ATOM     55  C5  SGN d 301     -16.197  43.036 172.651  0.00  0.00     0.091 C 
ATOM     56  O6S SGN d 301     -18.454  41.438 170.412  0.00  0.00    -0.572 OA
ATOM     57  C3  SGN d 301     -14.261  44.241 173.332  0.00  0.00     0.083 C 
ATOM     58  O2S SGN d 301     -11.434  45.963 171.831  0.00  0.00    -0.296 OA
ATOM     59  O6  SGN d 301     -18.042  43.587 171.342  0.00  0.00    -0.254 OA
ATOM     60  O3  SGN d 301     -13.730  45.467 173.785  0.00  0.00    -0.391 OA
ATOM     61  O1  SGN d 301     -13.875  41.438 172.581  0.00  0.00    -0.369 OA
ATOM     62  C6  SGN d 301     -17.689  42.928 172.488  0.00  0.00     0.067 C 
ATOM     63  O5S SGN d 301     -17.420  43.216 169.089  0.00  0.00    -0.572 OA
ATOM     64  O4S SGN d 301     -19.742  43.363 169.695  0.00  0.00    -0.572 OA
ATOM     65  O1S SGN d 301     -11.512  44.396 169.947  0.00  0.00    -0.296 OA
ATOM     66  N   SGN d 301     -12.130  43.645 172.249  0.00  0.00    -0.210 NA
ATOM     67  O4  SGN d 301     -16.455  44.955 173.948  0.00  0.00    -0.348 OA
ATOM     68  C4  SGN d 301     -15.709  44.418 172.921  0.00  0.00     0.095 C 
ATOM     69  S1  SGN d 301     -11.162  44.617 171.360  0.00  0.00     0.156 S 
ATOM     70  S2  SGN d 301     -18.433  42.854 170.059  0.00  0.00     0.251 S 
ATOM     71  O3S SGN d 301      -9.823  44.210 171.707  0.00  0.00    -0.296 OA
ATOM     72  O5  SGN d 301     -15.571  42.567 171.481  0.00  0.00    -0.350 OA
ATOM     73  C1  SGN d 301     -14.178  42.451 171.619  0.00  0.00     0.147 C 
ATOM     74  H   SGN d 301     -13.701  44.522 171.301  0.00  0.00     0.076 H 
ATOM     75  H   SGN d 301     -15.949  42.446 173.508  0.00  0.00     0.090 H 
ATOM     76  H   SGN d 301     -14.138  43.544 174.135  0.00  0.00     0.089 H 
ATOM     77  H   SGN d 301     -12.339  46.215 171.587  0.00  0.00     0.231 HD
ATOM     78  H   SGN d 301     -13.820  46.135 173.089  0.00  0.00     0.210 HD
ATOM     79  H   SGN d 301     -12.912  41.359 172.676  0.00  0.00     0.212 HD
ATOM     80  H   SGN d 301     -18.179  43.374 173.329  0.00  0.00     0.080 H 
ATOM     81  H   SGN d 301     -17.981  41.900 172.428  0.00  0.00     0.080 H 
ATOM     82  H   SGN d 301     -12.422  44.692 169.789  0.00  0.00     0.231 HD
ATOM     83  H   SGN d 301     -11.882  42.681 172.027  0.00  0.00     0.140 HD
ATOM     84  H   SGN d 301     -15.796  45.075 172.081  0.00  0.00     0.091 H 
ATOM     85  H   SGN d 301      -9.183  44.748 171.215  0.00  0.00     0.231 HD
ATOM     86  H   SGN d 301     -13.764  42.185 170.670  0.00  0.00     0.131 H 
ATOM     87  O1S IDS d 302     -21.771  47.225 174.224  0.00  0.00    -0.572 OA
ATOM     88  O2S IDS d 302     -21.702  46.077 172.153  0.00  0.00    -0.572 OA
ATOM     89  O62 IDS d 302     -15.263  48.641 176.718  0.00  0.00    -0.646 OA
ATOM     90  C6  IDS d 302     -15.522  48.378 175.556  0.00  0.00     0.206 C 
ATOM     91  C4  IDS d 302     -17.828  47.503 175.924  0.00  0.00     0.103 C 
ATOM     92  S   IDS d 302     -21.212  46.147 173.485  0.00  0.00     0.252 S 
ATOM     93  O3S IDS d 302     -21.336  44.928 174.186  0.00  0.00    -0.572 OA
ATOM     94  C5  IDS d 302     -16.517  47.326 175.231  0.00  0.00     0.152 C 
ATOM     95  C2  IDS d 302     -18.672  45.791 174.175  0.00  0.00     0.134 C 
ATOM     96  O2  IDS d 302     -19.679  46.432 173.414  0.00  0.00    -0.244 OA
ATOM     97  C3  IDS d 302     -18.760  46.300 175.626  0.00  0.00     0.094 C 
ATOM     98  O61 IDS d 302     -14.953  48.985 174.664  0.00  0.00    -0.646 OA
ATOM     99  O5  IDS d 302     -16.741  47.234 173.860  0.00  0.00    -0.340 OA
ATOM    100  O3  IDS d 302     -18.397  45.245 176.486  0.00  0.00    -0.390 OA
ATOM    101  O4  IDS d 302     -18.406  48.677 175.430  0.00  0.00    -0.348 OA
ATOM    102  C1  IDS d 302     -17.298  45.988 173.517  0.00  0.00     0.161 C 
ATOM    103  H   IDS d 302     -17.685  47.562 176.983  0.00  0.00     0.092 H 
ATOM    104  H   IDS d 302     -16.079  46.419 175.591  0.00  0.00     0.104 H 
ATOM    105  H   IDS d 302     -18.820  44.731 174.204  0.00  0.00     0.097 H 
ATOM    106  H   IDS d 302     -19.764  46.635 175.778  0.00  0.00     0.091 H 
ATOM    107  H   IDS d 302     -17.481  44.982 176.307  0.00  0.00     0.210 HD
ATOM    108  H   IDS d 302     -17.411  45.966 172.453  0.00  0.00     0.133 H 
ATOM    109  O6  SGN d 305     -24.530  58.100 169.673  0.00  0.00    -0.254 OA
ATOM    110  C2  SGN d 305     -20.028  58.252 169.802  0.00  0.00     0.081 C 
ATOM    111  O1S SGN d 305     -18.541  56.666 167.716  0.00  0.00    -0.296 OA
ATOM    112  O5  SGN d 305     -22.057  56.946 169.926  0.00  0.00    -0.349 OA
ATOM    113  S1  SGN d 305     -17.962  57.891 168.177  0.00  0.00     0.156 S 
ATOM    114  O5S SGN d 305     -25.913  57.948 167.648  0.00  0.00    -0.572 OA
ATOM    115  C1  SGN d 305     -20.630  56.852 169.900  0.00  0.00     0.150 C 
ATOM    116  O3  SGN d 305     -19.930  60.358 171.024  0.00  0.00    -0.391 OA
ATOM    117  S2  SGN d 305     -25.999  58.009 169.104  0.00  0.00     0.251 S 
ATOM    118  O6S SGN d 305     -26.589  56.794 169.640  0.00  0.00    -0.572 OA
ATOM    119  C5  SGN d 305     -22.585  57.726 171.029  0.00  0.00     0.090 C 
ATOM    120  O4S SGN d 305     -26.625  59.221 169.586  0.00  0.00    -0.572 OA
ATOM    121  C6  SGN d 305     -24.113  57.671 170.935  0.00  0.00     0.067 C 
ATOM    122  N   SGN d 305     -18.559  58.170 169.667  0.00  0.00    -0.210 NA
ATOM    123  O2S SGN d 305     -18.368  58.972 167.325  0.00  0.00    -0.296 OA
ATOM    124  O3S SGN d 305     -16.552  57.820 168.372  0.00  0.00    -0.296 OA
ATOM    125  C4  SGN d 305     -22.004  59.148 171.025  0.00  0.00     0.089 C 
ATOM    126  O4  SGN d 305     -22.391  59.847 172.198  0.00  0.00    -0.390 OA
ATOM    127  C3  SGN d 305     -20.465  59.044 171.053  0.00  0.00     0.083 C 
ATOM    128  H   SGN d 305     -20.380  58.762 168.930  0.00  0.00     0.076 H 
ATOM    129  H   SGN d 305     -19.498  56.782 167.605  0.00  0.00     0.231 HD
ATOM    130  H   SGN d 305     -20.370  56.258 169.049  0.00  0.00     0.131 H 
ATOM    131  H   SGN d 305     -18.960  60.313 171.042  0.00  0.00     0.210 HD
ATOM    132  H   SGN d 305     -22.294  57.322 171.975  0.00  0.00     0.090 H 
ATOM    133  H   SGN d 305     -24.442  56.666 171.094  0.00  0.00     0.080 H 
ATOM    134  H   SGN d 305     -24.533  58.314 171.681  0.00  0.00     0.080 H 
ATOM    135  H   SGN d 305     -18.238  57.415 170.273  0.00  0.00     0.140 HD
ATOM    136  H   SGN d 305     -19.334  58.967 167.233  0.00  0.00     0.231 HD
ATOM    137  H   SGN d 305     -16.343  57.073 168.953  0.00  0.00     0.231 HD
ATOM    138  H   SGN d 305     -22.359  59.661 170.155  0.00  0.00     0.091 H 
ATOM    139  H   SGN d 305     -22.063  59.373 172.979  0.00  0.00     0.210 HD
ATOM    140  H   SGN d 305     -20.114  58.547 171.934  0.00  0.00     0.089 H 
ENDROOT
TORSDOF 45
ENDMDL
MODEL 41
REMARK VINA RESULT:      -0.4      6.111     10.862
REMARK  0 active torsions:
REMARK  status: ('A' for Active; 'I' for Inactive)
REMARK       I    between atoms: C6_1  and  C5_56 
REMARK       I    between atoms: O3_2  and  C3_19 
REMARK       I    between atoms: C2_3  and  N_45 
REMARK       I    between atoms: S1_4  and  N_72 
REMARK       I    between atoms: S1_4  and  O1S_74 
REMARK       I    between atoms: S1_4  and  O2S_20 
REMARK       I    between atoms: S1_4  and  O3S_35 
REMARK       I    between atoms: C5_5  and  C6_27 
REMARK       I    between atoms: C3_7  and  O3_15 
REMARK       I    between atoms: O2S_10  and  S1_60 
REMARK       I    between atoms: O6_11  and  C6_27 
REMARK       I    between atoms: O6_11  and  S2_67 
REMARK       I    between atoms: C4_14  and  O4_71 
REMARK       I    between atoms: C4_16  and  O4_81 
REMARK       I    between atoms: C6_18  and  C5_53 
REMARK       I    between atoms: O2_21  and  C2_30 
REMARK       I    between atoms: O2_21  and  S_68 
REMARK       I    between atoms: O6_22  and  C6_61 
REMARK       I    between atoms: O6_22  and  S2_47 
REMARK       I    between atoms: O1_23  and  C1_86 
REMARK       I    between atoms: O6_24  and  C6_57 
REMARK       I    between atoms: O6_24  and  S2_89 
REMARK       I    between atoms: C4_25  and  O4_85 
REMARK       I    between atoms: C2_26  and  N_73 
REMARK       I    between atoms: C2_28  and  N_72 
REMARK       I    between atoms: O1S_32  and  S1_37 
REMARK       I    between atoms: S1_37  and  N_73 
REMARK       I    between atoms: S1_37  and  O2S_78 
REMARK       I    between atoms: S1_37  and  O3S_82 
REMARK       I    between atoms: C1_39  and  O4_71 
REMARK       I    between atoms: S_41  and  O2_63 
REMARK       I    between atoms: O3_43  and  C3_88 
REMARK       I    between atoms: O1S_44  and  S1_60 
REMARK       I    between atoms: N_45  and  S1_60 
REMARK       I    between atoms: C1_46  and  O4_85 
REMARK       I    between atoms: O4_48  and  C4_54 
REMARK       I    between atoms: O4_48  and  C1_90 
REMARK       I    between atoms: O3_49  and  C3_77 
REMARK       I    between atoms: C5_52  and  C6_61 
REMARK       I    between atoms: C6_57  and  C5_79 
REMARK       I    between atoms: C2_58  and  O2_63 
REMARK       I    between atoms: S1_60  and  O3S_75 
REMARK       I    between atoms: C3_64  and  O3_80 
REMARK       I    between atoms: O4_81  and  C1_84 
REMARK       I    between atoms: C4_83  and  O4_87 
ROOT
ATOM      1  C6  IDS d 304     -23.535  46.842 174.477  0.00  0.00     0.206 C 
ATOM      2  O61 IDS d 304     -24.418  46.427 173.754  0.00  0.00    -0.646 OA
ATOM      3  C4  IDS d 304     -21.065  46.878 174.335  0.00  0.00     0.103 C 
ATOM      4  O2  IDS d 304     -19.986  46.687 171.444  0.00  0.00    -0.244 OA
ATOM      5  O62 IDS d 304     -23.631  46.697 175.657  0.00  0.00    -0.646 OA
ATOM      6  C2  IDS d 304     -20.148  47.877 172.170  0.00  0.00     0.134 C 
ATOM      7  O1S IDS d 304     -18.023  46.682 170.086  0.00  0.00    -0.572 OA
ATOM      8  O3  IDS d 304     -19.660  48.768 174.360  0.00  0.00    -0.390 OA
ATOM      9  C5  IDS d 304     -22.365  47.511 173.915  0.00  0.00     0.152 C 
ATOM     10  O5  IDS d 304     -22.507  47.573 172.532  0.00  0.00    -0.340 OA
ATOM     11  O2S IDS d 304     -19.855  45.236 169.644  0.00  0.00    -0.572 OA
ATOM     12  O3S IDS d 304     -20.025  47.507 169.127  0.00  0.00    -0.572 OA
ATOM     13  S   IDS d 304     -19.447  46.541 169.993  0.00  0.00     0.252 S 
ATOM     14  O4  IDS d 304     -21.078  45.544 173.951  0.00  0.00    -0.348 OA
ATOM     15  C3  IDS d 304     -19.884  47.569 173.670  0.00  0.00     0.094 C 
ATOM     16  C1  IDS d 304     -21.557  48.421 171.912  0.00  0.00     0.161 C 
ATOM     17  H   IDS d 304     -20.962  46.970 175.396  0.00  0.00     0.092 H 
ATOM     18  H   IDS d 304     -19.454  48.632 171.865  0.00  0.00     0.097 H 
ATOM     19  H   IDS d 304     -19.495  48.576 175.297  0.00  0.00     0.210 HD
ATOM     20  H   IDS d 304     -22.316  48.505 174.308  0.00  0.00     0.104 H 
ATOM     21  H   IDS d 304     -19.034  46.920 173.709  0.00  0.00     0.091 H 
ATOM     22  H   IDS d 304     -21.779  48.436 170.865  0.00  0.00     0.133 H 
ATOM     23  O3  SGN d 303     -23.634  50.950 174.132  0.00  0.00    -0.391 OA
ATOM     24  S1  SGN d 303     -25.801  54.268 173.455  0.00  0.00     0.156 S 
ATOM     25  O5S SGN d 303     -24.438  48.648 167.746  0.00  0.00    -0.572 OA
ATOM     26  C4  SGN d 303     -22.663  50.557 171.930  0.00  0.00     0.095 C 
ATOM     27  C3  SGN d 303     -23.019  51.604 173.051  0.00  0.00     0.083 C 
ATOM     28  O2S SGN d 303     -26.623  53.166 173.846  0.00  0.00    -0.296 OA
ATOM     29  O6  SGN d 303     -22.910  49.829 169.128  0.00  0.00    -0.254 OA
ATOM     30  C2  SGN d 303     -24.006  52.639 172.489  0.00  0.00     0.081 C 
ATOM     31  O3S SGN d 303     -25.798  55.332 174.378  0.00  0.00    -0.296 OA
ATOM     32  O5  SGN d 303     -23.155  52.261 170.271  0.00  0.00    -0.349 OA
ATOM     33  C1  SGN d 303     -23.453  53.274 171.217  0.00  0.00     0.150 C 
ATOM     34  O4S SGN d 303     -22.085  48.459 167.349  0.00  0.00    -0.572 OA
ATOM     35  C6  SGN d 303     -21.782  50.518 169.525  0.00  0.00     0.067 C 
ATOM     36  O6S SGN d 303     -23.212  50.530 166.842  0.00  0.00    -0.572 OA
ATOM     37  N   SGN d 303     -24.301  53.687 173.464  0.00  0.00    -0.210 NA
ATOM     38  O1S SGN d 303     -26.093  54.686 172.106  0.00  0.00    -0.296 OA
ATOM     39  C5  SGN d 303     -22.162  51.345 170.714  0.00  0.00     0.091 C 
ATOM     40  O4  SGN d 303     -21.625  49.742 172.388  0.00  0.00    -0.348 OA
ATOM     41  S2  SGN d 303     -23.172  49.339 167.678  0.00  0.00     0.251 S 
ATOM     42  H   SGN d 303     -23.025  50.291 174.500  0.00  0.00     0.210 HD
ATOM     43  H   SGN d 303     -23.514  49.956 171.683  0.00  0.00     0.091 H 
ATOM     44  H   SGN d 303     -22.120  52.084 173.376  0.00  0.00     0.089 H 
ATOM     45  H   SGN d 303     -26.578  52.474 173.168  0.00  0.00     0.231 HD
ATOM     46  H   SGN d 303     -24.913  52.119 172.265  0.00  0.00     0.076 H 
ATOM     47  H   SGN d 303     -25.222  56.042 174.052  0.00  0.00     0.231 HD
ATOM     48  H   SGN d 303     -24.169  53.927 170.761  0.00  0.00     0.131 H 
ATOM     49  H   SGN d 303     -21.441  51.151 168.732  0.00  0.00     0.080 H 
ATOM     50  H   SGN d 303     -20.991  49.841 169.771  0.00  0.00     0.080 H 
ATOM     51  H   SGN d 303     -24.121  53.307 174.393  0.00  0.00     0.140 HD
ATOM     52  H   SGN d 303     -26.081  53.915 171.519  0.00  0.00     0.231 HD
ATOM     53  H   SGN d 303     -21.278  51.829 171.072  0.00  0.00     0.090 H 
ATOM     54  C2  SGN d 301     -16.016  58.068 169.913  0.00  0.00     0.081 C 
ATOM     55  C5  SGN d 301     -17.729  58.839 171.992  0.00  0.00     0.091 C 
ATOM     56  O6S SGN d 301     -16.725  59.724 175.289  0.00  0.00    -0.572 OA
ATOM     57  C3  SGN d 301     -17.528  57.923 169.805  0.00  0.00     0.083 C 
ATOM     58  O2S SGN d 301     -15.155  55.981 167.853  0.00  0.00    -0.296 OA
ATOM     59  O6  SGN d 301     -17.713  57.903 174.123  0.00  0.00    -0.254 OA
ATOM     60  O3  SGN d 301     -17.873  56.875 168.926  0.00  0.00    -0.391 OA
ATOM     61  O1  SGN d 301     -16.143  60.453 170.309  0.00  0.00    -0.369 OA
ATOM     62  C6  SGN d 301     -18.348  58.846 173.363  0.00  0.00     0.067 C 
ATOM     63  O5S SGN d 301     -15.444  57.706 174.769  0.00  0.00    -0.572 OA
ATOM     64  O4S SGN d 301     -17.186  57.632 176.426  0.00  0.00    -0.572 OA
ATOM     65  O1S SGN d 301     -13.318  57.009 169.111  0.00  0.00    -0.296 OA
ATOM     66  N   SGN d 301     -15.400  58.301 168.622  0.00  0.00    -0.210 NA
ATOM     67  O4  SGN d 301     -19.324  57.308 171.254  0.00  0.00    -0.348 OA
ATOM     68  C4  SGN d 301     -17.975  57.592 171.215  0.00  0.00     0.095 C 
ATOM     69  S1  SGN d 301     -14.353  57.170 168.077  0.00  0.00     0.156 S 
ATOM     70  S2  SGN d 301     -16.705  58.267 175.213  0.00  0.00     0.251 S 
ATOM     71  O3S SGN d 301     -13.863  57.703 166.829  0.00  0.00    -0.296 OA
ATOM     72  O5  SGN d 301     -16.338  59.016 172.115  0.00  0.00    -0.350 OA
ATOM     73  C1  SGN d 301     -15.704  59.216 170.878  0.00  0.00     0.147 C 
ATOM     74  H   SGN d 301     -15.606  57.152 170.287  0.00  0.00     0.076 H 
ATOM     75  H   SGN d 301     -18.194  59.639 171.454  0.00  0.00     0.090 H 
ATOM     76  H   SGN d 301     -17.990  58.806 169.417  0.00  0.00     0.089 H 
ATOM     77  H   SGN d 301     -15.473  55.641 168.705  0.00  0.00     0.231 HD
ATOM     78  H   SGN d 301     -17.475  56.047 169.237  0.00  0.00     0.210 HD
ATOM     79  H   SGN d 301     -15.704  60.589 169.454  0.00  0.00     0.212 HD
ATOM     80  H   SGN d 301     -19.390  58.612 173.291  0.00  0.00     0.080 H 
ATOM     81  H   SGN d 301     -18.245  59.812 173.811  0.00  0.00     0.080 H 
ATOM     82  H   SGN d 301     -13.720  56.648 169.917  0.00  0.00     0.231 HD
ATOM     83  H   SGN d 301     -14.894  59.185 168.678  0.00  0.00     0.140 HD
ATOM     84  H   SGN d 301     -17.455  56.739 171.597  0.00  0.00     0.091 H 
ATOM     85  H   SGN d 301     -13.229  57.082 166.438  0.00  0.00     0.231 HD
ATOM     86  H   SGN d 301     -14.647  59.245 171.038  0.00  0.00     0.131 H 
ATOM     87  O1S IDS d 302     -22.774  54.987 175.278  0.00  0.00    -0.572 OA
ATOM     88  O2S IDS d 302     -20.788  55.567 176.434  0.00  0.00    -0.572 OA
ATOM     89  O62 IDS d 302     -21.740  54.504 168.259  0.00  0.00    -0.646 OA
ATOM     90  C6  IDS d 302     -20.857  54.450 169.099  0.00  0.00     0.206 C 
ATOM     91  C4  IDS d 302     -22.188  55.302 171.028  0.00  0.00     0.103 C 
ATOM     92  S   IDS d 302     -21.654  55.859 175.345  0.00  0.00     0.252 S 
ATOM     93  O3S IDS d 302     -22.057  57.212 175.305  0.00  0.00    -0.572 OA
ATOM     94  C5  IDS d 302     -20.895  55.345 170.281  0.00  0.00     0.152 C 
ATOM     95  C2  IDS d 302     -20.834  56.476 172.896  0.00  0.00     0.134 C 
ATOM     96  O2  IDS d 302     -20.853  55.624 174.026  0.00  0.00    -0.244 OA
ATOM     97  C3  IDS d 302     -22.185  56.353 172.168  0.00  0.00     0.094 C 
ATOM     98  O61 IDS d 302     -19.942  53.657 168.955  0.00  0.00    -0.646 OA
ATOM     99  O5  IDS d 302     -19.855  55.074 171.166  0.00  0.00    -0.340 OA
ATOM    100  O3  IDS d 302     -22.499  57.606 171.606  0.00  0.00    -0.390 OA
ATOM    101  O4  IDS d 302     -22.314  54.021 171.573  0.00  0.00    -0.348 OA
ATOM    102  C1  IDS d 302     -19.611  56.169 172.017  0.00  0.00     0.161 C 
ATOM    103  H   IDS d 302     -23.004  55.522 170.371  0.00  0.00     0.092 H 
ATOM    104  H   IDS d 302     -20.784  56.330 169.879  0.00  0.00     0.104 H 
ATOM    105  H   IDS d 302     -20.722  57.502 173.181  0.00  0.00     0.097 H 
ATOM    106  H   IDS d 302     -22.901  56.031 172.894  0.00  0.00     0.091 H 
ATOM    107  H   IDS d 302     -21.821  57.849 170.957  0.00  0.00     0.210 HD
ATOM    108  H   IDS d 302     -18.782  55.913 172.644  0.00  0.00     0.133 H 
ATOM    109  O6  SGN d 305     -22.607  43.213 178.095  0.00  0.00    -0.254 OA
ATOM    110  C2  SGN d 305     -20.401  43.269 174.166  0.00  0.00     0.081 C 
ATOM    111  O1S SGN d 305     -17.579  44.322 174.192  0.00  0.00    -0.296 OA
ATOM    112  O5  SGN d 305     -21.299  44.485 176.051  0.00  0.00    -0.349 OA
ATOM    113  S1  SGN d 305     -17.905  43.278 173.268  0.00  0.00     0.156 S 
ATOM    114  O5S SGN d 305     -21.615  42.789 180.303  0.00  0.00    -0.572 OA
ATOM    115  C1  SGN d 305     -20.516  44.623 174.862  0.00  0.00     0.150 C 
ATOM    116  O3  SGN d 305     -21.786  41.551 173.131  0.00  0.00    -0.391 OA
ATOM    117  S2  SGN d 305     -22.881  43.100 179.645  0.00  0.00     0.251 S 
ATOM    118  O6S SGN d 305     -23.389  44.388 180.083  0.00  0.00    -0.572 OA
ATOM    119  C5  SGN d 305     -22.645  43.995 175.827  0.00  0.00     0.090 C 
ATOM    120  O4S SGN d 305     -23.849  42.029 179.741  0.00  0.00    -0.572 OA
ATOM    121  C6  SGN d 305     -23.352  43.966 177.185  0.00  0.00     0.067 C 
ATOM    122  N   SGN d 305     -19.508  43.368 172.994  0.00  0.00    -0.210 NA
ATOM    123  O2S SGN d 305     -17.625  42.000 173.858  0.00  0.00    -0.296 OA
ATOM    124  O3S SGN d 305     -17.319  43.450 171.981  0.00  0.00    -0.296 OA
ATOM    125  C4  SGN d 305     -22.624  42.642 175.099  0.00  0.00     0.089 C 
ATOM    126  O4  SGN d 305     -23.939  42.253 174.733  0.00  0.00    -0.390 OA
ATOM    127  C3  SGN d 305     -21.826  42.807 173.788  0.00  0.00     0.083 C 
ATOM    128  H   SGN d 305     -19.963  42.540 174.814  0.00  0.00     0.076 H 
ATOM    129  H   SGN d 305     -18.008  44.146 175.044  0.00  0.00     0.231 HD
ATOM    130  H   SGN d 305     -19.555  44.989 175.159  0.00  0.00     0.131 H 
ATOM    131  H   SGN d 305     -21.287  41.635 172.302  0.00  0.00     0.210 HD
ATOM    132  H   SGN d 305     -23.199  44.639 175.176  0.00  0.00     0.090 H 
ATOM    133  H   SGN d 305     -23.454  44.966 177.553  0.00  0.00     0.080 H 
ATOM    134  H   SGN d 305     -24.318  43.521 177.069  0.00  0.00     0.080 H 
ATOM    135  H   SGN d 305     -19.693  44.265 172.544  0.00  0.00     0.140 HD
ATOM    136  H   SGN d 305     -18.050  41.945 174.728  0.00  0.00     0.231 HD
ATOM    137  H   SGN d 305     -17.543  44.328 171.637  0.00  0.00     0.231 HD
ATOM    138  H   SGN d 305     -22.189  41.910 175.748  0.00  0.00     0.091 H 
ATOM    139  H   SGN d 305     -24.322  42.923 174.145  0.00  0.00     0.210 HD
ATOM    140  H   SGN d 305     -22.275  43.527 173.136  0.00  0.00     0.089 H 
ENDROOT
TORSDOF 45
ENDMDL
MODEL 42
REMARK VINA RESULT:      -0.4      4.076     12.227
REMARK  0 active torsions:
REMARK  status: ('A' for Active; 'I' for Inactive)
REMARK       I    between atoms: C6_1  and  C5_56 
REMARK       I    between atoms: O3_2  and  C3_19 
REMARK       I    between atoms: C2_3  and  N_45 
REMARK       I    between atoms: S1_4  and  N_72 
REMARK       I    between atoms: S1_4  and  O1S_74 
REMARK       I    between atoms: S1_4  and  O2S_20 
REMARK       I    between atoms: S1_4  and  O3S_35 
REMARK       I    between atoms: C5_5  and  C6_27 
REMARK       I    between atoms: C3_7  and  O3_15 
REMARK       I    between atoms: O2S_10  and  S1_60 
REMARK       I    between atoms: O6_11  and  C6_27 
REMARK       I    between atoms: O6_11  and  S2_67 
REMARK       I    between atoms: C4_14  and  O4_71 
REMARK       I    between atoms: C4_16  and  O4_81 
REMARK       I    between atoms: C6_18  and  C5_53 
REMARK       I    between atoms: O2_21  and  C2_30 
REMARK       I    between atoms: O2_21  and  S_68 
REMARK       I    between atoms: O6_22  and  C6_61 
REMARK       I    between atoms: O6_22  and  S2_47 
REMARK       I    between atoms: O1_23  and  C1_86 
REMARK       I    between atoms: O6_24  and  C6_57 
REMARK       I    between atoms: O6_24  and  S2_89 
REMARK       I    between atoms: C4_25  and  O4_85 
REMARK       I    between atoms: C2_26  and  N_73 
REMARK       I    between atoms: C2_28  and  N_72 
REMARK       I    between atoms: O1S_32  and  S1_37 
REMARK       I    between atoms: S1_37  and  N_73 
REMARK       I    between atoms: S1_37  and  O2S_78 
REMARK       I    between atoms: S1_37  and  O3S_82 
REMARK       I    between atoms: C1_39  and  O4_71 
REMARK       I    between atoms: S_41  and  O2_63 
REMARK       I    between atoms: O3_43  and  C3_88 
REMARK       I    between atoms: O1S_44  and  S1_60 
REMARK       I    between atoms: N_45  and  S1_60 
REMARK       I    between atoms: C1_46  and  O4_85 
REMARK       I    between atoms: O4_48  and  C4_54 
REMARK       I    between atoms: O4_48  and  C1_90 
REMARK       I    between atoms: O3_49  and  C3_77 
REMARK       I    between atoms: C5_52  and  C6_61 
REMARK       I    between atoms: C6_57  and  C5_79 
REMARK       I    between atoms: C2_58  and  O2_63 
REMARK       I    between atoms: S1_60  and  O3S_75 
REMARK       I    between atoms: C3_64  and  O3_80 
REMARK       I    between atoms: O4_81  and  C1_84 
REMARK       I    between atoms: C4_83  and  O4_87 
ROOT
ATOM      1  C6  IDS d 304     -18.763  53.716 172.188  0.00  0.00     0.206 C 
ATOM      2  O61 IDS d 304     -19.366  54.169 173.139  0.00  0.00    -0.646 OA
ATOM      3  C4  IDS d 304     -16.435  53.902 171.373  0.00  0.00     0.103 C 
ATOM      4  O2  IDS d 304     -14.404  54.643 173.582  0.00  0.00    -0.244 OA
ATOM      5  O62 IDS d 304     -19.307  53.660 171.127  0.00  0.00    -0.646 OA
ATOM      6  C2  IDS d 304     -14.658  53.342 173.121  0.00  0.00     0.134 C 
ATOM      7  O1S IDS d 304     -12.098  55.025 174.071  0.00  0.00    -0.572 OA
ATOM      8  O3  IDS d 304     -14.896  52.151 171.035  0.00  0.00    -0.390 OA
ATOM      9  C5  IDS d 304     -17.390  53.242 172.332  0.00  0.00     0.152 C 
ATOM     10  O5  IDS d 304     -17.003  53.393 173.660  0.00  0.00    -0.340 OA
ATOM     11  O2S IDS d 304     -13.817  56.371 175.007  0.00  0.00    -0.572 OA
ATOM     12  O3S IDS d 304     -13.474  54.207 175.816  0.00  0.00    -0.572 OA
ATOM     13  S   IDS d 304     -13.393  55.064 174.686  0.00  0.00     0.252 S 
ATOM     14  O4  IDS d 304     -16.487  55.275 171.571  0.00  0.00    -0.348 OA
ATOM     15  C3  IDS d 304     -15.010  53.425 171.610  0.00  0.00     0.094 C 
ATOM     16  C1  IDS d 304     -15.786  52.735 173.964  0.00  0.00     0.161 C 
ATOM     17  H   IDS d 304     -16.719  53.648 170.372  0.00  0.00     0.092 H 
ATOM     18  H   IDS d 304     -13.806  52.705 173.224  0.00  0.00     0.097 H 
ATOM     19  H   IDS d 304     -15.116  52.202 170.091  0.00  0.00     0.210 HD
ATOM     20  H   IDS d 304     -17.355  52.205 172.072  0.00  0.00     0.104 H 
ATOM     21  H   IDS d 304     -14.331  54.124 171.170  0.00  0.00     0.091 H 
ATOM     22  H   IDS d 304     -15.602  52.872 175.009  0.00  0.00     0.133 H 
ATOM     23  O3  SGN d 303     -18.171  49.722 173.030  0.00  0.00    -0.391 OA
ATOM     24  S1  SGN d 303     -19.464  46.394 174.877  0.00  0.00     0.156 S 
ATOM     25  O5S SGN d 303     -16.870  52.953 178.912  0.00  0.00    -0.572 OA
ATOM     26  C4  SGN d 303     -16.520  50.543 174.626  0.00  0.00     0.095 C 
ATOM     27  C3  SGN d 303     -17.118  49.304 173.861  0.00  0.00     0.083 C 
ATOM     28  O2S SGN d 303     -20.513  47.349 174.704  0.00  0.00    -0.296 OA
ATOM     29  O6  SGN d 303     -15.813  51.691 177.200  0.00  0.00    -0.254 OA
ATOM     30  C2  SGN d 303     -17.678  48.297 174.878  0.00  0.00     0.081 C 
ATOM     31  O3S SGN d 303     -19.657  45.199 174.157  0.00  0.00    -0.296 OA
ATOM     32  O5  SGN d 303     -16.129  49.095 176.537  0.00  0.00    -0.349 OA
ATOM     33  C1  SGN d 303     -16.615  47.922 175.906  0.00  0.00     0.150 C 
ATOM     34  O4S SGN d 303     -14.585  53.392 178.349  0.00  0.00    -0.572 OA
ATOM     35  C6  SGN d 303     -14.829  51.041 176.485  0.00  0.00     0.067 C 
ATOM     36  O6S SGN d 303     -15.154  51.347 179.492  0.00  0.00    -0.572 OA
ATOM     37  N   SGN d 303     -18.166  47.085 174.224  0.00  0.00    -0.210 NA
ATOM     38  O1S SGN d 303     -19.179  46.177 176.275  0.00  0.00    -0.296 OA
ATOM     39  C5  SGN d 303     -15.504  50.004 175.641  0.00  0.00     0.091 C 
ATOM     40  O4  SGN d 303     -15.844  51.354 173.711  0.00  0.00    -0.348 OA
ATOM     41  S2  SGN d 303     -15.587  52.386 178.570  0.00  0.00     0.251 S 
ATOM     42  H   SGN d 303     -17.836  50.360 172.381  0.00  0.00     0.210 HD
ATOM     43  H   SGN d 303     -17.293  51.105 175.108  0.00  0.00     0.091 H 
ATOM     44  H   SGN d 303     -16.346  48.851 173.275  0.00  0.00     0.089 H 
ATOM     45  H   SGN d 303     -20.317  48.143 175.225  0.00  0.00     0.231 HD
ATOM     46  H   SGN d 303     -18.501  48.772 175.370  0.00  0.00     0.076 H 
ATOM     47  H   SGN d 303     -18.911  44.600 174.319  0.00  0.00     0.231 HD
ATOM     48  H   SGN d 303     -17.017  47.296 176.676  0.00  0.00     0.131 H 
ATOM     49  H   SGN d 303     -14.137  50.574 177.155  0.00  0.00     0.080 H 
ATOM     50  H   SGN d 303     -14.283  51.731 175.875  0.00  0.00     0.080 H 
ATOM     51  H   SGN d 303     -18.394  47.323 173.259  0.00  0.00     0.140 HD
ATOM     52  H   SGN d 303     -19.056  47.032 176.716  0.00  0.00     0.231 HD
ATOM     53  H   SGN d 303     -14.757  49.542 175.030  0.00  0.00     0.090 H 
ATOM     54  C2  SGN d 301      -8.644  44.016 174.811  0.00  0.00     0.081 C 
ATOM     55  C5  SGN d 301     -10.881  42.783 173.658  0.00  0.00     0.091 C 
ATOM     56  O6S SGN d 301     -11.053  41.460 170.359  0.00  0.00    -0.572 OA
ATOM     57  C3  SGN d 301     -10.014  44.054 175.475  0.00  0.00     0.083 C 
ATOM     58  O2S SGN d 301      -7.377  46.470 176.119  0.00  0.00    -0.296 OA
ATOM     59  O6  SGN d 301     -11.778  43.361 171.590  0.00  0.00    -0.254 OA
ATOM     60  O3  SGN d 301     -10.150  45.198 176.287  0.00  0.00    -0.391 OA
ATOM     61  O1  SGN d 301      -8.583  41.595 174.782  0.00  0.00    -0.369 OA
ATOM     62  C6  SGN d 301     -11.955  42.505 172.642  0.00  0.00     0.067 C 
ATOM     63  O5S SGN d 301      -9.956  43.633 170.103  0.00  0.00    -0.572 OA
ATOM     64  O4S SGN d 301     -12.179  43.298 169.247  0.00  0.00    -0.572 OA
ATOM     65  O1S SGN d 301      -6.011  45.404 174.384  0.00  0.00    -0.296 OA
ATOM     66  N   SGN d 301      -7.570  44.044 175.785  0.00  0.00    -0.210 NA
ATOM     67  O4  SGN d 301     -12.284  44.280 174.765  0.00  0.00    -0.348 OA
ATOM     68  C4  SGN d 301     -10.990  44.115 174.317  0.00  0.00     0.095 C 
ATOM     69  S1  SGN d 301      -6.560  45.328 175.748  0.00  0.00     0.156 S 
ATOM     70  S2  SGN d 301     -11.203  42.908 170.248  0.00  0.00     0.251 S 
ATOM     71  O3S SGN d 301      -5.577  45.045 176.765  0.00  0.00    -0.296 OA
ATOM     72  O5  SGN d 301      -9.623  42.701 173.032  0.00  0.00    -0.350 OA
ATOM     73  C1  SGN d 301      -8.557  42.756 173.946  0.00  0.00     0.147 C 
ATOM     74  H   SGN d 301      -8.529  44.889 174.203  0.00  0.00     0.076 H 
ATOM     75  H   SGN d 301     -11.001  42.047 174.425  0.00  0.00     0.090 H 
ATOM     76  H   SGN d 301     -10.177  43.210 176.112  0.00  0.00     0.089 H 
ATOM     77  H   SGN d 301      -8.029  46.641 175.421  0.00  0.00     0.231 HD
ATOM     78  H   SGN d 301     -10.011  45.994 175.751  0.00  0.00     0.210 HD
ATOM     79  H   SGN d 301      -7.846  41.634 175.412  0.00  0.00     0.212 HD
ATOM     80  H   SGN d 301     -12.918  42.663 173.080  0.00  0.00     0.080 H 
ATOM     81  H   SGN d 301     -11.894  41.491 172.307  0.00  0.00     0.080 H 
ATOM     82  H   SGN d 301      -6.726  45.596 173.757  0.00  0.00     0.231 HD
ATOM     83  H   SGN d 301      -7.006  43.206 175.644  0.00  0.00     0.140 HD
ATOM     84  H   SGN d 301     -10.768  44.934 173.665  0.00  0.00     0.091 H 
ATOM     85  H   SGN d 301      -4.934  45.770 176.805  0.00  0.00     0.231 HD
ATOM     86  H   SGN d 301      -7.640  42.786 173.396  0.00  0.00     0.131 H 
ATOM     87  O1S IDS d 302     -17.254  45.636 172.130  0.00  0.00    -0.572 OA
ATOM     88  O2S IDS d 302     -15.775  45.038 170.378  0.00  0.00    -0.572 OA
ATOM     89  O62 IDS d 302     -13.783  47.328 178.102  0.00  0.00    -0.646 OA
ATOM     90  C6  IDS d 302     -13.288  47.316 176.987  0.00  0.00     0.206 C 
ATOM     91  C4  IDS d 302     -15.107  46.059 175.834  0.00  0.00     0.103 C 
ATOM     92  S   IDS d 302     -16.131  44.857 171.742  0.00  0.00     0.252 S 
ATOM     93  O3S IDS d 302     -16.302  43.500 172.095  0.00  0.00    -0.572 OA
ATOM     94  C5  IDS d 302     -13.637  46.242 176.026  0.00  0.00     0.152 C 
ATOM     95  C2  IDS d 302     -14.390  44.712 173.743  0.00  0.00     0.134 C 
ATOM     96  O2  IDS d 302     -14.940  45.366 172.615  0.00  0.00    -0.244 OA
ATOM     97  C3  IDS d 302     -15.381  44.842 174.914  0.00  0.00     0.094 C 
ATOM     98  O61 IDS d 302     -12.501  48.193 176.673  0.00  0.00    -0.646 OA
ATOM     99  O5  IDS d 302     -13.043  46.449 174.784  0.00  0.00    -0.340 OA
ATOM    100  O3  IDS d 302     -15.293  43.675 175.698  0.00  0.00    -0.390 OA
ATOM    101  O4  IDS d 302     -15.597  47.222 175.231  0.00  0.00    -0.348 OA
ATOM    102  C1  IDS d 302     -12.984  45.254 174.041  0.00  0.00     0.161 C 
ATOM    103  H   IDS d 302     -15.585  45.883 176.775  0.00  0.00     0.092 H 
ATOM    104  H   IDS d 302     -13.253  45.347 176.469  0.00  0.00     0.104 H 
ATOM    105  H   IDS d 302     -14.254  43.666 173.561  0.00  0.00     0.097 H 
ATOM    106  H   IDS d 302     -16.351  44.984 174.486  0.00  0.00     0.091 H 
ATOM    107  H   IDS d 302     -14.398  43.596 176.061  0.00  0.00     0.210 HD
ATOM    108  H   IDS d 302     -12.486  45.471 173.119  0.00  0.00     0.133 H 
ATOM    109  O6  SGN d 305     -19.735  56.775 168.087  0.00  0.00    -0.254 OA
ATOM    110  C2  SGN d 305     -16.251  57.532 170.843  0.00  0.00     0.081 C 
ATOM    111  O1S SGN d 305     -13.523  56.719 169.861  0.00  0.00    -0.296 OA
ATOM    112  O5  SGN d 305     -17.607  55.959 169.608  0.00  0.00    -0.349 OA
ATOM    113  S1  SGN d 305     -13.624  57.869 170.707  0.00  0.00     0.156 S 
ATOM    114  O5S SGN d 305     -19.694  56.915 165.634  0.00  0.00    -0.572 OA
ATOM    115  C1  SGN d 305     -16.430  56.078 170.411  0.00  0.00     0.150 C 
ATOM    116  O3  SGN d 305     -17.377  59.278 172.119  0.00  0.00    -0.391 OA
ATOM    117  S2  SGN d 305     -20.574  56.614 166.759  0.00  0.00     0.251 S 
ATOM    118  O6S SGN d 305     -21.028  55.235 166.707  0.00  0.00    -0.572 OA
ATOM    119  C5  SGN d 305     -18.829  56.369 170.271  0.00  0.00     0.090 C 
ATOM    120  O4S SGN d 305     -21.645  57.574 166.916  0.00  0.00    -0.572 OA
ATOM    121  C6  SGN d 305     -19.983  56.121 169.296  0.00  0.00     0.067 C 
ATOM    122  N   SGN d 305     -14.985  57.695 171.585  0.00  0.00    -0.210 NA
ATOM    123  O2S SGN d 305     -13.757  59.053 169.908  0.00  0.00    -0.296 OA
ATOM    124  O3S SGN d 305     -12.587  57.955 171.681  0.00  0.00    -0.296 OA
ATOM    125  C4  SGN d 305     -18.725  57.819 170.769  0.00  0.00     0.089 C 
ATOM    126  O4  SGN d 305     -19.852  58.155 171.563  0.00  0.00    -0.390 OA
ATOM    127  C3  SGN d 305     -17.486  57.932 171.681  0.00  0.00     0.083 C 
ATOM    128  H   SGN d 305     -16.186  58.180 169.994  0.00  0.00     0.076 H 
ATOM    129  H   SGN d 305     -14.255  56.720 169.224  0.00  0.00     0.231 HD
ATOM    130  H   SGN d 305     -15.607  55.748 169.813  0.00  0.00     0.131 H 
ATOM    131  H   SGN d 305     -16.602  59.368 172.696  0.00  0.00     0.210 HD
ATOM    132  H   SGN d 305     -19.011  55.797 171.156  0.00  0.00     0.090 H 
ATOM    133  H   SGN d 305     -20.077  55.071 169.117  0.00  0.00     0.080 H 
ATOM    134  H   SGN d 305     -20.890  56.500 169.721  0.00  0.00     0.080 H 
ATOM    135  H   SGN d 305     -14.868  56.871 172.175  0.00  0.00     0.140 HD
ATOM    136  H   SGN d 305     -14.476  58.932 169.268  0.00  0.00     0.231 HD
ATOM    137  H   SGN d 305     -12.548  57.128 172.186  0.00  0.00     0.231 HD
ATOM    138  H   SGN d 305     -18.664  58.469 169.920  0.00  0.00     0.091 H 
ATOM    139  H   SGN d 305     -19.897  57.560 172.328  0.00  0.00     0.210 HD
ATOM    140  H   SGN d 305     -17.561  57.294 172.537  0.00  0.00     0.089 H 
ENDROOT
TORSDOF 45
ENDMDL
MODEL 43
REMARK VINA RESULT:       0.2      5.966      9.233
REMARK  0 active torsions:
REMARK  status: ('A' for Active; 'I' for Inactive)
REMARK       I    between atoms: C6_1  and  C5_56 
REMARK       I    between atoms: O3_2  and  C3_19 
REMARK       I    between atoms: C2_3  and  N_45 
REMARK       I    between atoms: S1_4  and  N_72 
REMARK       I    between atoms: S1_4  and  O1S_74 
REMARK       I    between atoms: S1_4  and  O2S_20 
REMARK       I    between atoms: S1_4  and  O3S_35 
REMARK       I    between atoms: C5_5  and  C6_27 
REMARK       I    between atoms: C3_7  and  O3_15 
REMARK       I    between atoms: O2S_10  and  S1_60 
REMARK       I    between atoms: O6_11  and  C6_27 
REMARK       I    between atoms: O6_11  and  S2_67 
REMARK       I    between atoms: C4_14  and  O4_71 
REMARK       I    between atoms: C4_16  and  O4_81 
REMARK       I    between atoms: C6_18  and  C5_53 
REMARK       I    between atoms: O2_21  and  C2_30 
REMARK       I    between atoms: O2_21  and  S_68 
REMARK       I    between atoms: O6_22  and  C6_61 
REMARK       I    between atoms: O6_22  and  S2_47 
REMARK       I    between atoms: O1_23  and  C1_86 
REMARK       I    between atoms: O6_24  and  C6_57 
REMARK       I    between atoms: O6_24  and  S2_89 
REMARK       I    between atoms: C4_25  and  O4_85 
REMARK       I    between atoms: C2_26  and  N_73 
REMARK       I    between atoms: C2_28  and  N_72 
REMARK       I    between atoms: O1S_32  and  S1_37 
REMARK       I    between atoms: S1_37  and  N_73 
REMARK       I    between atoms: S1_37  and  O2S_78 
REMARK       I    between atoms: S1_37  and  O3S_82 
REMARK       I    between atoms: C1_39  and  O4_71 
REMARK       I    between atoms: S_41  and  O2_63 
REMARK       I    between atoms: O3_43  and  C3_88 
REMARK       I    between atoms: O1S_44  and  S1_60 
REMARK       I    between atoms: N_45  and  S1_60 
REMARK       I    between atoms: C1_46  and  O4_85 
REMARK       I    between atoms: O4_48  and  C4_54 
REMARK       I    between atoms: O4_48  and  C1_90 
REMARK       I    between atoms: O3_49  and  C3_77 
REMARK       I    between atoms: C5_52  and  C6_61 
REMARK       I    between atoms: C6_57  and  C5_79 
REMARK       I    between atoms: C2_58  and  O2_63 
REMARK       I    between atoms: S1_60  and  O3S_75 
REMARK       I    between atoms: C3_64  and  O3_80 
REMARK       I    between atoms: O4_81  and  C1_84 
REMARK       I    between atoms: C4_83  and  O4_87 
ROOT
ATOM      1  C6  IDS d 304     -16.574  57.516 170.770  0.00  0.00     0.206 C 
ATOM      2  O61 IDS d 304     -16.803  58.536 171.389  0.00  0.00    -0.646 OA
ATOM      3  C4  IDS d 304     -15.658  55.300 171.377  0.00  0.00     0.103 C 
ATOM      4  O2  IDS d 304     -15.979  54.603 174.371  0.00  0.00    -0.244 OA
ATOM      5  O62 IDS d 304     -16.114  57.591 169.672  0.00  0.00    -0.646 OA
ATOM      6  C2  IDS d 304     -16.835  54.175 173.345  0.00  0.00     0.134 C 
ATOM      7  O1S IDS d 304     -15.618  52.934 176.041  0.00  0.00    -0.572 OA
ATOM      8  O3  IDS d 304     -16.709  53.205 171.138  0.00  0.00    -0.390 OA
ATOM      9  C5  IDS d 304     -16.857  56.209 171.357  0.00  0.00     0.152 C 
ATOM     10  O5  IDS d 304     -17.408  56.397 172.621  0.00  0.00    -0.340 OA
ATOM     11  O2S IDS d 304     -15.252  55.241 176.476  0.00  0.00    -0.572 OA
ATOM     12  O3S IDS d 304     -17.435  54.422 176.344  0.00  0.00    -0.572 OA
ATOM     13  S   IDS d 304     -16.098  54.277 175.887  0.00  0.00     0.252 S 
ATOM     14  O4  IDS d 304     -14.640  55.926 172.083  0.00  0.00    -0.348 OA
ATOM     15  C3  IDS d 304     -15.988  53.980 172.058  0.00  0.00     0.094 C 
ATOM     16  C1  IDS d 304     -17.951  55.212 173.174  0.00  0.00     0.161 C 
ATOM     17  H   IDS d 304     -15.359  55.099 170.369  0.00  0.00     0.092 H 
ATOM     18  H   IDS d 304     -17.302  53.240 173.574  0.00  0.00     0.097 H 
ATOM     19  H   IDS d 304     -16.180  53.083 170.334  0.00  0.00     0.210 HD
ATOM     20  H   IDS d 304     -17.567  55.701 170.737  0.00  0.00     0.104 H 
ATOM     21  H   IDS d 304     -15.077  53.503 172.354  0.00  0.00     0.091 H 
ATOM     22  H   IDS d 304     -18.386  55.470 174.117  0.00  0.00     0.133 H 
ATOM     23  O3  SGN d 303     -20.253  55.811 170.014  0.00  0.00    -0.391 OA
ATOM     24  S1  SGN d 303     -24.188  56.324 169.373  0.00  0.00     0.156 S 
ATOM     25  O5S SGN d 303     -20.628  57.954 176.494  0.00  0.00    -0.572 OA
ATOM     26  C4  SGN d 303     -20.224  55.256 172.388  0.00  0.00     0.095 C 
ATOM     27  C3  SGN d 303     -20.910  55.040 170.988  0.00  0.00     0.083 C 
ATOM     28  O2S SGN d 303     -23.448  57.523 169.129  0.00  0.00    -0.296 OA
ATOM     29  O6  SGN d 303     -20.589  55.976 175.180  0.00  0.00    -0.254 OA
ATOM     30  C2  SGN d 303     -22.374  55.501 171.059  0.00  0.00     0.081 C 
ATOM     31  O3S SGN d 303     -24.807  55.793 168.225  0.00  0.00    -0.296 OA
ATOM     32  O5  SGN d 303     -22.412  55.047 173.422  0.00  0.00    -0.349 OA
ATOM     33  C1  SGN d 303     -23.102  54.806 172.206  0.00  0.00     0.150 C 
ATOM     34  O4S SGN d 303     -19.646  55.957 177.378  0.00  0.00    -0.572 OA
ATOM     35  C6  SGN d 303     -20.601  54.638 174.846  0.00  0.00     0.067 C 
ATOM     36  O6S SGN d 303     -22.038  56.082 177.102  0.00  0.00    -0.572 OA
ATOM     37  N   SGN d 303     -23.083  55.239 169.808  0.00  0.00    -0.210 NA
ATOM     38  O1S SGN d 303     -25.093  56.487 170.485  0.00  0.00    -0.296 OA
ATOM     39  C5  SGN d 303     -21.086  54.537 173.433  0.00  0.00     0.091 C 
ATOM     40  O4  SGN d 303     -18.961  54.658 172.369  0.00  0.00    -0.348 OA
ATOM     41  S2  SGN d 303     -20.734  56.520 176.627  0.00  0.00     0.251 S 
ATOM     42  H   SGN d 303     -19.325  55.534 169.955  0.00  0.00     0.210 HD
ATOM     43  H   SGN d 303     -20.129  56.298 172.612  0.00  0.00     0.091 H 
ATOM     44  H   SGN d 303     -20.858  54.003 170.731  0.00  0.00     0.089 H 
ATOM     45  H   SGN d 303     -23.050  57.832 169.957  0.00  0.00     0.231 HD
ATOM     46  H   SGN d 303     -22.364  56.557 171.229  0.00  0.00     0.076 H 
ATOM     47  H   SGN d 303     -25.289  54.985 168.463  0.00  0.00     0.231 HD
ATOM     48  H   SGN d 303     -24.094  55.187 172.329  0.00  0.00     0.131 H 
ATOM     49  H   SGN d 303     -21.259  54.103 175.499  0.00  0.00     0.080 H 
ATOM     50  H   SGN d 303     -19.623  54.213 174.943  0.00  0.00     0.080 H 
ATOM     51  H   SGN d 303     -22.390  55.187 169.063  0.00  0.00     0.140 HD
ATOM     52  H   SGN d 303     -24.612  56.855 171.242  0.00  0.00     0.231 HD
ATOM     53  H   SGN d 303     -21.032  53.508 173.141  0.00  0.00     0.090 H 
ATOM     54  C2  SGN d 301     -24.644  46.116 173.651  0.00  0.00     0.081 C 
ATOM     55  C5  SGN d 301     -25.335  47.175 171.150  0.00  0.00     0.091 C 
ATOM     56  O6S SGN d 301     -24.644  45.676 167.998  0.00  0.00    -0.572 OA
ATOM     57  C3  SGN d 301     -25.162  47.539 173.496  0.00  0.00     0.083 C 
ATOM     58  O2S SGN d 301     -23.161  46.399 176.307  0.00  0.00    -0.296 OA
ATOM     59  O6  SGN d 301     -23.847  47.439 169.380  0.00  0.00    -0.254 OA
ATOM     60  O3  SGN d 301     -24.680  48.367 174.531  0.00  0.00    -0.391 OA
ATOM     61  O1  SGN d 301     -26.618  45.149 172.635  0.00  0.00    -0.369 OA
ATOM     62  C6  SGN d 301     -25.154  47.639 169.731  0.00  0.00     0.067 C 
ATOM     63  O5S SGN d 301     -22.561  45.455 169.262  0.00  0.00    -0.572 OA
ATOM     64  O4S SGN d 301     -22.671  46.941 167.374  0.00  0.00    -0.572 OA
ATOM     65  O1S SGN d 301     -22.906  44.221 175.210  0.00  0.00    -0.296 OA
ATOM     66  N   SGN d 301     -25.007  45.543 174.932  0.00  0.00    -0.210 NA
ATOM     67  O4  SGN d 301     -24.896  49.326 171.933  0.00  0.00    -0.348 OA
ATOM     68  C4  SGN d 301     -24.610  47.996 172.160  0.00  0.00     0.095 C 
ATOM     69  S1  SGN d 301     -23.789  45.142 175.945  0.00  0.00     0.156 S 
ATOM     70  S2  SGN d 301     -23.408  46.307 168.451  0.00  0.00     0.251 S 
ATOM     71  O3S SGN d 301     -24.446  44.547 177.083  0.00  0.00    -0.296 OA
ATOM     72  O5  SGN d 301     -24.889  45.844 171.259  0.00  0.00    -0.350 OA
ATOM     73  C1  SGN d 301     -25.199  45.268 172.502  0.00  0.00     0.147 C 
ATOM     74  H   SGN d 301     -23.574  46.130 173.614  0.00  0.00     0.076 H 
ATOM     75  H   SGN d 301     -26.379  47.272 171.362  0.00  0.00     0.090 H 
ATOM     76  H   SGN d 301     -26.230  47.587 173.544  0.00  0.00     0.089 H 
ATOM     77  H   SGN d 301     -22.726  46.780 175.528  0.00  0.00     0.231 HD
ATOM     78  H   SGN d 301     -23.710  48.357 174.528  0.00  0.00     0.210 HD
ATOM     79  H   SGN d 301     -26.830  44.751 173.494  0.00  0.00     0.212 HD
ATOM     80  H   SGN d 301     -25.395  48.679 169.655  0.00  0.00     0.080 H 
ATOM     81  H   SGN d 301     -25.800  47.091 169.077  0.00  0.00     0.080 H 
ATOM     82  H   SGN d 301     -22.501  44.689 174.463  0.00  0.00     0.231 HD
ATOM     83  H   SGN d 301     -25.545  44.697 174.749  0.00  0.00     0.140 HD
ATOM     84  H   SGN d 301     -23.547  47.883 172.121  0.00  0.00     0.091 H 
ATOM     85  H   SGN d 301     -23.782  44.279 177.737  0.00  0.00     0.231 HD
ATOM     86  H   SGN d 301     -24.748  44.299 172.549  0.00  0.00     0.131 H 
ATOM     87  O1S IDS d 302     -23.010  53.183 168.053  0.00  0.00    -0.572 OA
ATOM     88  O2S IDS d 302     -22.343  51.076 167.197  0.00  0.00    -0.572 OA
ATOM     89  O62 IDS d 302     -24.409  52.919 175.021  0.00  0.00    -0.646 OA
ATOM     90  C6  IDS d 302     -23.742  52.099 174.412  0.00  0.00     0.206 C 
ATOM     91  C4  IDS d 302     -24.395  52.790 172.108  0.00  0.00     0.103 C 
ATOM     92  S   IDS d 302     -23.288  51.791 167.983  0.00  0.00     0.252 S 
ATOM     93  O3S IDS d 302     -24.624  51.555 167.593  0.00  0.00    -0.572 OA
ATOM     94  C5  IDS d 302     -24.150  51.662 173.055  0.00  0.00     0.152 C 
ATOM     95  C2  IDS d 302     -24.266  50.940 170.301  0.00  0.00     0.134 C 
ATOM     96  O2  IDS d 302     -23.183  51.262 169.448  0.00  0.00    -0.244 OA
ATOM     97  C3  IDS d 302     -24.934  52.250 170.758  0.00  0.00     0.094 C 
ATOM     98  O61 IDS d 302     -22.738  51.640 174.933  0.00  0.00    -0.646 OA
ATOM     99  O5  IDS d 302     -23.217  50.795 172.491  0.00  0.00    -0.340 OA
ATOM    100  O3  IDS d 302     -26.315  52.013 170.904  0.00  0.00    -0.390 OA
ATOM    101  O4  IDS d 302     -23.172  53.434 171.899  0.00  0.00    -0.348 OA
ATOM    102  C1  IDS d 302     -23.790  50.038 171.450  0.00  0.00     0.161 C 
ATOM    103  H   IDS d 302     -25.121  53.464 172.512  0.00  0.00     0.092 H 
ATOM    104  H   IDS d 302     -25.079  51.152 173.203  0.00  0.00     0.104 H 
ATOM    105  H   IDS d 302     -25.011  50.369 169.787  0.00  0.00     0.097 H 
ATOM    106  H   IDS d 302     -24.715  52.987 170.014  0.00  0.00     0.091 H 
ATOM    107  H   IDS d 302     -26.457  51.340 171.587  0.00  0.00     0.210 HD
ATOM    108  H   IDS d 302     -23.038  49.369 171.085  0.00  0.00     0.133 H 
ATOM    109  O6  SGN d 305     -11.936  58.060 168.467  0.00  0.00    -0.254 OA
ATOM    110  C2  SGN d 305     -12.345  56.312 172.600  0.00  0.00     0.081 C 
ATOM    111  O1S SGN d 305     -12.108  53.320 172.854  0.00  0.00    -0.296 OA
ATOM    112  O5  SGN d 305     -13.153  56.457 170.327  0.00  0.00    -0.349 OA
ATOM    113  S1  SGN d 305     -11.636  54.132 173.934  0.00  0.00     0.156 S 
ATOM    114  O5S SGN d 305     -10.471  57.220 166.681  0.00  0.00    -0.572 OA
ATOM    115  C1  SGN d 305     -13.334  55.772 171.569  0.00  0.00     0.150 C 
ATOM    116  O3  SGN d 305     -11.756  58.376 173.753  0.00  0.00    -0.391 OA
ATOM    117  S2  SGN d 305     -11.456  58.256 166.976  0.00  0.00     0.251 S 
ATOM    118  O6S SGN d 305     -12.628  58.114 166.129  0.00  0.00    -0.572 OA
ATOM    119  C5  SGN d 305     -13.343  57.893 170.403  0.00  0.00     0.090 C 
ATOM    120  O4S SGN d 305     -10.895  59.590 166.973  0.00  0.00    -0.572 OA
ATOM    121  C6  SGN d 305     -13.171  58.451 168.987  0.00  0.00     0.067 C 
ATOM    122  N   SGN d 305     -12.445  55.544 173.857  0.00  0.00    -0.210 NA
ATOM    123  O2S SGN d 305     -10.239  54.409 173.761  0.00  0.00    -0.296 OA
ATOM    124  O3S SGN d 305     -11.957  53.613 175.222  0.00  0.00    -0.296 OA
ATOM    125  C4  SGN d 305     -12.404  58.518 171.446  0.00  0.00     0.089 C 
ATOM    126  O4  SGN d 305     -12.715  59.890 171.636  0.00  0.00    -0.390 OA
ATOM    127  C3  SGN d 305     -12.642  57.815 172.798  0.00  0.00     0.083 C 
ATOM    128  H   SGN d 305     -11.337  56.201 172.261  0.00  0.00     0.076 H 
ATOM    129  H   SGN d 305     -11.858  53.727 172.009  0.00  0.00     0.231 HD
ATOM    130  H   SGN d 305     -13.168  54.732 171.380  0.00  0.00     0.131 H 
ATOM    131  H   SGN d 305     -11.891  57.945 174.612  0.00  0.00     0.210 HD
ATOM    132  H   SGN d 305     -14.325  58.145 170.744  0.00  0.00     0.090 H 
ATOM    133  H   SGN d 305     -13.954  58.078 168.361  0.00  0.00     0.080 H 
ATOM    134  H   SGN d 305     -13.214  59.520 169.024  0.00  0.00     0.080 H 
ATOM    135  H   SGN d 305     -13.432  55.341 174.015  0.00  0.00     0.140 HD
ATOM    136  H   SGN d 305     -10.086  54.758 172.869  0.00  0.00     0.231 HD
ATOM    137  H   SGN d 305     -12.910  53.447 175.276  0.00  0.00     0.231 HD
ATOM    138  H   SGN d 305     -11.395  58.412 171.106  0.00  0.00     0.091 H 
ATOM    139  H   SGN d 305     -13.631  59.974 171.944  0.00  0.00     0.210 HD
ATOM    140  H   SGN d 305     -13.648  57.940 173.142  0.00  0.00     0.089 H 
ENDROOT
TORSDOF 45
ENDMDL
