REMARK  0 active torsions:
REMARK  status: ('A' for Active; 'I' for Inactive)
REMARK       I    between atoms: C2_1  and  O2_62 
REMARK       I    between atoms: O3_2  and  C3_65 
REMARK       I    between atoms: O1_3  and  C1_15 
REMARK       I    between atoms: C5_5  and  C6_58 
REMARK       I    between atoms: C1_6  and  O4_70 
REMARK       I    between atoms: S_7  and  O2_62 
REMARK       I    between atoms: O2_9  and  C2_55 
REMARK       I    between atoms: O2_9  and  S_49 
REMARK       I    between atoms: O4_11  and  C1_28 
REMARK       I    between atoms: O4_11  and  C4_41 
REMARK       I    between atoms: O6_12  and  C6_58 
REMARK       I    between atoms: O6_12  and  S2_38 
REMARK       I    between atoms: S1_16  and  N_21 
REMARK       I    between atoms: S1_16  and  O1S_32 
REMARK       I    between atoms: S1_16  and  O2S_53 
REMARK       I    between atoms: S1_16  and  O3S_24 
REMARK       I    between atoms: N_18  and  C2_66 
REMARK       I    between atoms: N_18  and  S1_37 
REMARK       I    between atoms: C3_19  and  O3_27 
REMARK       I    between atoms: N_21  and  C2_31 
REMARK       I    between atoms: C4_22  and  O4_70 
REMARK       I    between atoms: C6_25  and  C5_46 
REMARK       I    between atoms: C6_25  and  O6_45 
REMARK       I    between atoms: O1_33  and  C1_51 
REMARK       I    between atoms: O1_33  and  C4_34 
REMARK       I    between atoms: O3S_35  and  S1_37 
REMARK       I    between atoms: S1_37  and  O1S_42 
REMARK       I    between atoms: S1_37  and  O2S_63 
REMARK       I    between atoms: O3_39  and  C3_54 
REMARK       I    between atoms: C6_40  and  C5_60 
REMARK       I    between atoms: C3_44  and  O3_64 
REMARK       I    between atoms: O6_45  and  S2_59 
REMARK       I    between atoms: C6_50  and  C5_56 
ROOT
ATOM      1  C2  IDS d 803     -27.927  84.183  19.690  0.00  0.00     0.134 C 
ATOM      2  C1  IDS d 803     -27.439  82.790  20.087  0.00  0.00     0.161 C 
ATOM      3  S   IDS d 803     -29.253  85.802  21.492  0.00  0.00     0.252 S 
ATOM      4  O3S IDS d 803     -28.836  85.319  22.823  0.00  0.00    -0.572 OA
ATOM      5  O5  IDS d 803     -28.303  81.791  19.522  0.00  0.00    -0.340 OA
ATOM      6  C3  IDS d 803     -28.052  84.288  18.170  0.00  0.00     0.094 C 
ATOM      7  O2S IDS d 803     -28.353  86.890  21.065  0.00  0.00    -0.572 OA
ATOM      8  O3  IDS d 803     -26.784  84.219  17.553  0.00  0.00    -0.390 OA
ATOM      9  C4  IDS d 803     -28.967  83.179  17.652  0.00  0.00     0.103 C 
ATOM     10  C6  IDS d 803     -29.325  80.708  17.653  0.00  0.00     0.206 C 
ATOM     11  O61 IDS d 803     -29.164  80.202  16.521  0.00  0.00    -0.646 OA
ATOM     12  C5  IDS d 803     -28.395  81.829  18.089  0.00  0.00     0.152 C 
ATOM     13  O2  IDS d 803     -29.169  84.475  20.327  0.00  0.00    -0.244 OA
ATOM     14  O62 IDS d 803     -30.201  80.311  18.451  0.00  0.00    -0.646 OA
ATOM     15  O1S IDS d 803     -30.637  86.306  21.564  0.00  0.00    -0.572 OA
ATOM     16  H   IDS d 803     -27.209  84.906  20.016  0.00  0.00     0.097 H 
ATOM     17  H   IDS d 803     -27.481  82.696  21.152  0.00  0.00     0.133 H 
ATOM     18  H   IDS d 803     -28.481  85.237  17.924  0.00  0.00     0.091 H 
ATOM     19  H   IDS d 803     -26.370  83.366  17.759  0.00  0.00     0.210 HD
ATOM     20  H   IDS d 803     -29.023  83.227  16.585  0.00  0.00     0.092 H 
ATOM     21  H   IDS d 803     -27.430  81.705  17.644  0.00  0.00     0.104 H 
ATOM     22  O3  SGN d 802     -34.126  84.315  19.622  0.00  0.00    -0.391 OA
ATOM     23  O4  SGN d 802     -34.435  81.649  18.758  0.00  0.00    -0.348 OA
ATOM     24  S1  SGN d 802     -31.542  87.296  18.271  0.00  0.00     0.156 S 
ATOM     25  O5S SGN d 802     -35.410  81.936  13.039  0.00  0.00    -0.572 OA
ATOM     26  N   SGN d 802     -31.736  85.661  18.914  0.00  0.00    -0.210 NA
ATOM     27  O3S SGN d 802     -30.364  87.334  17.385  0.00  0.00    -0.296 OA
ATOM     28  C6  SGN d 802     -33.203  80.951  16.176  0.00  0.00     0.067 C 
ATOM     29  O5  SGN d 802     -31.851  82.905  16.468  0.00  0.00    -0.349 OA
ATOM     30  C2  SGN d 802     -32.320  84.642  18.068  0.00  0.00     0.081 C 
ATOM     31  O1S SGN d 802     -31.352  88.241  19.386  0.00  0.00    -0.296 OA
ATOM     32  O1  SGN d 802     -30.283  83.339  18.190  0.00  0.00    -0.348 OA
ATOM     33  C4  SGN d 802     -33.721  82.609  17.977  0.00  0.00     0.095 C 
ATOM     34  O6  SGN d 802     -33.938  81.714  15.222  0.00  0.00    -0.254 OA
ATOM     35  C5  SGN d 802     -32.605  81.916  17.189  0.00  0.00     0.091 C 
ATOM     36  O4S SGN d 802     -35.753  79.970  14.396  0.00  0.00    -0.572 OA
ATOM     37  C1  SGN d 802     -31.232  83.910  17.285  0.00  0.00     0.150 C 
ATOM     38  O6S SGN d 802     -33.748  80.190  13.067  0.00  0.00    -0.572 OA
ATOM     39  O2S SGN d 802     -32.746  87.671  17.504  0.00  0.00    -0.296 OA
ATOM     40  S2  SGN d 802     -34.747  80.917  13.874  0.00  0.00     0.251 S 
ATOM     41  C3  SGN d 802     -33.110  83.647  18.908  0.00  0.00     0.083 C 
ATOM     42  H   SGN d 802     -33.727  84.974  20.212  0.00  0.00     0.210 HD
ATOM     43  H   SGN d 802     -32.324  85.734  19.744  0.00  0.00     0.140 HD
ATOM     44  H   SGN d 802     -29.573  87.088  17.889  0.00  0.00     0.231 HD
ATOM     45  H   SGN d 802     -33.856  80.263  16.671  0.00  0.00     0.080 H 
ATOM     46  H   SGN d 802     -32.429  80.395  15.690  0.00  0.00     0.080 H 
ATOM     47  H   SGN d 802     -32.983  85.118  17.376  0.00  0.00     0.076 H 
ATOM     48  H   SGN d 802     -32.128  88.215  19.968  0.00  0.00     0.231 HD
ATOM     49  H   SGN d 802     -34.393  83.081  17.291  0.00  0.00     0.091 H 
ATOM     50  H   SGN d 802     -31.978  81.385  17.874  0.00  0.00     0.090 H 
ATOM     51  H   SGN d 802     -30.704  84.592  16.651  0.00  0.00     0.131 H 
ATOM     52  H   SGN d 802     -33.521  87.646  18.087  0.00  0.00     0.231 HD
ATOM     53  H   SGN d 802     -32.462  83.169  19.613  0.00  0.00     0.089 H 
ATOM     54  O1  SGN d 804     -22.230  80.195  19.837  0.00  0.00    -0.369 OA
ATOM     55  C5  SGN d 804     -24.076  82.096  20.990  0.00  0.00     0.091 C 
ATOM     56  O6  SGN d 804     -24.927  82.979  23.075  0.00  0.00    -0.254 OA
ATOM     57  O6S SGN d 804     -25.677  83.596  25.546  0.00  0.00    -0.572 OA
ATOM     58  C1  SGN d 804     -23.116  79.884  20.914  0.00  0.00     0.147 C 
ATOM     59  N   SGN d 804     -24.146  78.178  19.503  0.00  0.00    -0.210 NA
ATOM     60  C4  SGN d 804     -25.419  81.576  20.477  0.00  0.00     0.095 C 
ATOM     61  O5S SGN d 804     -26.333  85.113  23.793  0.00  0.00    -0.572 OA
ATOM     62  O3S SGN d 804     -23.341  76.798  21.623  0.00  0.00    -0.296 OA
ATOM     63  S1  SGN d 804     -23.496  76.670  20.160  0.00  0.00     0.156 S 
ATOM     64  S2  SGN d 804     -25.257  84.230  24.282  0.00  0.00     0.251 S 
ATOM     65  O3  SGN d 804     -26.396  79.842  19.123  0.00  0.00    -0.391 OA
ATOM     66  O1S SGN d 804     -22.183  76.396  19.547  0.00  0.00    -0.296 OA
ATOM     67  O5  SGN d 804     -23.401  81.048  21.706  0.00  0.00    -0.350 OA
ATOM     68  C3  SGN d 804     -25.170  80.367  19.581  0.00  0.00     0.083 C 
ATOM     69  C6  SGN d 804     -24.240  83.328  21.875  0.00  0.00     0.067 C 
ATOM     70  O2S SGN d 804     -24.419  75.559  19.859  0.00  0.00    -0.296 OA
ATOM     71  C2  SGN d 804     -24.424  79.303  20.375  0.00  0.00     0.081 C 
ATOM     72  O4S SGN d 804     -24.038  85.027  24.512  0.00  0.00    -0.572 OA
ATOM     73  O4  SGN d 804     -26.072  82.596  19.719  0.00  0.00    -0.348 OA
ATOM     74  H   SGN d 804     -22.055  79.393  19.320  0.00  0.00     0.212 HD
ATOM     75  H   SGN d 804     -23.489  82.393  20.146  0.00  0.00     0.090 H 
ATOM     76  H   SGN d 804     -22.631  79.159  21.534  0.00  0.00     0.131 H 
ATOM     77  H   SGN d 804     -23.476  78.506  18.808  0.00  0.00     0.140 HD
ATOM     78  H   SGN d 804     -26.038  81.299  21.305  0.00  0.00     0.091 H 
ATOM     79  H   SGN d 804     -22.734  77.528  21.821  0.00  0.00     0.231 HD
ATOM     80  H   SGN d 804     -26.870  80.521  18.617  0.00  0.00     0.210 HD
ATOM     81  H   SGN d 804     -21.575  77.126  19.744  0.00  0.00     0.231 HD
ATOM     82  H   SGN d 804     -24.585  80.667  18.736  0.00  0.00     0.089 H 
ATOM     83  H   SGN d 804     -24.802  84.070  21.348  0.00  0.00     0.080 H 
ATOM     84  H   SGN d 804     -23.273  83.713  22.123  0.00  0.00     0.080 H 
ATOM     85  H   SGN d 804     -25.283  75.738  20.262  0.00  0.00     0.231 HD
ATOM     86  H   SGN d 804     -25.021  78.978  21.201  0.00  0.00     0.076 H 
ATOM     87  O5  UAP d 801     -36.622  82.368  18.201  0.00  0.00    -0.311 OA
ATOM     88  O2  UAP d 801     -37.496  79.676  18.465  0.00  0.00    -0.244 OA
ATOM     89  O1S UAP d 801     -39.010  77.700  17.550  0.00  0.00    -0.572 OA
ATOM     90  O3S UAP d 801     -36.632  77.321  17.604  0.00  0.00    -0.572 OA
ATOM     91  C1  UAP d 801     -35.707  81.271  18.227  0.00  0.00     0.167 C 
ATOM     92  O2S UAP d 801     -37.896  77.333  19.652  0.00  0.00    -0.572 OA
ATOM     93  C4  UAP d 801     -37.106  81.999  20.486  0.00  0.00    -0.034 C 
ATOM     94  C3  UAP d 801     -36.607  80.640  20.486  0.00  0.00     0.086 C 
ATOM     95  O62 UAP d 801     -37.616  84.755  18.469  0.00  0.00    -0.642 OA
ATOM     96  S   UAP d 801     -37.770  77.936  18.312  0.00  0.00     0.252 S 
ATOM     97  C6  UAP d 801     -37.602  84.021  19.484  0.00  0.00     0.233 C 
ATOM     98  C2  UAP d 801     -36.298  80.154  19.074  0.00  0.00     0.135 C 
ATOM     99  C5  UAP d 801     -37.101  82.788  19.391  0.00  0.00     0.147 C 
ATOM    100  O61 UAP d 801     -38.062  84.419  20.580  0.00  0.00    -0.642 OA
ATOM    101  O3  UAP d 801     -35.457  80.553  21.298  0.00  0.00    -0.389 OA
ATOM    102  H   UAP d 801     -35.553  80.941  17.221  0.00  0.00     0.134 H 
ATOM    103  H   UAP d 801     -37.484  82.383  21.366  0.00  0.00     0.085 H 
ATOM    104  H   UAP d 801     -37.372  80.006  20.884  0.00  0.00     0.093 H 
ATOM    105  H   UAP d 801     -35.579  79.365  19.137  0.00  0.00     0.097 H 
ATOM    106  H   UAP d 801     -34.763  81.127  20.938  0.00  0.00     0.210 HD
ENDROOT
TORSDOF 33
