MODEL 1
REMARK VINA RESULT:      -7.2      0.000      0.000
REMARK  0 active torsions:
REMARK  status: ('A' for Active; 'I' for Inactive)
REMARK       I    between atoms: C2_1  and  O2_62 
REMARK       I    between atoms: O3_2  and  C3_65 
REMARK       I    between atoms: O1_3  and  C1_15 
REMARK       I    between atoms: C5_5  and  C6_58 
REMARK       I    between atoms: C1_6  and  O4_70 
REMARK       I    between atoms: S_7  and  O2_62 
REMARK       I    between atoms: O2_9  and  C2_55 
REMARK       I    between atoms: O2_9  and  S_49 
REMARK       I    between atoms: O4_11  and  C1_28 
REMARK       I    between atoms: O4_11  and  C4_41 
REMARK       I    between atoms: O6_12  and  C6_58 
REMARK       I    between atoms: O6_12  and  S2_38 
REMARK       I    between atoms: S1_16  and  N_21 
REMARK       I    between atoms: S1_16  and  O1S_32 
REMARK       I    between atoms: S1_16  and  O2S_53 
REMARK       I    between atoms: S1_16  and  O3S_24 
REMARK       I    between atoms: N_18  and  C2_66 
REMARK       I    between atoms: N_18  and  S1_37 
REMARK       I    between atoms: C3_19  and  O3_27 
REMARK       I    between atoms: N_21  and  C2_31 
REMARK       I    between atoms: C4_22  and  O4_70 
REMARK       I    between atoms: C6_25  and  C5_46 
REMARK       I    between atoms: C6_25  and  O6_45 
REMARK       I    between atoms: O1_33  and  C1_51 
REMARK       I    between atoms: O1_33  and  C4_34 
REMARK       I    between atoms: O3S_35  and  S1_37 
REMARK       I    between atoms: S1_37  and  O1S_42 
REMARK       I    between atoms: S1_37  and  O2S_63 
REMARK       I    between atoms: O3_39  and  C3_54 
REMARK       I    between atoms: C6_40  and  C5_60 
REMARK       I    between atoms: C3_44  and  O3_64 
REMARK       I    between atoms: O6_45  and  S2_59 
REMARK       I    between atoms: C6_50  and  C5_56 
ROOT
ATOM      1  C2  IDS d 803       4.886  52.768 -13.975  0.00  0.00     0.134 C 
ATOM      2  C1  IDS d 803       4.972  53.974 -14.911  0.00  0.00     0.161 C 
ATOM      3  S   IDS d 803       4.672  50.200 -14.966  0.00  0.00     0.252 S 
ATOM      4  O3S IDS d 803       5.230  50.265 -16.330  0.00  0.00    -0.572 OA
ATOM      5  O5  IDS d 803       3.714  54.667 -14.931  0.00  0.00    -0.340 OA
ATOM      6  C3  IDS d 803       4.421  53.207 -12.586  0.00  0.00     0.094 C 
ATOM      7  O2S IDS d 803       5.740  49.824 -14.020  0.00  0.00    -0.572 OA
ATOM      8  O3  IDS d 803       5.395  54.015 -11.959  0.00  0.00    -0.390 OA
ATOM      9  C4  IDS d 803       3.092  53.953 -12.702  0.00  0.00     0.103 C 
ATOM     10  C6  IDS d 803       1.953  55.860 -13.842  0.00  0.00     0.206 C 
ATOM     11  O61 IDS d 803       1.645  56.776 -13.049  0.00  0.00    -0.646 OA
ATOM     12  C5  IDS d 803       3.279  55.142 -13.647  0.00  0.00     0.152 C 
ATOM     13  O2  IDS d 803       4.015  51.779 -14.517  0.00  0.00    -0.244 OA
ATOM     14  O62 IDS d 803       1.229  55.530 -14.806  0.00  0.00    -0.646 OA
ATOM     15  O1S IDS d 803       3.597  49.190 -14.923  0.00  0.00    -0.572 OA
ATOM     16  H   IDS d 803       5.860  52.336 -13.879  0.00  0.00     0.097 H 
ATOM     17  H   IDS d 803       5.174  53.630 -15.904  0.00  0.00     0.133 H 
ATOM     18  H   IDS d 803       4.281  52.338 -11.979  0.00  0.00     0.091 H 
ATOM     19  H   IDS d 803       5.543  54.814 -12.490  0.00  0.00     0.210 HD
ATOM     20  H   IDS d 803       2.786  54.295 -11.736  0.00  0.00     0.092 H 
ATOM     21  H   IDS d 803       4.002  55.806 -13.224  0.00  0.00     0.104 H 
ATOM     22  O3  SGN d 802      -0.725  50.162 -14.389  0.00  0.00    -0.391 OA
ATOM     23  O4  SGN d 802      -2.103  52.579 -14.843  0.00  0.00    -0.348 OA
ATOM     24  S1  SGN d 802       2.263  49.250 -11.627  0.00  0.00     0.156 S 
ATOM     25  O5S SGN d 802      -4.349  54.115  -9.711  0.00  0.00    -0.572 OA
ATOM     26  N   SGN d 802       1.712  50.285 -12.950  0.00  0.00    -0.210 NA
ATOM     27  O3S SGN d 802       3.122  50.034 -10.721  0.00  0.00    -0.296 OA
ATOM     28  C6  SGN d 802      -1.869  54.641 -12.754  0.00  0.00     0.067 C 
ATOM     29  O5  SGN d 802       0.078  53.457 -12.020  0.00  0.00    -0.349 OA
ATOM     30  C2  SGN d 802       0.630  51.215 -12.704  0.00  0.00     0.081 C 
ATOM     31  O1S SGN d 802       3.031  48.119 -12.179  0.00  0.00    -0.296 OA
ATOM     32  O1  SGN d 802       2.085  53.080 -13.222  0.00  0.00    -0.348 OA
ATOM     33  C4  SGN d 802      -1.336  52.369 -13.656  0.00  0.00     0.095 C 
ATOM     34  O6  SGN d 802      -2.528  54.070 -11.626  0.00  0.00    -0.254 OA
ATOM     35  C5  SGN d 802      -0.750  53.698 -13.170  0.00  0.00     0.091 C 
ATOM     36  O4S SGN d 802      -4.963  55.094 -11.830  0.00  0.00    -0.572 OA
ATOM     37  C1  SGN d 802       1.180  52.563 -12.243  0.00  0.00     0.150 C 
ATOM     38  O6S SGN d 802      -3.405  56.232 -10.376  0.00  0.00    -0.572 OA
ATOM     39  O2S SGN d 802       1.097  48.739 -10.880  0.00  0.00    -0.296 OA
ATOM     40  S2  SGN d 802      -3.869  54.915 -10.854  0.00  0.00     0.251 S 
ATOM     41  C3  SGN d 802      -0.202  51.401 -13.966  0.00  0.00     0.083 C 
ATOM     42  H   SGN d 802       0.005  49.553 -14.584  0.00  0.00     0.210 HD
ATOM     43  H   SGN d 802       1.412  49.670 -13.706  0.00  0.00     0.140 HD
ATOM     44  H   SGN d 802       3.888  50.369 -11.211  0.00  0.00     0.231 HD
ATOM     45  H   SGN d 802      -2.563  54.759 -13.559  0.00  0.00     0.080 H 
ATOM     46  H   SGN d 802      -1.472  55.602 -12.504  0.00  0.00     0.080 H 
ATOM     47  H   SGN d 802       0.008  50.813 -11.932  0.00  0.00     0.076 H 
ATOM     48  H   SGN d 802       2.464  47.603 -12.775  0.00  0.00     0.231 HD
ATOM     49  H   SGN d 802      -1.966  51.964 -12.892  0.00  0.00     0.091 H 
ATOM     50  H   SGN d 802      -0.180  54.134 -13.964  0.00  0.00     0.090 H 
ATOM     51  H   SGN d 802       1.723  52.452 -11.327  0.00  0.00     0.131 H 
ATOM     52  H   SGN d 802       0.532  48.223 -11.477  0.00  0.00     0.231 HD
ATOM     53  H   SGN d 802       0.409  51.795 -14.752  0.00  0.00     0.089 H 
ATOM     54  O1  SGN d 804       8.791  58.344 -15.404  0.00  0.00    -0.369 OA
ATOM     55  C5  SGN d 804       8.032  55.576 -15.736  0.00  0.00     0.091 C 
ATOM     56  O6  SGN d 804       8.078  53.704 -17.268  0.00  0.00    -0.254 OA
ATOM     57  O6S SGN d 804       8.228  51.948 -19.254  0.00  0.00    -0.572 OA
ATOM     58  C1  SGN d 804       8.157  57.833 -16.578  0.00  0.00     0.147 C 
ATOM     59  N   SGN d 804       6.300  59.367 -16.177  0.00  0.00    -0.210 NA
ATOM     60  C4  SGN d 804       6.509  55.656 -15.629  0.00  0.00     0.095 C 
ATOM     61  O5S SGN d 804       7.685  51.087 -17.070  0.00  0.00    -0.572 OA
ATOM     62  O3S SGN d 804       7.116  60.036 -18.613  0.00  0.00    -0.296 OA
ATOM     63  S1  SGN d 804       6.561  60.635 -17.382  0.00  0.00     0.156 S 
ATOM     64  S2  SGN d 804       8.497  52.073 -17.809  0.00  0.00     0.251 S 
ATOM     65  O3  SGN d 804       4.705  57.213 -15.286  0.00  0.00    -0.391 OA
ATOM     66  O1S SGN d 804       7.510  61.630 -16.847  0.00  0.00    -0.296 OA
ATOM     67  O5  SGN d 804       8.482  56.449 -16.785  0.00  0.00    -0.350 OA
ATOM     68  C3  SGN d 804       6.109  57.102 -15.353  0.00  0.00     0.083 C 
ATOM     69  C6  SGN d 804       8.513  54.150 -15.985  0.00  0.00     0.067 C 
ATOM     70  O2S SGN d 804       5.280  61.297 -17.692  0.00  0.00    -0.296 OA
ATOM     71  C2  SGN d 804       6.639  57.988 -16.472  0.00  0.00     0.081 C 
ATOM     72  O4S SGN d 804       9.926  51.819 -17.551  0.00  0.00    -0.572 OA
ATOM     73  O4  SGN d 804       6.058  54.831 -14.553  0.00  0.00    -0.348 OA
ATOM     74  H   SGN d 804       8.555  59.278 -15.289  0.00  0.00     0.212 HD
ATOM     75  H   SGN d 804       8.449  55.888 -14.801  0.00  0.00     0.090 H 
ATOM     76  H   SGN d 804       8.517  58.398 -17.413  0.00  0.00     0.131 H 
ATOM     77  H   SGN d 804       6.841  59.631 -15.354  0.00  0.00     0.140 HD
ATOM     78  H   SGN d 804       6.065  55.320 -16.543  0.00  0.00     0.091 H 
ATOM     79  H   SGN d 804       7.959  59.602 -18.409  0.00  0.00     0.231 HD
ATOM     80  H   SGN d 804       4.369  56.648 -14.572  0.00  0.00     0.210 HD
ATOM     81  H   SGN d 804       8.353  61.196 -16.642  0.00  0.00     0.231 HD
ATOM     82  H   SGN d 804       6.525  57.412 -14.416  0.00  0.00     0.089 H 
ATOM     83  H   SGN d 804       8.112  53.504 -15.231  0.00  0.00     0.080 H 
ATOM     84  H   SGN d 804       9.582  54.129 -15.949  0.00  0.00     0.080 H 
ATOM     85  H   SGN d 804       4.655  60.644 -18.045  0.00  0.00     0.231 HD
ATOM     86  H   SGN d 804       6.199  57.702 -17.404  0.00  0.00     0.076 H 
ATOM     87  O5  UAP d 801      -3.997  51.303 -14.214  0.00  0.00    -0.311 OA
ATOM     88  O2  UAP d 801      -5.611  53.084 -15.732  0.00  0.00    -0.244 OA
ATOM     89  O1S UAP d 801      -7.871  54.457 -15.935  0.00  0.00    -0.572 OA
ATOM     90  O3S UAP d 801      -5.819  55.719 -15.948  0.00  0.00    -0.572 OA
ATOM     91  C1  UAP d 801      -3.519  52.577 -14.650  0.00  0.00     0.167 C 
ATOM     92  O2S UAP d 801      -6.444  54.417 -17.873  0.00  0.00    -0.572 OA
ATOM     93  C4  UAP d 801      -3.978  50.545 -16.453  0.00  0.00    -0.034 C 
ATOM     94  C3  UAP d 801      -3.971  51.878 -17.020  0.00  0.00     0.086 C 
ATOM     95  O62 UAP d 801      -4.047  48.814 -13.467  0.00  0.00    -0.642 OA
ATOM     96  S   UAP d 801      -6.472  54.476 -16.400  0.00  0.00     0.252 S 
ATOM     97  C6  UAP d 801      -4.018  49.044 -14.698  0.00  0.00     0.233 C 
ATOM     98  C2  UAP d 801      -4.209  52.943 -15.956  0.00  0.00     0.135 C 
ATOM     99  C5  UAP d 801      -3.992  50.308 -15.125  0.00  0.00     0.147 C 
ATOM    100  O61 UAP d 801      -4.026  48.110 -15.534  0.00  0.00    -0.642 OA
ATOM    101  O3  UAP d 801      -2.748  52.110 -17.682  0.00  0.00    -0.389 OA
ATOM    102  H   UAP d 801      -3.744  53.296 -13.890  0.00  0.00     0.134 H 
ATOM    103  H   UAP d 801      -3.971  49.739 -17.097  0.00  0.00     0.085 H 
ATOM    104  H   UAP d 801      -4.775  51.942 -17.725  0.00  0.00     0.093 H 
ATOM    105  H   UAP d 801      -3.799  53.867 -16.304  0.00  0.00     0.097 H 
ATOM    106  H   UAP d 801      -2.019  52.052 -17.045  0.00  0.00     0.210 HD
ENDROOT
TORSDOF 33
ENDMDL
MODEL 2
REMARK VINA RESULT:      -7.1      3.662      7.962
REMARK  0 active torsions:
REMARK  status: ('A' for Active; 'I' for Inactive)
REMARK       I    between atoms: C2_1  and  O2_62 
REMARK       I    between atoms: O3_2  and  C3_65 
REMARK       I    between atoms: O1_3  and  C1_15 
REMARK       I    between atoms: C5_5  and  C6_58 
REMARK       I    between atoms: C1_6  and  O4_70 
REMARK       I    between atoms: S_7  and  O2_62 
REMARK       I    between atoms: O2_9  and  C2_55 
REMARK       I    between atoms: O2_9  and  S_49 
REMARK       I    between atoms: O4_11  and  C1_28 
REMARK       I    between atoms: O4_11  and  C4_41 
REMARK       I    between atoms: O6_12  and  C6_58 
REMARK       I    between atoms: O6_12  and  S2_38 
REMARK       I    between atoms: S1_16  and  N_21 
REMARK       I    between atoms: S1_16  and  O1S_32 
REMARK       I    between atoms: S1_16  and  O2S_53 
REMARK       I    between atoms: S1_16  and  O3S_24 
REMARK       I    between atoms: N_18  and  C2_66 
REMARK       I    between atoms: N_18  and  S1_37 
REMARK       I    between atoms: C3_19  and  O3_27 
REMARK       I    between atoms: N_21  and  C2_31 
REMARK       I    between atoms: C4_22  and  O4_70 
REMARK       I    between atoms: C6_25  and  C5_46 
REMARK       I    between atoms: C6_25  and  O6_45 
REMARK       I    between atoms: O1_33  and  C1_51 
REMARK       I    between atoms: O1_33  and  C4_34 
REMARK       I    between atoms: O3S_35  and  S1_37 
REMARK       I    between atoms: S1_37  and  O1S_42 
REMARK       I    between atoms: S1_37  and  O2S_63 
REMARK       I    between atoms: O3_39  and  C3_54 
REMARK       I    between atoms: C6_40  and  C5_60 
REMARK       I    between atoms: C3_44  and  O3_64 
REMARK       I    between atoms: O6_45  and  S2_59 
REMARK       I    between atoms: C6_50  and  C5_56 
ROOT
ATOM      1  C2  IDS d 803       0.880  59.947 -13.932  0.00  0.00     0.134 C 
ATOM      2  C1  IDS d 803       2.221  59.247 -14.154  0.00  0.00     0.161 C 
ATOM      3  S   IDS d 803       0.155  60.893 -11.441  0.00  0.00     0.252 S 
ATOM      4  O3S IDS d 803       1.427  61.093 -10.720  0.00  0.00    -0.572 OA
ATOM      5  O5  IDS d 803       2.017  57.830 -14.274  0.00  0.00    -0.340 OA
ATOM      6  C3  IDS d 803      -0.103  59.574 -15.042  0.00  0.00     0.094 C 
ATOM      7  O2S IDS d 803      -0.228  62.150 -12.111  0.00  0.00    -0.572 OA
ATOM      8  O3  IDS d 803       0.315  60.098 -16.285  0.00  0.00    -0.390 OA
ATOM      9  C4  IDS d 803      -0.243  58.054 -15.114  0.00  0.00     0.103 C 
ATOM     10  C6  IDS d 803       1.046  55.929 -15.347  0.00  0.00     0.206 C 
ATOM     11  O61 IDS d 803       0.810  55.344 -16.427  0.00  0.00    -0.646 OA
ATOM     12  C5  IDS d 803       1.141  57.446 -15.346  0.00  0.00     0.152 C 
ATOM     13  O2  IDS d 803       0.353  59.617 -12.649  0.00  0.00    -0.244 OA
ATOM     14  O62 IDS d 803       1.233  55.315 -14.274  0.00  0.00    -0.646 OA
ATOM     15  O1S IDS d 803      -0.896  60.503 -10.483  0.00  0.00    -0.572 OA
ATOM     16  H   IDS d 803       1.034  61.006 -13.966  0.00  0.00     0.097 H 
ATOM     17  H   IDS d 803       2.848  59.418 -13.305  0.00  0.00     0.133 H 
ATOM     18  H   IDS d 803      -1.058  60.002 -14.815  0.00  0.00     0.091 H 
ATOM     19  H   IDS d 803       1.181  59.726 -16.517  0.00  0.00     0.210 HD
ATOM     20  H   IDS d 803      -0.900  57.791 -15.916  0.00  0.00     0.092 H 
ATOM     21  H   IDS d 803       1.516  57.795 -16.285  0.00  0.00     0.104 H 
ATOM     22  O3  SGN d 802      -2.763  56.453 -10.331  0.00  0.00    -0.391 OA
ATOM     23  O4  SGN d 802      -1.812  53.987 -11.311  0.00  0.00    -0.348 OA
ATOM     24  S1  SGN d 802      -3.848  59.921 -12.378  0.00  0.00     0.156 S 
ATOM     25  O5S SGN d 802      -5.734  52.208 -15.209  0.00  0.00    -0.572 OA
ATOM     26  N   SGN d 802      -2.612  58.701 -12.049  0.00  0.00    -0.210 NA
ATOM     27  O3S SGN d 802      -3.696  60.408 -13.761  0.00  0.00    -0.296 OA
ATOM     28  C6  SGN d 802      -2.132  53.506 -14.199  0.00  0.00     0.067 C 
ATOM     29  O5  SGN d 802      -2.380  55.878 -14.410  0.00  0.00    -0.349 OA
ATOM     30  C2  SGN d 802      -2.801  57.359 -12.559  0.00  0.00     0.081 C 
ATOM     31  O1S SGN d 802      -3.688  61.045 -11.438  0.00  0.00    -0.296 OA
ATOM     32  O1  SGN d 802      -0.788  57.554 -13.889  0.00  0.00    -0.348 OA
ATOM     33  C4  SGN d 802      -2.422  54.948 -12.175  0.00  0.00     0.095 C 
ATOM     34  O6  SGN d 802      -3.543  53.435 -14.386  0.00  0.00    -0.254 OA
ATOM     35  C5  SGN d 802      -1.809  54.856 -13.576  0.00  0.00     0.091 C 
ATOM     36  O4S SGN d 802      -3.984  50.824 -14.288  0.00  0.00    -0.572 OA
ATOM     37  C1  SGN d 802      -2.178  57.222 -13.946  0.00  0.00     0.150 C 
ATOM     38  O6S SGN d 802      -3.719  51.818 -16.474  0.00  0.00    -0.572 OA
ATOM     39  O2S SGN d 802      -5.188  59.324 -12.212  0.00  0.00    -0.296 OA
ATOM     40  S2  SGN d 802      -4.275  52.009 -15.120  0.00  0.00     0.251 S 
ATOM     41  C3  SGN d 802      -2.181  56.342 -11.611  0.00  0.00     0.083 C 
ATOM     42  H   SGN d 802      -2.605  57.344  -9.981  0.00  0.00     0.210 HD
ATOM     43  H   SGN d 802      -2.527  58.627 -11.036  0.00  0.00     0.140 HD
ATOM     44  H   SGN d 802      -2.816  60.800 -13.871  0.00  0.00     0.231 HD
ATOM     45  H   SGN d 802      -1.811  52.720 -13.549  0.00  0.00     0.080 H 
ATOM     46  H   SGN d 802      -1.627  53.399 -15.136  0.00  0.00     0.080 H 
ATOM     47  H   SGN d 802      -3.852  57.172 -12.632  0.00  0.00     0.076 H 
ATOM     48  H   SGN d 802      -3.788  60.723 -10.529  0.00  0.00     0.231 HD
ATOM     49  H   SGN d 802      -3.472  54.754 -12.239  0.00  0.00     0.091 H 
ATOM     50  H   SGN d 802      -0.749  54.978 -13.497  0.00  0.00     0.090 H 
ATOM     51  H   SGN d 802      -2.644  57.897 -14.634  0.00  0.00     0.131 H 
ATOM     52  H   SGN d 802      -5.288  59.004 -11.301  0.00  0.00     0.231 HD
ATOM     53  H   SGN d 802      -1.130  56.522 -11.519  0.00  0.00     0.089 H 
ATOM     54  O1  SGN d 804       6.610  60.176 -17.869  0.00  0.00    -0.369 OA
ATOM     55  C5  SGN d 804       5.057  60.877 -15.535  0.00  0.00     0.091 C 
ATOM     56  O6  SGN d 804       5.204  61.596 -13.230  0.00  0.00    -0.254 OA
ATOM     57  O6S SGN d 804       5.785  62.264 -10.727  0.00  0.00    -0.572 OA
ATOM     58  C1  SGN d 804       6.896  59.694 -16.554  0.00  0.00     0.147 C 
ATOM     59  N   SGN d 804       6.552  57.419 -17.372  0.00  0.00    -0.210 NA
ATOM     60  C4  SGN d 804       4.320  59.569 -15.247  0.00  0.00     0.095 C 
ATOM     61  O5S SGN d 804       3.517  62.623 -11.456  0.00  0.00    -0.572 OA
ATOM     62  O3S SGN d 804       9.027  57.346 -16.416  0.00  0.00    -0.296 OA
ATOM     63  S1  SGN d 804       8.199  56.789 -17.504  0.00  0.00     0.156 S 
ATOM     64  S2  SGN d 804       4.935  62.681 -11.859  0.00  0.00     0.251 S 
ATOM     65  O3  SGN d 804       4.055  57.317 -16.056  0.00  0.00    -0.391 OA
ATOM     66  O1S SGN d 804       8.769  57.180 -18.807  0.00  0.00    -0.296 OA
ATOM     67  O5  SGN d 804       6.473  60.633 -15.553  0.00  0.00    -0.350 OA
ATOM     68  C3  SGN d 804       4.691  58.548 -16.318  0.00  0.00     0.083 C 
ATOM     69  C6  SGN d 804       4.714  61.962 -14.519  0.00  0.00     0.067 C 
ATOM     70  O2S SGN d 804       8.177  55.317 -17.401  0.00  0.00    -0.296 OA
ATOM     71  C2  SGN d 804       6.202  58.352 -16.318  0.00  0.00     0.081 C 
ATOM     72  O4S SGN d 804       5.276  64.062 -12.248  0.00  0.00    -0.572 OA
ATOM     73  O4  SGN d 804       2.910  59.793 -15.281  0.00  0.00    -0.348 OA
ATOM     74  H   SGN d 804       6.905  59.524 -18.524  0.00  0.00     0.212 HD
ATOM     75  H   SGN d 804       4.740  61.234 -16.493  0.00  0.00     0.090 H 
ATOM     76  H   SGN d 804       7.956  59.567 -16.478  0.00  0.00     0.131 H 
ATOM     77  H   SGN d 804       6.347  57.886 -18.255  0.00  0.00     0.140 HD
ATOM     78  H   SGN d 804       4.598  59.205 -14.280  0.00  0.00     0.091 H 
ATOM     79  H   SGN d 804       9.042  58.313 -16.484  0.00  0.00     0.231 HD
ATOM     80  H   SGN d 804       3.093  57.443 -16.057  0.00  0.00     0.210 HD
ATOM     81  H   SGN d 804       8.784  58.148 -18.876  0.00  0.00     0.231 HD
ATOM     82  H   SGN d 804       4.371  58.906 -17.275  0.00  0.00     0.089 H 
ATOM     83  H   SGN d 804       3.652  62.081 -14.473  0.00  0.00     0.080 H 
ATOM     84  H   SGN d 804       5.170  62.882 -14.820  0.00  0.00     0.080 H 
ATOM     85  H   SGN d 804       7.802  55.059 -16.544  0.00  0.00     0.231 HD
ATOM     86  H   SGN d 804       6.520  57.963 -15.374  0.00  0.00     0.076 H 
ATOM     87  O5  UAP d 801      -3.801  53.142 -10.342  0.00  0.00    -0.311 OA
ATOM     88  O2  UAP d 801      -2.525  50.613 -10.104  0.00  0.00    -0.244 OA
ATOM     89  O1S UAP d 801      -2.704  47.974 -10.295  0.00  0.00    -0.572 OA
ATOM     90  O3S UAP d 801      -1.093  49.066 -11.713  0.00  0.00    -0.572 OA
ATOM     91  C1  UAP d 801      -2.604  52.825 -11.054  0.00  0.00     0.167 C 
ATOM     92  O2S UAP d 801      -0.675  48.861  -9.352  0.00  0.00    -0.572 OA
ATOM     93  C4  UAP d 801      -2.577  53.151  -8.318  0.00  0.00    -0.034 C 
ATOM     94  C3  UAP d 801      -1.473  52.384  -8.854  0.00  0.00     0.086 C 
ATOM     95  O62 UAP d 801      -5.658  54.490  -9.119  0.00  0.00    -0.642 OA
ATOM     96  S   UAP d 801      -1.716  49.065 -10.377  0.00  0.00     0.252 S 
ATOM     97  C6  UAP d 801      -4.640  54.183  -8.457  0.00  0.00     0.233 C 
ATOM     98  C2  UAP d 801      -1.792  51.830 -10.239  0.00  0.00     0.135 C 
ATOM     99  C5  UAP d 801      -3.662  53.492  -9.045  0.00  0.00     0.147 C 
ATOM    100  O61 UAP d 801      -4.529  54.503  -7.250  0.00  0.00    -0.642 OA
ATOM    101  O3  UAP d 801      -0.313  53.185  -8.902  0.00  0.00    -0.389 OA
ATOM    102  H   UAP d 801      -2.879  52.405 -11.998  0.00  0.00     0.134 H 
ATOM    103  H   UAP d 801      -2.532  53.453  -7.332  0.00  0.00     0.085 H 
ATOM    104  H   UAP d 801      -1.303  51.550  -8.205  0.00  0.00     0.093 H 
ATOM    105  H   UAP d 801      -0.872  51.648 -10.752  0.00  0.00     0.097 H 
ATOM    106  H   UAP d 801      -0.465  53.941  -9.490  0.00  0.00     0.210 HD
ENDROOT
TORSDOF 33
ENDMDL
MODEL 3
REMARK VINA RESULT:      -6.9      4.454      9.448
REMARK  0 active torsions:
REMARK  status: ('A' for Active; 'I' for Inactive)
REMARK       I    between atoms: C2_1  and  O2_62 
REMARK       I    between atoms: O3_2  and  C3_65 
REMARK       I    between atoms: O1_3  and  C1_15 
REMARK       I    between atoms: C5_5  and  C6_58 
REMARK       I    between atoms: C1_6  and  O4_70 
REMARK       I    between atoms: S_7  and  O2_62 
REMARK       I    between atoms: O2_9  and  C2_55 
REMARK       I    between atoms: O2_9  and  S_49 
REMARK       I    between atoms: O4_11  and  C1_28 
REMARK       I    between atoms: O4_11  and  C4_41 
REMARK       I    between atoms: O6_12  and  C6_58 
REMARK       I    between atoms: O6_12  and  S2_38 
REMARK       I    between atoms: S1_16  and  N_21 
REMARK       I    between atoms: S1_16  and  O1S_32 
REMARK       I    between atoms: S1_16  and  O2S_53 
REMARK       I    between atoms: S1_16  and  O3S_24 
REMARK       I    between atoms: N_18  and  C2_66 
REMARK       I    between atoms: N_18  and  S1_37 
REMARK       I    between atoms: C3_19  and  O3_27 
REMARK       I    between atoms: N_21  and  C2_31 
REMARK       I    between atoms: C4_22  and  O4_70 
REMARK       I    between atoms: C6_25  and  C5_46 
REMARK       I    between atoms: C6_25  and  O6_45 
REMARK       I    between atoms: O1_33  and  C1_51 
REMARK       I    between atoms: O1_33  and  C4_34 
REMARK       I    between atoms: O3S_35  and  S1_37 
REMARK       I    between atoms: S1_37  and  O1S_42 
REMARK       I    between atoms: S1_37  and  O2S_63 
REMARK       I    between atoms: O3_39  and  C3_54 
REMARK       I    between atoms: C6_40  and  C5_60 
REMARK       I    between atoms: C3_44  and  O3_64 
REMARK       I    between atoms: O6_45  and  S2_59 
REMARK       I    between atoms: C6_50  and  C5_56 
ROOT
ATOM      1  C2  IDS d 803      -2.544  57.214 -10.341  0.00  0.00     0.134 C 
ATOM      2  C1  IDS d 803      -1.727  58.103 -11.279  0.00  0.00     0.161 C 
ATOM      3  S   IDS d 803      -1.608  56.541  -7.832  0.00  0.00     0.252 S 
ATOM      4  O3S IDS d 803      -0.643  57.603  -7.483  0.00  0.00    -0.572 OA
ATOM      5  O5  IDS d 803      -1.128  57.302 -12.311  0.00  0.00    -0.340 OA
ATOM      6  C3  IDS d 803      -3.564  56.399 -11.137  0.00  0.00     0.094 C 
ATOM      7  O2S IDS d 803      -2.941  56.908  -7.316  0.00  0.00    -0.572 OA
ATOM      8  O3  IDS d 803      -4.549  57.237 -11.702  0.00  0.00    -0.390 OA
ATOM      9  C4  IDS d 803      -2.846  55.598 -12.223  0.00  0.00     0.103 C 
ATOM     10  C6  IDS d 803      -1.281  55.795 -14.158  0.00  0.00     0.206 C 
ATOM     11  O61 IDS d 803      -1.834  55.528 -15.248  0.00  0.00    -0.646 OA
ATOM     12  C5  IDS d 803      -2.067  56.569 -13.113  0.00  0.00     0.152 C 
ATOM     13  O2  IDS d 803      -1.683  56.362  -9.589  0.00  0.00    -0.244 OA
ATOM     14  O62 IDS d 803      -0.100  55.475 -13.905  0.00  0.00    -0.646 OA
ATOM     15  O1S IDS d 803      -1.177  55.268  -7.225  0.00  0.00    -0.572 OA
ATOM     16  H   IDS d 803      -3.078  57.836  -9.654  0.00  0.00     0.097 H 
ATOM     17  H   IDS d 803      -0.939  58.565 -10.723  0.00  0.00     0.133 H 
ATOM     18  H   IDS d 803      -4.057  55.720 -10.472  0.00  0.00     0.091 H 
ATOM     19  H   IDS d 803      -4.130  57.864 -12.312  0.00  0.00     0.210 HD
ATOM     20  H   IDS d 803      -3.563  55.059 -12.806  0.00  0.00     0.092 H 
ATOM     21  H   IDS d 803      -2.761  57.232 -13.586  0.00  0.00     0.104 H 
ATOM     22  O3  SGN d 802       0.320  51.770  -9.556  0.00  0.00    -0.391 OA
ATOM     23  O4  SGN d 802       1.390  51.660 -12.162  0.00  0.00    -0.348 OA
ATOM     24  S1  SGN d 802      -3.511  52.795  -8.265  0.00  0.00     0.156 S 
ATOM     25  O5S SGN d 802      -2.142  48.177 -15.184  0.00  0.00    -0.572 OA
ATOM     26  N   SGN d 802      -2.064  53.251  -9.173  0.00  0.00    -0.210 NA
ATOM     27  O3S SGN d 802      -4.694  53.411  -8.893  0.00  0.00    -0.296 OA
ATOM     28  C6  SGN d 802      -0.543  51.710 -14.383  0.00  0.00     0.067 C 
ATOM     29  O5  SGN d 802      -2.099  52.615 -12.804  0.00  0.00    -0.349 OA
ATOM     30  C2  SGN d 802      -1.777  52.572 -10.418  0.00  0.00     0.081 C 
ATOM     31  O1S SGN d 802      -3.386  53.268  -6.875  0.00  0.00    -0.296 OA
ATOM     32  O1  SGN d 802      -1.942  54.664 -11.626  0.00  0.00    -0.348 OA
ATOM     33  C4  SGN d 802      -0.018  51.731 -11.936  0.00  0.00     0.095 C 
ATOM     34  O6  SGN d 802      -1.260  50.485 -14.248  0.00  0.00    -0.254 OA
ATOM     35  C5  SGN d 802      -0.694  52.488 -13.084  0.00  0.00     0.091 C 
ATOM     36  O4S SGN d 802       0.042  48.894 -15.919  0.00  0.00    -0.572 OA
ATOM     37  C1  SGN d 802      -2.414  53.315 -11.591  0.00  0.00     0.150 C 
ATOM     38  O6S SGN d 802      -1.940  49.992 -16.758  0.00  0.00    -0.572 OA
ATOM     39  O2S SGN d 802      -3.657  51.326  -8.277  0.00  0.00    -0.296 OA
ATOM     40  S2  SGN d 802      -1.326  49.338 -15.585  0.00  0.00     0.251 S 
ATOM     41  C3  SGN d 802      -0.272  52.468 -10.629  0.00  0.00     0.083 C 
ATOM     42  H   SGN d 802       0.153  52.247  -8.728  0.00  0.00     0.210 HD
ATOM     43  H   SGN d 802      -1.265  53.100  -8.558  0.00  0.00     0.140 HD
ATOM     44  H   SGN d 802      -4.598  54.376  -8.885  0.00  0.00     0.231 HD
ATOM     45  H   SGN d 802       0.491  51.507 -14.566  0.00  0.00     0.080 H 
ATOM     46  H   SGN d 802      -0.929  52.278 -15.203  0.00  0.00     0.080 H 
ATOM     47  H   SGN d 802      -2.191  51.586 -10.368  0.00  0.00     0.076 H 
ATOM     48  H   SGN d 802      -2.607  52.862  -6.463  0.00  0.00     0.231 HD
ATOM     49  H   SGN d 802      -0.422  50.741 -11.884  0.00  0.00     0.091 H 
ATOM     50  H   SGN d 802      -0.237  53.450 -13.179  0.00  0.00     0.090 H 
ATOM     51  H   SGN d 802      -3.478  53.348 -11.479  0.00  0.00     0.131 H 
ATOM     52  H   SGN d 802      -2.879  50.921  -7.864  0.00  0.00     0.231 HD
ATOM     53  H   SGN d 802       0.159  53.447 -10.672  0.00  0.00     0.089 H 
ATOM     54  O1  SGN d 804      -2.941  63.048 -14.107  0.00  0.00    -0.369 OA
ATOM     55  C5  SGN d 804      -2.349  61.574 -11.693  0.00  0.00     0.091 C 
ATOM     56  O6  SGN d 804      -1.037  61.593  -9.661  0.00  0.00    -0.254 OA
ATOM     57  O6S SGN d 804       0.636  61.928  -7.627  0.00  0.00    -0.572 OA
ATOM     58  C1  SGN d 804      -1.616  62.828 -13.620  0.00  0.00     0.147 C 
ATOM     59  N   SGN d 804      -1.106  61.647 -15.696  0.00  0.00    -0.210 NA
ATOM     60  C4  SGN d 804      -1.754  60.282 -12.256  0.00  0.00     0.095 C 
ATOM     61  O5S SGN d 804      -1.080  60.257  -7.368  0.00  0.00    -0.572 OA
ATOM     62  O3S SGN d 804       0.707  63.585 -15.646  0.00  0.00    -0.296 OA
ATOM     63  S1  SGN d 804      -0.128  62.817 -16.591  0.00  0.00     0.156 S 
ATOM     64  S2  SGN d 804      -0.772  61.593  -7.912  0.00  0.00     0.251 S 
ATOM     65  O3  SGN d 804      -1.216  59.179 -14.326  0.00  0.00    -0.391 OA
ATOM     66  O1S SGN d 804      -1.018  63.738 -17.324  0.00  0.00    -0.296 OA
ATOM     67  O5  SGN d 804      -1.603  62.698 -12.189  0.00  0.00    -0.350 OA
ATOM     68  C3  SGN d 804      -1.794  60.343 -13.779  0.00  0.00     0.083 C 
ATOM     69  C6  SGN d 804      -2.370  61.577 -10.168  0.00  0.00     0.067 C 
ATOM     70  O2S SGN d 804       0.740  62.108 -17.550  0.00  0.00    -0.296 OA
ATOM     71  C2  SGN d 804      -1.021  61.568 -14.250  0.00  0.00     0.081 C 
ATOM     72  O4S SGN d 804      -1.654  62.592  -7.280  0.00  0.00    -0.572 OA
ATOM     73  O4  SGN d 804      -2.523  59.164 -11.809  0.00  0.00    -0.348 OA
ATOM     74  H   SGN d 804      -2.920  63.132 -15.074  0.00  0.00     0.212 HD
ATOM     75  H   SGN d 804      -3.366  61.642 -12.020  0.00  0.00     0.090 H 
ATOM     76  H   SGN d 804      -1.024  63.677 -13.891  0.00  0.00     0.131 H 
ATOM     77  H   SGN d 804      -2.080  61.849 -15.920  0.00  0.00     0.140 HD
ATOM     78  H   SGN d 804      -0.744  60.175 -11.918  0.00  0.00     0.091 H 
ATOM     79  H   SGN d 804       0.137  64.052 -15.016  0.00  0.00     0.231 HD
ATOM     80  H   SGN d 804      -1.710  58.400 -14.026  0.00  0.00     0.210 HD
ATOM     81  H   SGN d 804      -1.589  64.205 -16.694  0.00  0.00     0.231 HD
ATOM     82  H   SGN d 804      -2.812  60.409 -14.104  0.00  0.00     0.089 H 
ATOM     83  H   SGN d 804      -2.871  60.699  -9.819  0.00  0.00     0.080 H 
ATOM     84  H   SGN d 804      -2.886  62.450  -9.826  0.00  0.00     0.080 H 
ATOM     85  H   SGN d 804       1.325  61.502 -17.070  0.00  0.00     0.231 HD
ATOM     86  H   SGN d 804       0.004  61.488 -13.955  0.00  0.00     0.076 H 
ATOM     87  O5  UAP d 801       1.664  49.361 -11.661  0.00  0.00    -0.311 OA
ATOM     88  O2  UAP d 801       3.779  49.273 -13.558  0.00  0.00    -0.244 OA
ATOM     89  O1S UAP d 801       5.006  47.951 -15.502  0.00  0.00    -0.572 OA
ATOM     90  O3S UAP d 801       4.112  50.119 -16.050  0.00  0.00    -0.572 OA
ATOM     91  C1  UAP d 801       1.859  50.393 -12.630  0.00  0.00     0.167 C 
ATOM     92  O2S UAP d 801       6.088  49.941 -14.689  0.00  0.00    -0.572 OA
ATOM     93  C4  UAP d 801       3.639  50.046 -10.556  0.00  0.00    -0.034 C 
ATOM     94  C3  UAP d 801       4.165  50.758 -11.701  0.00  0.00     0.086 C 
ATOM     95  O62 UAP d 801       0.978  48.128  -9.477  0.00  0.00    -0.642 OA
ATOM     96  S   UAP d 801       4.788  49.323 -15.009  0.00  0.00     0.252 S 
ATOM     97  C6  UAP d 801       2.066  48.748  -9.469  0.00  0.00     0.233 C 
ATOM     98  C2  UAP d 801       3.342  50.490 -12.957  0.00  0.00     0.135 C 
ATOM     99  C5  UAP d 801       2.457  49.395 -10.569  0.00  0.00     0.147 C 
ATOM    100  O61 UAP d 801       2.799  48.761  -8.453  0.00  0.00    -0.642 OA
ATOM    101  O3  UAP d 801       4.205  52.141 -11.426  0.00  0.00    -0.389 OA
ATOM    102  H   UAP d 801       1.295  50.141 -13.503  0.00  0.00     0.134 H 
ATOM    103  H   UAP d 801       4.196  50.035  -9.687  0.00  0.00     0.085 H 
ATOM    104  H   UAP d 801       5.157  50.403 -11.886  0.00  0.00     0.093 H 
ATOM    105  H   UAP d 801       3.482  51.305 -13.634  0.00  0.00     0.097 H 
ATOM    106  H   UAP d 801       3.306  52.464 -11.259  0.00  0.00     0.210 HD
ENDROOT
TORSDOF 33
ENDMDL
MODEL 4
REMARK VINA RESULT:      -6.7      2.440      3.209
REMARK  0 active torsions:
REMARK  status: ('A' for Active; 'I' for Inactive)
REMARK       I    between atoms: C2_1  and  O2_62 
REMARK       I    between atoms: O3_2  and  C3_65 
REMARK       I    between atoms: O1_3  and  C1_15 
REMARK       I    between atoms: C5_5  and  C6_58 
REMARK       I    between atoms: C1_6  and  O4_70 
REMARK       I    between atoms: S_7  and  O2_62 
REMARK       I    between atoms: O2_9  and  C2_55 
REMARK       I    between atoms: O2_9  and  S_49 
REMARK       I    between atoms: O4_11  and  C1_28 
REMARK       I    between atoms: O4_11  and  C4_41 
REMARK       I    between atoms: O6_12  and  C6_58 
REMARK       I    between atoms: O6_12  and  S2_38 
REMARK       I    between atoms: S1_16  and  N_21 
REMARK       I    between atoms: S1_16  and  O1S_32 
REMARK       I    between atoms: S1_16  and  O2S_53 
REMARK       I    between atoms: S1_16  and  O3S_24 
REMARK       I    between atoms: N_18  and  C2_66 
REMARK       I    between atoms: N_18  and  S1_37 
REMARK       I    between atoms: C3_19  and  O3_27 
REMARK       I    between atoms: N_21  and  C2_31 
REMARK       I    between atoms: C4_22  and  O4_70 
REMARK       I    between atoms: C6_25  and  C5_46 
REMARK       I    between atoms: C6_25  and  O6_45 
REMARK       I    between atoms: O1_33  and  C1_51 
REMARK       I    between atoms: O1_33  and  C4_34 
REMARK       I    between atoms: O3S_35  and  S1_37 
REMARK       I    between atoms: S1_37  and  O1S_42 
REMARK       I    between atoms: S1_37  and  O2S_63 
REMARK       I    between atoms: O3_39  and  C3_54 
REMARK       I    between atoms: C6_40  and  C5_60 
REMARK       I    between atoms: C3_44  and  O3_64 
REMARK       I    between atoms: O6_45  and  S2_59 
REMARK       I    between atoms: C6_50  and  C5_56 
ROOT
ATOM      1  C2  IDS d 803       4.968  52.490 -15.041  0.00  0.00     0.134 C 
ATOM      2  C1  IDS d 803       5.360  53.687 -15.907  0.00  0.00     0.161 C 
ATOM      3  S   IDS d 803       3.347  50.482 -16.025  0.00  0.00     0.252 S 
ATOM      4  O3S IDS d 803       3.506  50.543 -17.491  0.00  0.00    -0.572 OA
ATOM      5  O5  IDS d 803       4.606  54.843 -15.511  0.00  0.00    -0.340 OA
ATOM      6  C3  IDS d 803       5.127  52.832 -13.559  0.00  0.00     0.094 C 
ATOM      7  O2S IDS d 803       4.321  49.524 -15.469  0.00  0.00    -0.572 OA
ATOM      8  O3  IDS d 803       6.487  53.019 -13.228  0.00  0.00    -0.390 OA
ATOM      9  C4  IDS d 803       4.313  54.083 -13.230  0.00  0.00     0.103 C 
ATOM     10  C6  IDS d 803       3.937  56.462 -13.885  0.00  0.00     0.206 C 
ATOM     11  O61 IDS d 803       4.300  57.265 -12.998  0.00  0.00    -0.646 OA
ATOM     12  C5  IDS d 803       4.781  55.223 -14.136  0.00  0.00     0.152 C 
ATOM     13  O2  IDS d 803       3.632  52.083 -15.331  0.00  0.00    -0.244 OA
ATOM     14  O62 IDS d 803       2.925  56.652 -14.593  0.00  0.00    -0.646 OA
ATOM     15  O1S IDS d 803       1.979  50.041 -15.697  0.00  0.00    -0.572 OA
ATOM     16  H   IDS d 803       5.620  51.672 -15.266  0.00  0.00     0.097 H 
ATOM     17  H   IDS d 803       5.121  53.472 -16.927  0.00  0.00     0.133 H 
ATOM     18  H   IDS d 803       4.761  52.014 -12.975  0.00  0.00     0.091 H 
ATOM     19  H   IDS d 803       6.847  53.757 -13.744  0.00  0.00     0.210 HD
ATOM     20  H   IDS d 803       4.456  54.346 -12.204  0.00  0.00     0.092 H 
ATOM     21  H   IDS d 803       5.811  55.426 -13.928  0.00  0.00     0.104 H 
ATOM     22  O3  SGN d 802      -1.110  52.660 -13.824  0.00  0.00    -0.391 OA
ATOM     23  O4  SGN d 802      -1.280  55.473 -13.731  0.00  0.00    -0.348 OA
ATOM     24  S1  SGN d 802       1.708  50.081 -12.152  0.00  0.00     0.156 S 
ATOM     25  O5S SGN d 802      -1.177  56.885  -8.098  0.00  0.00    -0.572 OA
ATOM     26  N   SGN d 802       1.383  51.469 -13.197  0.00  0.00    -0.210 NA
ATOM     27  O3S SGN d 802       3.030  50.246 -11.520  0.00  0.00    -0.296 OA
ATOM     28  C6  SGN d 802       0.402  56.828 -11.729  0.00  0.00     0.067 C 
ATOM     29  O5  SGN d 802       1.696  54.814 -11.679  0.00  0.00    -0.349 OA
ATOM     30  C2  SGN d 802       0.956  52.713 -12.593  0.00  0.00     0.081 C 
ATOM     31  O1S SGN d 802       1.698  48.847 -12.959  0.00  0.00    -0.296 OA
ATOM     32  O1  SGN d 802       2.922  53.834 -13.453  0.00  0.00    -0.348 OA
ATOM     33  C4  SGN d 802      -0.424  54.747 -12.847  0.00  0.00     0.095 C 
ATOM     34  O6  SGN d 802      -0.136  56.405 -10.479  0.00  0.00    -0.254 OA
ATOM     35  C5  SGN d 802       0.812  55.586 -12.508  0.00  0.00     0.091 C 
ATOM     36  O4S SGN d 802      -1.784  58.392  -9.883  0.00  0.00    -0.572 OA
ATOM     37  C1  SGN d 802       2.162  53.590 -12.266  0.00  0.00     0.150 C 
ATOM     38  O6S SGN d 802       0.434  58.474  -8.931  0.00  0.00    -0.572 OA
ATOM     39  O2S SGN d 802       0.671  49.996 -11.106  0.00  0.00    -0.296 OA
ATOM     40  S2  SGN d 802      -0.690  57.591  -9.298  0.00  0.00     0.251 S 
ATOM     41  C3  SGN d 802       0.014  53.459 -13.530  0.00  0.00     0.083 C 
ATOM     42  H   SGN d 802      -0.821  51.842 -14.258  0.00  0.00     0.210 HD
ATOM     43  H   SGN d 802       0.652  51.187 -13.850  0.00  0.00     0.140 HD
ATOM     44  H   SGN d 802       3.712  50.302 -12.208  0.00  0.00     0.231 HD
ATOM     45  H   SGN d 802      -0.338  57.373 -12.277  0.00  0.00     0.080 H 
ATOM     46  H   SGN d 802       1.247  57.465 -11.573  0.00  0.00     0.080 H 
ATOM     47  H   SGN d 802       0.437  52.486 -11.685  0.00  0.00     0.076 H 
ATOM     48  H   SGN d 802       0.827  48.740 -13.374  0.00  0.00     0.231 HD
ATOM     49  H   SGN d 802      -0.953  54.522 -11.944  0.00  0.00     0.091 H 
ATOM     50  H   SGN d 802       1.296  55.870 -13.419  0.00  0.00     0.090 H 
ATOM     51  H   SGN d 802       2.805  53.096 -11.567  0.00  0.00     0.131 H 
ATOM     52  H   SGN d 802      -0.199  49.887 -11.521  0.00  0.00     0.231 HD
ATOM     53  H   SGN d 802       0.516  53.684 -14.448  0.00  0.00     0.089 H 
ATOM     54  O1  SGN d 804      10.500  56.009 -17.363  0.00  0.00    -0.369 OA
ATOM     55  C5  SGN d 804       8.491  53.941 -17.562  0.00  0.00     0.091 C 
ATOM     56  O6  SGN d 804       7.278  52.535 -19.111  0.00  0.00    -0.254 OA
ATOM     57  O6S SGN d 804       6.090  51.268 -21.119  0.00  0.00    -0.572 OA
ATOM     58  C1  SGN d 804       9.427  56.036 -18.306  0.00  0.00     0.147 C 
ATOM     59  N   SGN d 804       8.659  58.120 -17.291  0.00  0.00    -0.210 NA
ATOM     60  C4  SGN d 804       7.261  54.646 -16.989  0.00  0.00     0.095 C 
ATOM     61  O5S SGN d 804       5.784  50.349 -18.913  0.00  0.00    -0.572 OA
ATOM     62  O3S SGN d 804       9.045  58.795 -19.829  0.00  0.00    -0.296 OA
ATOM     63  S1  SGN d 804       9.162  59.345 -18.464  0.00  0.00     0.156 S 
ATOM     64  S2  SGN d 804       6.742  51.006 -19.823  0.00  0.00     0.251 S 
ATOM     65  O3  SGN d 804       6.535  56.738 -16.045  0.00  0.00    -0.391 OA
ATOM     66  O1S SGN d 804      10.563  59.725 -18.203  0.00  0.00    -0.296 OA
ATOM     67  O5  SGN d 804       9.012  54.708 -18.661  0.00  0.00    -0.350 OA
ATOM     68  C3  SGN d 804       7.660  56.049 -16.544  0.00  0.00     0.083 C 
ATOM     69  C6  SGN d 804       8.178  52.515 -18.006  0.00  0.00     0.067 C 
ATOM     70  O2S SGN d 804       8.300  60.536 -18.338  0.00  0.00    -0.296 OA
ATOM     71  C2  SGN d 804       8.236  56.805 -17.733  0.00  0.00     0.081 C 
ATOM     72  O4S SGN d 804       7.905  50.122 -20.026  0.00  0.00    -0.572 OA
ATOM     73  O4  SGN d 804       6.770  53.917 -15.863  0.00  0.00    -0.348 OA
ATOM     74  H   SGN d 804      10.760  56.917 -17.142  0.00  0.00     0.212 HD
ATOM     75  H   SGN d 804       9.227  53.873 -16.788  0.00  0.00     0.090 H 
ATOM     76  H   SGN d 804       9.782  56.530 -19.187  0.00  0.00     0.131 H 
ATOM     77  H   SGN d 804       9.450  57.976 -16.663  0.00  0.00     0.140 HD
ATOM     78  H   SGN d 804       6.497  54.700 -17.737  0.00  0.00     0.091 H 
ATOM     79  H   SGN d 804       9.612  58.013 -19.912  0.00  0.00     0.231 HD
ATOM     80  H   SGN d 804       6.169  56.255 -15.287  0.00  0.00     0.210 HD
ATOM     81  H   SGN d 804      11.131  58.942 -18.286  0.00  0.00     0.231 HD
ATOM     82  H   SGN d 804       8.394  55.979 -15.768  0.00  0.00     0.089 H 
ATOM     83  H   SGN d 804       7.731  51.982 -17.194  0.00  0.00     0.080 H 
ATOM     84  H   SGN d 804       9.086  52.032 -18.301  0.00  0.00     0.080 H 
ATOM     85  H   SGN d 804       7.378  60.287 -18.509  0.00  0.00     0.231 HD
ATOM     86  H   SGN d 804       7.493  56.906 -18.497  0.00  0.00     0.076 H 
ATOM     87  O5  UAP d 801      -3.319  55.042 -12.605  0.00  0.00    -0.311 OA
ATOM     88  O2  UAP d 801      -4.253  57.581 -13.479  0.00  0.00    -0.244 OA
ATOM     89  O1S UAP d 801      -5.590  59.802 -12.921  0.00  0.00    -0.572 OA
ATOM     90  O3S UAP d 801      -3.267  60.043 -13.510  0.00  0.00    -0.572 OA
ATOM     91  C1  UAP d 801      -2.435  56.044 -13.113  0.00  0.00     0.167 C 
ATOM     92  O2S UAP d 801      -4.888  59.499 -15.204  0.00  0.00    -0.572 OA
ATOM     93  C4  UAP d 801      -4.221  54.760 -14.773  0.00  0.00    -0.034 C 
ATOM     94  C3  UAP d 801      -3.744  56.038 -15.258  0.00  0.00     0.086 C 
ATOM     95  O62 UAP d 801      -4.322  52.726 -11.984  0.00  0.00    -0.642 OA
ATOM     96  S   UAP d 801      -4.511  59.302 -13.792  0.00  0.00     0.252 S 
ATOM     97  C6  UAP d 801      -4.503  53.136 -13.154  0.00  0.00     0.233 C 
ATOM     98  C2  UAP d 801      -3.183  56.895 -14.128  0.00  0.00     0.135 C 
ATOM     99  C5  UAP d 801      -4.006  54.320 -13.515  0.00  0.00     0.147 C 
ATOM    100  O61 UAP d 801      -5.154  52.461 -13.986  0.00  0.00    -0.642 OA
ATOM    101  O3  UAP d 801      -2.765  55.837 -16.253  0.00  0.00    -0.389 OA
ATOM    102  H   UAP d 801      -2.101  56.642 -12.292  0.00  0.00     0.134 H 
ATOM    103  H   UAP d 801      -4.751  54.157 -15.420  0.00  0.00     0.085 H 
ATOM    104  H   UAP d 801      -4.575  56.564 -15.679  0.00  0.00     0.093 H 
ATOM    105  H   UAP d 801      -2.496  57.600 -14.546  0.00  0.00     0.097 H 
ATOM    106  H   UAP d 801      -2.010  55.360 -15.873  0.00  0.00     0.210 HD
ENDROOT
TORSDOF 33
ENDMDL
MODEL 5
REMARK VINA RESULT:      -6.6      3.367     10.194
REMARK  0 active torsions:
REMARK  status: ('A' for Active; 'I' for Inactive)
REMARK       I    between atoms: C2_1  and  O2_62 
REMARK       I    between atoms: O3_2  and  C3_65 
REMARK       I    between atoms: O1_3  and  C1_15 
REMARK       I    between atoms: C5_5  and  C6_58 
REMARK       I    between atoms: C1_6  and  O4_70 
REMARK       I    between atoms: S_7  and  O2_62 
REMARK       I    between atoms: O2_9  and  C2_55 
REMARK       I    between atoms: O2_9  and  S_49 
REMARK       I    between atoms: O4_11  and  C1_28 
REMARK       I    between atoms: O4_11  and  C4_41 
REMARK       I    between atoms: O6_12  and  C6_58 
REMARK       I    between atoms: O6_12  and  S2_38 
REMARK       I    between atoms: S1_16  and  N_21 
REMARK       I    between atoms: S1_16  and  O1S_32 
REMARK       I    between atoms: S1_16  and  O2S_53 
REMARK       I    between atoms: S1_16  and  O3S_24 
REMARK       I    between atoms: N_18  and  C2_66 
REMARK       I    between atoms: N_18  and  S1_37 
REMARK       I    between atoms: C3_19  and  O3_27 
REMARK       I    between atoms: N_21  and  C2_31 
REMARK       I    between atoms: C4_22  and  O4_70 
REMARK       I    between atoms: C6_25  and  C5_46 
REMARK       I    between atoms: C6_25  and  O6_45 
REMARK       I    between atoms: O1_33  and  C1_51 
REMARK       I    between atoms: O1_33  and  C4_34 
REMARK       I    between atoms: O3S_35  and  S1_37 
REMARK       I    between atoms: S1_37  and  O1S_42 
REMARK       I    between atoms: S1_37  and  O2S_63 
REMARK       I    between atoms: O3_39  and  C3_54 
REMARK       I    between atoms: C6_40  and  C5_60 
REMARK       I    between atoms: C3_44  and  O3_64 
REMARK       I    between atoms: O6_45  and  S2_59 
REMARK       I    between atoms: C6_50  and  C5_56 
ROOT
ATOM      1  C2  IDS d 803       1.909  50.988 -12.940  0.00  0.00     0.134 C 
ATOM      2  C1  IDS d 803       0.895  51.504 -11.919  0.00  0.00     0.161 C 
ATOM      3  S   IDS d 803       4.626  51.223 -12.503  0.00  0.00     0.252 S 
ATOM      4  O3S IDS d 803       4.772  51.335 -11.039  0.00  0.00    -0.572 OA
ATOM      5  O5  IDS d 803       0.316  52.733 -12.385  0.00  0.00    -0.340 OA
ATOM      6  C3  IDS d 803       1.257  50.860 -14.316  0.00  0.00     0.094 C 
ATOM      7  O2S IDS d 803       4.737  49.805 -12.897  0.00  0.00    -0.572 OA
ATOM      8  O3  IDS d 803       0.276  49.845 -14.318  0.00  0.00    -0.390 OA
ATOM      9  C4  IDS d 803       0.649  52.201 -14.724  0.00  0.00     0.103 C 
ATOM     10  C6  IDS d 803      -0.922  53.998 -13.990  0.00  0.00     0.206 C 
ATOM     11  O61 IDS d 803      -1.943  54.063 -14.709  0.00  0.00    -0.646 OA
ATOM     12  C5  IDS d 803      -0.355  52.629 -13.651  0.00  0.00     0.152 C 
ATOM     13  O2  IDS d 803       3.046  51.848 -12.990  0.00  0.00    -0.244 OA
ATOM     14  O62 IDS d 803      -0.365  55.012 -13.517  0.00  0.00    -0.646 OA
ATOM     15  O1S IDS d 803       5.688  52.003 -13.164  0.00  0.00    -0.572 OA
ATOM     16  H   IDS d 803       2.241  50.017 -12.636  0.00  0.00     0.097 H 
ATOM     17  H   IDS d 803       1.401  51.708 -10.998  0.00  0.00     0.133 H 
ATOM     18  H   IDS d 803       2.007  50.586 -15.029  0.00  0.00     0.091 H 
ATOM     19  H   IDS d 803      -0.420  50.066 -13.679  0.00  0.00     0.210 HD
ATOM     20  H   IDS d 803       0.157  52.102 -15.669  0.00  0.00     0.092 H 
ATOM     21  H   IDS d 803      -1.139  51.903 -13.606  0.00  0.00     0.104 H 
ATOM     22  O3  SGN d 802       4.966  55.748 -15.480  0.00  0.00    -0.391 OA
ATOM     23  O4  SGN d 802       2.786  57.535 -15.392  0.00  0.00    -0.348 OA
ATOM     24  S1  SGN d 802       5.120  51.753 -16.665  0.00  0.00     0.156 S 
ATOM     25  O5S SGN d 802       0.500  57.513 -20.732  0.00  0.00    -0.572 OA
ATOM     26  N   SGN d 802       4.393  52.977 -15.617  0.00  0.00    -0.210 NA
ATOM     27  O3S SGN d 802       4.119  50.714 -16.968  0.00  0.00    -0.296 OA
ATOM     28  C6  SGN d 802       0.361  56.725 -16.854  0.00  0.00     0.067 C 
ATOM     29  O5  SGN d 802       1.237  54.499 -16.765  0.00  0.00    -0.349 OA
ATOM     30  C2  SGN d 802       3.518  53.969 -16.205  0.00  0.00     0.081 C 
ATOM     31  O1S SGN d 802       6.272  51.143 -15.978  0.00  0.00    -0.296 OA
ATOM     32  O1  SGN d 802       1.677  53.189 -14.841  0.00  0.00    -0.348 OA
ATOM     33  C4  SGN d 802       2.714  56.304 -16.114  0.00  0.00     0.095 C 
ATOM     34  O6  SGN d 802       0.761  56.730 -18.222  0.00  0.00    -0.254 OA
ATOM     35  C5  SGN d 802       1.277  55.773 -16.100  0.00  0.00     0.091 C 
ATOM     36  O4S SGN d 802      -0.019  59.133 -19.020  0.00  0.00    -0.572 OA
ATOM     37  C1  SGN d 802       2.070  53.485 -16.184  0.00  0.00     0.150 C 
ATOM     38  O6S SGN d 802      -1.522  57.288 -19.438  0.00  0.00    -0.572 OA
ATOM     39  O2S SGN d 802       5.570  52.383 -17.922  0.00  0.00    -0.296 OA
ATOM     40  S2  SGN d 802      -0.108  57.709 -19.403  0.00  0.00     0.251 S 
ATOM     41  C3  SGN d 802       3.633  55.288 -15.451  0.00  0.00     0.083 C 
ATOM     42  H   SGN d 802       5.543  55.094 -15.055  0.00  0.00     0.210 HD
ATOM     43  H   SGN d 802       5.159  53.480 -15.170  0.00  0.00     0.140 HD
ATOM     44  H   SGN d 802       3.823  50.300 -16.142  0.00  0.00     0.231 HD
ATOM     45  H   SGN d 802       0.448  57.711 -16.447  0.00  0.00     0.080 H 
ATOM     46  H   SGN d 802      -0.657  56.409 -16.766  0.00  0.00     0.080 H 
ATOM     47  H   SGN d 802       3.817  54.122 -17.221  0.00  0.00     0.076 H 
ATOM     48  H   SGN d 802       6.931  51.827 -15.779  0.00  0.00     0.231 HD
ATOM     49  H   SGN d 802       3.017  56.467 -17.127  0.00  0.00     0.091 H 
ATOM     50  H   SGN d 802       0.954  55.681 -15.084  0.00  0.00     0.090 H 
ATOM     51  H   SGN d 802       1.968  52.586 -16.755  0.00  0.00     0.131 H 
ATOM     52  H   SGN d 802       6.229  53.066 -17.722  0.00  0.00     0.231 HD
ATOM     53  H   SGN d 802       3.347  55.149 -14.429  0.00  0.00     0.089 H 
ATOM     54  O1  SGN d 804      -3.585  48.997  -9.167  0.00  0.00    -0.369 OA
ATOM     55  C5  SGN d 804      -0.754  49.396  -9.586  0.00  0.00     0.091 C 
ATOM     56  O6  SGN d 804       1.361  49.741  -8.462  0.00  0.00    -0.254 OA
ATOM     57  O6S SGN d 804       3.438  50.211  -6.877  0.00  0.00    -0.572 OA
ATOM     58  C1  SGN d 804      -2.818  49.995  -8.491  0.00  0.00     0.147 C 
ATOM     59  N   SGN d 804      -4.255  51.698  -9.491  0.00  0.00    -0.210 NA
ATOM     60  C4  SGN d 804      -0.736  50.711 -10.365  0.00  0.00     0.095 C 
ATOM     61  O5S SGN d 804       3.918  49.607  -9.159  0.00  0.00    -0.572 OA
ATOM     62  O3S SGN d 804      -4.521  52.141  -6.887  0.00  0.00    -0.296 OA
ATOM     63  S1  SGN d 804      -5.293  52.185  -8.145  0.00  0.00     0.156 S 
ATOM     64  S2  SGN d 804       3.028  49.359  -8.009  0.00  0.00     0.251 S 
ATOM     65  O3  SGN d 804      -2.189  52.396 -11.286  0.00  0.00    -0.391 OA
ATOM     66  O1S SGN d 804      -6.439  51.262  -8.053  0.00  0.00    -0.296 OA
ATOM     67  O5  SGN d 804      -1.449  49.587  -8.342  0.00  0.00    -0.350 OA
ATOM     68  C3  SGN d 804      -2.174  51.163 -10.601  0.00  0.00     0.083 C 
ATOM     69  C6  SGN d 804       0.653  48.862  -9.334  0.00  0.00     0.067 C 
ATOM     70  O2S SGN d 804      -5.787  53.557  -8.370  0.00  0.00    -0.296 OA
ATOM     71  C2  SGN d 804      -2.875  51.317  -9.257  0.00  0.00     0.081 C 
ATOM     72  O4S SGN d 804       3.120  47.941  -7.616  0.00  0.00    -0.572 OA
ATOM     73  O4  SGN d 804      -0.093  50.515 -11.626  0.00  0.00    -0.348 OA
ATOM     74  H   SGN d 804      -4.503  49.297  -9.254  0.00  0.00     0.212 HD
ATOM     75  H   SGN d 804      -1.265  48.665 -10.176  0.00  0.00     0.090 H 
ATOM     76  H   SGN d 804      -3.244  50.127  -7.518  0.00  0.00     0.131 H 
ATOM     77  H   SGN d 804      -4.707  50.899  -9.934  0.00  0.00     0.140 HD
ATOM     78  H   SGN d 804      -0.204  51.453  -9.807  0.00  0.00     0.091 H 
ATOM     79  H   SGN d 804      -4.196  51.239  -6.739  0.00  0.00     0.231 HD
ATOM     80  H   SGN d 804      -1.742  52.296 -12.141  0.00  0.00     0.210 HD
ATOM     81  H   SGN d 804      -6.116  50.359  -7.904  0.00  0.00     0.231 HD
ATOM     82  H   SGN d 804      -2.683  50.432 -11.194  0.00  0.00     0.089 H 
ATOM     83  H   SGN d 804       1.176  48.790 -10.265  0.00  0.00     0.080 H 
ATOM     84  H   SGN d 804       0.586  47.895  -8.880  0.00  0.00     0.080 H 
ATOM     85  H   SGN d 804      -5.034  54.166  -8.431  0.00  0.00     0.231 HD
ATOM     86  H   SGN d 804      -2.388  52.072  -8.676  0.00  0.00     0.076 H 
ATOM     87  O5  UAP d 801       4.063  58.744 -16.979  0.00  0.00    -0.311 OA
ATOM     88  O2  UAP d 801       2.723  61.109 -16.146  0.00  0.00    -0.244 OA
ATOM     89  O1S UAP d 801       1.587  63.409 -16.820  0.00  0.00    -0.572 OA
ATOM     90  O3S UAP d 801       0.197  61.788 -15.706  0.00  0.00    -0.572 OA
ATOM     91  C1  UAP d 801       2.860  58.705 -16.209  0.00  0.00     0.167 C 
ATOM     92  O2S UAP d 801       1.877  62.987 -14.468  0.00  0.00    -0.572 OA
ATOM     93  C4  UAP d 801       5.220  59.592 -15.098  0.00  0.00    -0.034 C 
ATOM     94  C3  UAP d 801       4.019  60.037 -14.422  0.00  0.00     0.086 C 
ATOM     95  O62 UAP d 801       6.367  58.085 -17.985  0.00  0.00    -0.642 OA
ATOM     96  S   UAP d 801       1.548  62.375 -15.769  0.00  0.00     0.252 S 
ATOM     97  C6  UAP d 801       6.368  58.632 -16.859  0.00  0.00     0.233 C 
ATOM     98  C2  UAP d 801       2.796  59.943 -15.328  0.00  0.00     0.135 C 
ATOM     99  C5  UAP d 801       5.207  58.988 -16.305  0.00  0.00     0.147 C 
ATOM    100  O61 UAP d 801       7.439  58.864 -16.249  0.00  0.00    -0.642 OA
ATOM    101  O3  UAP d 801       3.822  59.277 -13.250  0.00  0.00    -0.389 OA
ATOM    102  H   UAP d 801       2.032  58.680 -16.886  0.00  0.00     0.134 H 
ATOM    103  H   UAP d 801       6.129  59.746 -14.636  0.00  0.00     0.085 H 
ATOM    104  H   UAP d 801       4.148  61.067 -14.161  0.00  0.00     0.093 H 
ATOM    105  H   UAP d 801       1.924  59.872 -14.713  0.00  0.00     0.097 H 
ATOM    106  H   UAP d 801       3.705  58.344 -13.486  0.00  0.00     0.210 HD
ENDROOT
TORSDOF 33
ENDMDL
MODEL 6
REMARK VINA RESULT:      -6.6      4.284     11.921
REMARK  0 active torsions:
REMARK  status: ('A' for Active; 'I' for Inactive)
REMARK       I    between atoms: C2_1  and  O2_62 
REMARK       I    between atoms: O3_2  and  C3_65 
REMARK       I    between atoms: O1_3  and  C1_15 
REMARK       I    between atoms: C5_5  and  C6_58 
REMARK       I    between atoms: C1_6  and  O4_70 
REMARK       I    between atoms: S_7  and  O2_62 
REMARK       I    between atoms: O2_9  and  C2_55 
REMARK       I    between atoms: O2_9  and  S_49 
REMARK       I    between atoms: O4_11  and  C1_28 
REMARK       I    between atoms: O4_11  and  C4_41 
REMARK       I    between atoms: O6_12  and  C6_58 
REMARK       I    between atoms: O6_12  and  S2_38 
REMARK       I    between atoms: S1_16  and  N_21 
REMARK       I    between atoms: S1_16  and  O1S_32 
REMARK       I    between atoms: S1_16  and  O2S_53 
REMARK       I    between atoms: S1_16  and  O3S_24 
REMARK       I    between atoms: N_18  and  C2_66 
REMARK       I    between atoms: N_18  and  S1_37 
REMARK       I    between atoms: C3_19  and  O3_27 
REMARK       I    between atoms: N_21  and  C2_31 
REMARK       I    between atoms: C4_22  and  O4_70 
REMARK       I    between atoms: C6_25  and  C5_46 
REMARK       I    between atoms: C6_25  and  O6_45 
REMARK       I    between atoms: O1_33  and  C1_51 
REMARK       I    between atoms: O1_33  and  C4_34 
REMARK       I    between atoms: O3S_35  and  S1_37 
REMARK       I    between atoms: S1_37  and  O1S_42 
REMARK       I    between atoms: S1_37  and  O2S_63 
REMARK       I    between atoms: O3_39  and  C3_54 
REMARK       I    between atoms: C6_40  and  C5_60 
REMARK       I    between atoms: C3_44  and  O3_64 
REMARK       I    between atoms: O6_45  and  S2_59 
REMARK       I    between atoms: C6_50  and  C5_56 
ROOT
ATOM      1  C2  IDS d 803      -2.716  57.261 -12.934  0.00  0.00     0.134 C 
ATOM      2  C1  IDS d 803      -1.981  55.976 -12.553  0.00  0.00     0.161 C 
ATOM      3  S   IDS d 803      -3.807  57.593 -15.449  0.00  0.00     0.252 S 
ATOM      4  O3S IDS d 803      -4.024  56.225 -15.959  0.00  0.00    -0.572 OA
ATOM      5  O5  IDS d 803      -0.564  56.208 -12.545  0.00  0.00    -0.340 OA
ATOM      6  C3  IDS d 803      -2.301  58.403 -12.008  0.00  0.00     0.094 C 
ATOM      7  O2S IDS d 803      -5.033  58.062 -14.775  0.00  0.00    -0.572 OA
ATOM      8  O3  IDS d 803      -2.749  58.173 -10.689  0.00  0.00    -0.390 OA
ATOM      9  C4  IDS d 803      -0.782  58.567 -12.042  0.00  0.00     0.103 C 
ATOM     10  C6  IDS d 803       1.376  57.347 -11.738  0.00  0.00     0.206 C 
ATOM     11  O61 IDS d 803       2.014  57.748 -10.741  0.00  0.00    -0.646 OA
ATOM     12  C5  IDS d 803      -0.138  57.239 -11.640  0.00  0.00     0.152 C 
ATOM     13  O2  IDS d 803      -2.465  57.591 -14.298  0.00  0.00    -0.244 OA
ATOM     14  O62 IDS d 803       1.933  57.006 -12.804  0.00  0.00    -0.646 OA
ATOM     15  O1S IDS d 803      -3.488  58.491 -16.574  0.00  0.00    -0.572 OA
ATOM     16  H   IDS d 803      -3.768  57.104 -12.819  0.00  0.00     0.097 H 
ATOM     17  H   IDS d 803      -2.187  55.225 -13.288  0.00  0.00     0.133 H 
ATOM     18  H   IDS d 803      -2.756  59.309 -12.351  0.00  0.00     0.091 H 
ATOM     19  H   IDS d 803      -2.350  57.356 -10.350  0.00  0.00     0.210 HD
ATOM     20  H   IDS d 803      -0.487  59.339 -11.364  0.00  0.00     0.092 H 
ATOM     21  H   IDS d 803      -0.429  57.006 -10.637  0.00  0.00     0.104 H 
ATOM     22  O3  SGN d 802       0.514  60.351 -17.231  0.00  0.00    -0.391 OA
ATOM     23  O4  SGN d 802       3.046  59.581 -16.259  0.00  0.00    -0.348 OA
ATOM     24  S1  SGN d 802      -2.856  61.700 -15.179  0.00  0.00     0.156 S 
ATOM     25  O5S SGN d 802       4.964  64.062 -13.100  0.00  0.00    -0.572 OA
ATOM     26  N   SGN d 802      -1.634  60.440 -15.387  0.00  0.00    -0.210 NA
ATOM     27  O3S SGN d 802      -3.265  61.754 -13.764  0.00  0.00    -0.296 OA
ATOM     28  C6  SGN d 802       3.676  60.337 -13.484  0.00  0.00     0.067 C 
ATOM     29  O5  SGN d 802       1.315  60.592 -13.180  0.00  0.00    -0.349 OA
ATOM     30  C2  SGN d 802      -0.271  60.717 -14.988  0.00  0.00     0.081 C 
ATOM     31  O1S SGN d 802      -4.027  61.390 -16.020  0.00  0.00    -0.296 OA
ATOM     32  O1  SGN d 802      -0.358  58.925 -13.361  0.00  0.00    -0.348 OA
ATOM     33  C4  SGN d 802       2.122  60.305 -15.445  0.00  0.00     0.095 C 
ATOM     34  O6  SGN d 802       3.733  61.761 -13.516  0.00  0.00    -0.254 OA
ATOM     35  C5  SGN d 802       2.301  59.911 -13.975  0.00  0.00     0.091 C 
ATOM     36  O4S SGN d 802       6.327  62.206 -13.824  0.00  0.00    -0.572 OA
ATOM     37  C1  SGN d 802      -0.048  60.311 -13.532  0.00  0.00     0.150 C 
ATOM     38  O6S SGN d 802       5.457  62.265 -11.572  0.00  0.00    -0.572 OA
ATOM     39  O2S SGN d 802      -2.293  63.005 -15.578  0.00  0.00    -0.296 OA
ATOM     40  S2  SGN d 802       5.183  62.609 -12.980  0.00  0.00     0.251 S 
ATOM     41  C3  SGN d 802       0.705  59.969 -15.887  0.00  0.00     0.083 C 
ATOM     42  H   SGN d 802      -0.392  60.133 -17.504  0.00  0.00     0.210 HD
ATOM     43  H   SGN d 802      -1.614  60.204 -16.378  0.00  0.00     0.140 HD
ATOM     44  H   SGN d 802      -3.635  60.897 -13.502  0.00  0.00     0.231 HD
ATOM     45  H   SGN d 802       4.432  59.930 -14.122  0.00  0.00     0.080 H 
ATOM     46  H   SGN d 802       3.843  59.981 -12.489  0.00  0.00     0.080 H 
ATOM     47  H   SGN d 802      -0.098  61.768 -15.084  0.00  0.00     0.076 H 
ATOM     48  H   SGN d 802      -3.756  61.355 -16.951  0.00  0.00     0.231 HD
ATOM     49  H   SGN d 802       2.301  61.355 -15.550  0.00  0.00     0.091 H 
ATOM     50  H   SGN d 802       2.193  58.851 -13.887  0.00  0.00     0.090 H 
ATOM     51  H   SGN d 802      -0.692  60.869 -12.885  0.00  0.00     0.131 H 
ATOM     52  H   SGN d 802      -2.024  62.970 -16.510  0.00  0.00     0.231 HD
ATOM     53  H   SGN d 802       0.538  58.915 -15.810  0.00  0.00     0.089 H 
ATOM     54  O1  SGN d 804      -2.632  52.188  -8.176  0.00  0.00    -0.369 OA
ATOM     55  C5  SGN d 804      -3.485  53.365 -10.673  0.00  0.00     0.091 C 
ATOM     56  O6  SGN d 804      -4.324  52.865 -12.886  0.00  0.00    -0.254 OA
ATOM     57  O6S SGN d 804      -5.117  51.907 -15.232  0.00  0.00    -0.572 OA
ATOM     58  C1  SGN d 804      -2.216  51.712  -9.458  0.00  0.00     0.147 C 
ATOM     59  N   SGN d 804       0.093  52.196  -8.829  0.00  0.00    -0.210 NA
ATOM     60  C4  SGN d 804      -2.207  54.062 -11.141  0.00  0.00     0.095 C 
ATOM     61  O5S SGN d 804      -5.475  54.256 -14.832  0.00  0.00    -0.572 OA
ATOM     62  O3S SGN d 804       0.158  49.606  -9.406  0.00  0.00    -0.296 OA
ATOM     63  S1  SGN d 804       0.759  50.593  -8.487  0.00  0.00     0.156 S 
ATOM     64  S2  SGN d 804      -5.486  52.914 -14.219  0.00  0.00     0.251 S 
ATOM     65  O3  SGN d 804       0.080  54.466 -10.509  0.00  0.00    -0.391 OA
ATOM     66  O1S SGN d 804       0.449  50.223  -7.094  0.00  0.00    -0.296 OA
ATOM     67  O5  SGN d 804      -3.215  51.970 -10.457  0.00  0.00    -0.350 OA
ATOM     68  C3  SGN d 804      -1.123  53.866 -10.086  0.00  0.00     0.083 C 
ATOM     69  C6  SGN d 804      -4.629  53.541 -11.667  0.00  0.00     0.067 C 
ATOM     70  O2S SGN d 804       2.222  50.613  -8.675  0.00  0.00    -0.296 OA
ATOM     71  C2  SGN d 804      -0.901  52.375  -9.870  0.00  0.00     0.081 C 
ATOM     72  O4S SGN d 804      -6.838  52.624 -13.707  0.00  0.00    -0.572 OA
ATOM     73  O4  SGN d 804      -2.454  55.459 -11.307  0.00  0.00    -0.348 OA
ATOM     74  H   SGN d 804      -1.940  52.001  -7.522  0.00  0.00     0.212 HD
ATOM     75  H   SGN d 804      -3.795  53.820  -9.755  0.00  0.00     0.090 H 
ATOM     76  H   SGN d 804      -2.075  50.654  -9.381  0.00  0.00     0.131 H 
ATOM     77  H   SGN d 804      -0.329  52.528  -7.962  0.00  0.00     0.140 HD
ATOM     78  H   SGN d 804      -1.890  53.645 -12.075  0.00  0.00     0.091 H 
ATOM     79  H   SGN d 804      -0.804  49.592  -9.282  0.00  0.00     0.231 HD
ATOM     80  H   SGN d 804      -0.062  55.416 -10.646  0.00  0.00     0.210 HD
ATOM     81  H   SGN d 804      -0.513  50.210  -6.969  0.00  0.00     0.231 HD
ATOM     82  H   SGN d 804      -1.435  54.323  -9.169  0.00  0.00     0.089 H 
ATOM     83  H   SGN d 804      -4.769  54.583 -11.865  0.00  0.00     0.080 H 
ATOM     84  H   SGN d 804      -5.523  53.127 -11.250  0.00  0.00     0.080 H 
ATOM     85  H   SGN d 804       2.427  50.856  -9.592  0.00  0.00     0.231 HD
ATOM     86  H   SGN d 804      -0.558  51.921 -10.776  0.00  0.00     0.076 H 
ATOM     87  O5  UAP d 801       3.802  61.409 -17.563  0.00  0.00    -0.311 OA
ATOM     88  O2  UAP d 801       6.336  60.135 -17.748  0.00  0.00    -0.244 OA
ATOM     89  O1S UAP d 801       8.979  60.365 -17.734  0.00  0.00    -0.572 OA
ATOM     90  O3S UAP d 801       7.993  58.976 -16.031  0.00  0.00    -0.572 OA
ATOM     91  C1  UAP d 801       4.178  60.336 -16.698  0.00  0.00     0.167 C 
ATOM     92  O2S UAP d 801       8.077  58.209 -18.311  0.00  0.00    -0.572 OA
ATOM     93  C4  UAP d 801       3.705  59.894 -19.376  0.00  0.00    -0.034 C 
ATOM     94  C3  UAP d 801       4.520  58.890 -18.724  0.00  0.00     0.086 C 
ATOM     95  O62 UAP d 801       2.358  63.048 -18.972  0.00  0.00    -0.642 OA
ATOM     96  S   UAP d 801       7.911  59.390 -17.444  0.00  0.00     0.252 S 
ATOM     97  C6  UAP d 801       2.646  61.944 -19.490  0.00  0.00     0.233 C 
ATOM     98  C2  UAP d 801       5.142  59.420 -17.436  0.00  0.00     0.135 C 
ATOM     99  C5  UAP d 801       3.386  61.073 -18.802  0.00  0.00     0.147 C 
ATOM    100  O61 UAP d 801       2.264  61.650 -20.647  0.00  0.00    -0.642 OA
ATOM    101  O3  UAP d 801       3.743  57.743 -18.458  0.00  0.00    -0.389 OA
ATOM    102  H   UAP d 801       4.644  60.754 -15.830  0.00  0.00     0.134 H 
ATOM    103  H   UAP d 801       3.352  59.698 -20.325  0.00  0.00     0.085 H 
ATOM    104  H   UAP d 801       5.320  58.632 -19.386  0.00  0.00     0.093 H 
ATOM    105  H   UAP d 801       5.368  58.589 -16.802  0.00  0.00     0.097 H 
ATOM    106  H   UAP d 801       3.017  57.976 -17.858  0.00  0.00     0.210 HD
ENDROOT
TORSDOF 33
ENDMDL
MODEL 7
REMARK VINA RESULT:      -6.6      3.543      5.218
REMARK  0 active torsions:
REMARK  status: ('A' for Active; 'I' for Inactive)
REMARK       I    between atoms: C2_1  and  O2_62 
REMARK       I    between atoms: O3_2  and  C3_65 
REMARK       I    between atoms: O1_3  and  C1_15 
REMARK       I    between atoms: C5_5  and  C6_58 
REMARK       I    between atoms: C1_6  and  O4_70 
REMARK       I    between atoms: S_7  and  O2_62 
REMARK       I    between atoms: O2_9  and  C2_55 
REMARK       I    between atoms: O2_9  and  S_49 
REMARK       I    between atoms: O4_11  and  C1_28 
REMARK       I    between atoms: O4_11  and  C4_41 
REMARK       I    between atoms: O6_12  and  C6_58 
REMARK       I    between atoms: O6_12  and  S2_38 
REMARK       I    between atoms: S1_16  and  N_21 
REMARK       I    between atoms: S1_16  and  O1S_32 
REMARK       I    between atoms: S1_16  and  O2S_53 
REMARK       I    between atoms: S1_16  and  O3S_24 
REMARK       I    between atoms: N_18  and  C2_66 
REMARK       I    between atoms: N_18  and  S1_37 
REMARK       I    between atoms: C3_19  and  O3_27 
REMARK       I    between atoms: N_21  and  C2_31 
REMARK       I    between atoms: C4_22  and  O4_70 
REMARK       I    between atoms: C6_25  and  C5_46 
REMARK       I    between atoms: C6_25  and  O6_45 
REMARK       I    between atoms: O1_33  and  C1_51 
REMARK       I    between atoms: O1_33  and  C4_34 
REMARK       I    between atoms: O3S_35  and  S1_37 
REMARK       I    between atoms: S1_37  and  O1S_42 
REMARK       I    between atoms: S1_37  and  O2S_63 
REMARK       I    between atoms: O3_39  and  C3_54 
REMARK       I    between atoms: C6_40  and  C5_60 
REMARK       I    between atoms: C3_44  and  O3_64 
REMARK       I    between atoms: O6_45  and  S2_59 
REMARK       I    between atoms: C6_50  and  C5_56 
ROOT
ATOM      1  C2  IDS d 803       2.880  55.582 -14.334  0.00  0.00     0.134 C 
ATOM      2  C1  IDS d 803       2.301  56.932 -13.910  0.00  0.00     0.161 C 
ATOM      3  S   IDS d 803       2.358  54.521 -16.829  0.00  0.00     0.252 S 
ATOM      4  O3S IDS d 803       2.013  55.679 -17.676  0.00  0.00    -0.572 OA
ATOM      5  O5  IDS d 803       1.209  56.730 -12.999  0.00  0.00    -0.340 OA
ATOM      6  C3  IDS d 803       3.269  54.762 -13.103  0.00  0.00     0.094 C 
ATOM      7  O2S IDS d 803       3.804  54.252 -16.937  0.00  0.00    -0.572 OA
ATOM      8  O3  IDS d 803       4.350  55.360 -12.419  0.00  0.00    -0.390 OA
ATOM      9  C4  IDS d 803       2.059  54.615 -12.181  0.00  0.00     0.103 C 
ATOM     10  C6  IDS d 803       0.308  55.898 -10.948  0.00  0.00     0.206 C 
ATOM     11  O61 IDS d 803       0.437  55.812  -9.707  0.00  0.00    -0.646 OA
ATOM     12  C5  IDS d 803       1.558  56.011 -11.805  0.00  0.00     0.152 C 
ATOM     13  O2  IDS d 803       1.946  54.874 -15.147  0.00  0.00    -0.244 OA
ATOM     14  O62 IDS d 803      -0.809  55.923 -11.509  0.00  0.00    -0.646 OA
ATOM     15  O1S IDS d 803       1.601  53.339 -17.283  0.00  0.00    -0.572 OA
ATOM     16  H   IDS d 803       3.762  55.752 -14.914  0.00  0.00     0.097 H 
ATOM     17  H   IDS d 803       1.919  57.434 -14.774  0.00  0.00     0.133 H 
ATOM     18  H   IDS d 803       3.584  53.791 -13.422  0.00  0.00     0.091 H 
ATOM     19  H   IDS d 803       4.092  56.245 -12.117  0.00  0.00     0.210 HD
ATOM     20  H   IDS d 803       2.341  54.077 -11.301  0.00  0.00     0.092 H 
ATOM     21  H   IDS d 803       2.331  56.521 -11.269  0.00  0.00     0.104 H 
ATOM     22  O3  SGN d 802      -1.677  51.420 -14.941  0.00  0.00    -0.391 OA
ATOM     23  O4  SGN d 802      -3.270  52.472 -12.866  0.00  0.00    -0.348 OA
ATOM     24  S1  SGN d 802       2.425  50.681 -15.070  0.00  0.00     0.156 S 
ATOM     25  O5S SGN d 802      -2.250  49.124  -8.230  0.00  0.00    -0.572 OA
ATOM     26  N   SGN d 802       1.121  51.842 -14.798  0.00  0.00    -0.210 NA
ATOM     27  O3S SGN d 802       3.577  51.034 -14.220  0.00  0.00    -0.296 OA
ATOM     28  C6  SGN d 802      -2.050  52.561 -10.187  0.00  0.00     0.067 C 
ATOM     29  O5  SGN d 802       0.056  52.374 -11.308  0.00  0.00    -0.349 OA
ATOM     30  C2  SGN d 802       0.305  51.711 -13.609  0.00  0.00     0.081 C 
ATOM     31  O1S SGN d 802       2.827  50.719 -16.487  0.00  0.00    -0.296 OA
ATOM     32  O1  SGN d 802       1.019  53.896 -12.848  0.00  0.00    -0.348 OA
ATOM     33  C4  SGN d 802      -1.942  52.003 -12.624  0.00  0.00     0.095 C 
ATOM     34  O6  SGN d 802      -1.881  51.189  -9.836  0.00  0.00    -0.254 OA
ATOM     35  C5  SGN d 802      -1.302  52.808 -11.488  0.00  0.00     0.091 C 
ATOM     36  O4S SGN d 802      -4.062  50.708  -8.411  0.00  0.00    -0.572 OA
ATOM     37  C1  SGN d 802       0.899  52.524 -12.461  0.00  0.00     0.150 C 
ATOM     38  O6S SGN d 802      -2.058  51.294  -7.197  0.00  0.00    -0.572 OA
ATOM     39  O2S SGN d 802       1.958  49.324 -14.724  0.00  0.00    -0.296 OA
ATOM     40  S2  SGN d 802      -2.594  50.553  -8.355  0.00  0.00     0.251 S 
ATOM     41  C3  SGN d 802      -1.118  52.178 -13.891  0.00  0.00     0.083 C 
ATOM     42  H   SGN d 802      -1.145  51.538 -15.744  0.00  0.00     0.210 HD
ATOM     43  H   SGN d 802       0.494  51.781 -15.600  0.00  0.00     0.140 HD
ATOM     44  H   SGN d 802       3.884  51.926 -14.447  0.00  0.00     0.231 HD
ATOM     45  H   SGN d 802      -3.090  52.776 -10.319  0.00  0.00     0.080 H 
ATOM     46  H   SGN d 802      -1.669  53.192  -9.412  0.00  0.00     0.080 H 
ATOM     47  H   SGN d 802       0.283  50.679 -13.328  0.00  0.00     0.076 H 
ATOM     48  H   SGN d 802       2.068  50.486 -17.045  0.00  0.00     0.231 HD
ATOM     49  H   SGN d 802      -1.974  50.970 -12.346  0.00  0.00     0.091 H 
ATOM     50  H   SGN d 802      -1.339  53.847 -11.740  0.00  0.00     0.090 H 
ATOM     51  H   SGN d 802       1.879  52.170 -12.220  0.00  0.00     0.131 H 
ATOM     52  H   SGN d 802       1.200  49.091 -15.283  0.00  0.00     0.231 HD
ATOM     53  H   SGN d 802      -1.113  53.207 -14.185  0.00  0.00     0.089 H 
ATOM     54  O1  SGN d 804       4.724  61.817 -11.863  0.00  0.00    -0.369 OA
ATOM     55  C5  SGN d 804       4.160  59.955 -14.000  0.00  0.00     0.091 C 
ATOM     56  O6  SGN d 804       3.475  59.781 -16.313  0.00  0.00    -0.254 OA
ATOM     57  O6S SGN d 804       2.600  60.008 -18.810  0.00  0.00    -0.572 OA
ATOM     58  C1  SGN d 804       3.575  61.906 -12.707  0.00  0.00     0.147 C 
ATOM     59  N   SGN d 804       2.167  61.655 -10.728  0.00  0.00    -0.210 NA
ATOM     60  C4  SGN d 804       2.981  59.170 -13.425  0.00  0.00     0.095 C 
ATOM     61  O5S SGN d 804       3.501  57.871 -18.156  0.00  0.00    -0.572 OA
ATOM     62  O3S SGN d 804       1.358  63.968 -11.750  0.00  0.00    -0.296 OA
ATOM     63  S1  SGN d 804       1.569  63.296 -10.452  0.00  0.00     0.156 S 
ATOM     64  S2  SGN d 804       3.644  59.333 -18.017  0.00  0.00     0.251 S 
ATOM     65  O3  SGN d 804       1.581  58.995 -11.475  0.00  0.00    -0.391 OA
ATOM     66  O1S SGN d 804       2.560  64.051  -9.662  0.00  0.00    -0.296 OA
ATOM     67  O5  SGN d 804       3.840  61.357 -14.008  0.00  0.00    -0.350 OA
ATOM     68  C3  SGN d 804       2.690  59.677 -12.016  0.00  0.00     0.083 C 
ATOM     69  C6  SGN d 804       4.532  59.484 -15.403  0.00  0.00     0.067 C 
ATOM     70  O2S SGN d 804       0.293  63.242  -9.714  0.00  0.00    -0.296 OA
ATOM     71  C2  SGN d 804       2.393  61.169 -12.076  0.00  0.00     0.081 C 
ATOM     72  O4S SGN d 804       4.974  59.742 -18.504  0.00  0.00    -0.572 OA
ATOM     73  O4  SGN d 804       3.312  57.781 -13.365  0.00  0.00    -0.348 OA
ATOM     74  H   SGN d 804       4.517  62.195 -10.994  0.00  0.00     0.212 HD
ATOM     75  H   SGN d 804       5.012  59.783 -13.376  0.00  0.00     0.090 H 
ATOM     76  H   SGN d 804       3.332  62.943 -12.817  0.00  0.00     0.131 H 
ATOM     77  H   SGN d 804       3.059  61.584 -10.239  0.00  0.00     0.140 HD
ATOM     78  H   SGN d 804       2.122  59.302 -14.049  0.00  0.00     0.091 H 
ATOM     79  H   SGN d 804       2.197  64.004 -12.235  0.00  0.00     0.231 HD
ATOM     80  H   SGN d 804       1.772  58.045 -11.437  0.00  0.00     0.210 HD
ATOM     81  H   SGN d 804       3.400  64.087 -10.146  0.00  0.00     0.231 HD
ATOM     82  H   SGN d 804       3.543  59.501 -11.393  0.00  0.00     0.089 H 
ATOM     83  H   SGN d 804       4.700  58.428 -15.388  0.00  0.00     0.080 H 
ATOM     84  H   SGN d 804       5.420  59.990 -15.719  0.00  0.00     0.080 H 
ATOM     85  H   SGN d 804      -0.360  62.746 -10.233  0.00  0.00     0.231 HD
ATOM     86  H   SGN d 804       1.521  61.345 -12.671  0.00  0.00     0.076 H 
ATOM     87  O5  UAP d 801      -4.327  50.355 -12.971  0.00  0.00    -0.311 OA
ATOM     88  O2  UAP d 801      -6.671  51.553 -11.898  0.00  0.00    -0.244 OA
ATOM     89  O1S UAP d 801      -8.741  51.370 -10.250  0.00  0.00    -0.572 OA
ATOM     90  O3S UAP d 801      -7.197  53.181  -9.872  0.00  0.00    -0.572 OA
ATOM     91  C1  UAP d 801      -4.305  51.637 -12.342  0.00  0.00     0.167 C 
ATOM     92  O2S UAP d 801      -8.705  53.255 -11.747  0.00  0.00    -0.572 OA
ATOM     93  C4  UAP d 801      -5.542  51.277 -14.777  0.00  0.00    -0.034 C 
ATOM     94  C3  UAP d 801      -5.983  52.438 -14.031  0.00  0.00     0.086 C 
ATOM     95  O62 UAP d 801      -3.715  48.359 -14.520  0.00  0.00    -0.642 OA
ATOM     96  S   UAP d 801      -7.878  52.374 -10.901  0.00  0.00     0.252 S 
ATOM     97  C6  UAP d 801      -4.425  49.268 -15.008  0.00  0.00     0.233 C 
ATOM     98  C2  UAP d 801      -5.653  52.312 -12.548  0.00  0.00     0.135 C 
ATOM     99  C5  UAP d 801      -4.763  50.311 -14.247  0.00  0.00     0.147 C 
ATOM    100  O61 UAP d 801      -4.834  49.209 -16.191  0.00  0.00    -0.642 OA
ATOM    101  O3  UAP d 801      -5.396  53.602 -14.568  0.00  0.00    -0.389 OA
ATOM    102  H   UAP d 801      -4.109  51.494 -11.299  0.00  0.00     0.134 H 
ATOM    103  H   UAP d 801      -5.839  51.185 -15.761  0.00  0.00     0.085 H 
ATOM    104  H   UAP d 801      -7.048  52.503 -14.119  0.00  0.00     0.093 H 
ATOM    105  H   UAP d 801      -5.604  53.294 -12.127  0.00  0.00     0.097 H 
ATOM    106  H   UAP d 801      -4.431  53.544 -14.489  0.00  0.00     0.210 HD
ENDROOT
TORSDOF 33
ENDMDL
MODEL 8
REMARK VINA RESULT:      -6.6      2.812      3.890
REMARK  0 active torsions:
REMARK  status: ('A' for Active; 'I' for Inactive)
REMARK       I    between atoms: C2_1  and  O2_62 
REMARK       I    between atoms: O3_2  and  C3_65 
REMARK       I    between atoms: O1_3  and  C1_15 
REMARK       I    between atoms: C5_5  and  C6_58 
REMARK       I    between atoms: C1_6  and  O4_70 
REMARK       I    between atoms: S_7  and  O2_62 
REMARK       I    between atoms: O2_9  and  C2_55 
REMARK       I    between atoms: O2_9  and  S_49 
REMARK       I    between atoms: O4_11  and  C1_28 
REMARK       I    between atoms: O4_11  and  C4_41 
REMARK       I    between atoms: O6_12  and  C6_58 
REMARK       I    between atoms: O6_12  and  S2_38 
REMARK       I    between atoms: S1_16  and  N_21 
REMARK       I    between atoms: S1_16  and  O1S_32 
REMARK       I    between atoms: S1_16  and  O2S_53 
REMARK       I    between atoms: S1_16  and  O3S_24 
REMARK       I    between atoms: N_18  and  C2_66 
REMARK       I    between atoms: N_18  and  S1_37 
REMARK       I    between atoms: C3_19  and  O3_27 
REMARK       I    between atoms: N_21  and  C2_31 
REMARK       I    between atoms: C4_22  and  O4_70 
REMARK       I    between atoms: C6_25  and  C5_46 
REMARK       I    between atoms: C6_25  and  O6_45 
REMARK       I    between atoms: O1_33  and  C1_51 
REMARK       I    between atoms: O1_33  and  C4_34 
REMARK       I    between atoms: O3S_35  and  S1_37 
REMARK       I    between atoms: S1_37  and  O1S_42 
REMARK       I    between atoms: S1_37  and  O2S_63 
REMARK       I    between atoms: O3_39  and  C3_54 
REMARK       I    between atoms: C6_40  and  C5_60 
REMARK       I    between atoms: C3_44  and  O3_64 
REMARK       I    between atoms: O6_45  and  S2_59 
REMARK       I    between atoms: C6_50  and  C5_56 
ROOT
ATOM      1  C2  IDS d 803       5.288  52.529 -14.874  0.00  0.00     0.134 C 
ATOM      2  C1  IDS d 803       5.767  53.458 -15.989  0.00  0.00     0.161 C 
ATOM      3  S   IDS d 803       3.551  50.445 -15.396  0.00  0.00     0.252 S 
ATOM      4  O3S IDS d 803       3.731  50.144 -16.830  0.00  0.00    -0.572 OA
ATOM      5  O5  IDS d 803       5.085  54.719 -15.900  0.00  0.00    -0.340 OA
ATOM      6  C3  IDS d 803       5.451  53.205 -13.512  0.00  0.00     0.094 C 
ATOM      7  O2S IDS d 803       4.454  49.591 -14.602  0.00  0.00    -0.572 OA
ATOM      8  O3  IDS d 803       6.816  53.383 -13.198  0.00  0.00    -0.390 OA
ATOM      9  C4  IDS d 803       4.717  54.545 -13.513  0.00  0.00     0.103 C 
ATOM     10  C6  IDS d 803       4.504  56.717 -14.725  0.00  0.00     0.206 C 
ATOM     11  O61 IDS d 803       4.908  57.685 -14.044  0.00  0.00    -0.646 OA
ATOM     12  C5  IDS d 803       5.269  55.405 -14.651  0.00  0.00     0.152 C 
ATOM     13  O2  IDS d 803       3.932  52.145 -15.095  0.00  0.00    -0.244 OA
ATOM     14  O62 IDS d 803       3.515  56.793 -15.484  0.00  0.00    -0.646 OA
ATOM     15  O1S IDS d 803       2.153  50.179 -15.010  0.00  0.00    -0.572 OA
ATOM     16  H   IDS d 803       5.888  51.643 -14.881  0.00  0.00     0.097 H 
ATOM     17  H   IDS d 803       5.527  53.021 -16.935  0.00  0.00     0.133 H 
ATOM     18  H   IDS d 803       5.025  52.574 -12.761  0.00  0.00     0.091 H 
ATOM     19  H   IDS d 803       7.230  53.953 -13.865  0.00  0.00     0.210 HD
ATOM     20  H   IDS d 803       4.864  55.036 -12.574  0.00  0.00     0.092 H 
ATOM     21  H   IDS d 803       6.307  55.590 -14.469  0.00  0.00     0.104 H 
ATOM     22  O3  SGN d 802      -0.780  53.351 -13.897  0.00  0.00    -0.391 OA
ATOM     23  O4  SGN d 802      -0.768  56.110 -14.481  0.00  0.00    -0.348 OA
ATOM     24  S1  SGN d 802       1.844  51.081 -11.584  0.00  0.00     0.156 S 
ATOM     25  O5S SGN d 802      -0.640  58.819  -9.344  0.00  0.00    -0.572 OA
ATOM     26  N   SGN d 802       1.622  52.196 -12.938  0.00  0.00    -0.210 NA
ATOM     27  O3S SGN d 802       3.166  51.313 -10.975  0.00  0.00    -0.296 OA
ATOM     28  C6  SGN d 802       0.975  57.800 -12.814  0.00  0.00     0.067 C 
ATOM     29  O5  SGN d 802       2.134  55.782 -12.251  0.00  0.00    -0.349 OA
ATOM     30  C2  SGN d 802       1.270  53.572 -12.659  0.00  0.00     0.081 C 
ATOM     31  O1S SGN d 802       1.763  49.694 -12.075  0.00  0.00    -0.296 OA
ATOM     32  O1  SGN d 802       3.315  54.334 -13.707  0.00  0.00    -0.348 OA
ATOM     33  C4  SGN d 802       0.028  55.566 -13.426  0.00  0.00     0.095 C 
ATOM     34  O6  SGN d 802       0.395  57.721 -11.513  0.00  0.00    -0.254 OA
ATOM     35  C5  SGN d 802       1.312  56.386 -13.264  0.00  0.00     0.091 C 
ATOM     36  O4S SGN d 802      -1.126  59.889 -11.452  0.00  0.00    -0.572 OA
ATOM     37  C1  SGN d 802       2.527  54.427 -12.517  0.00  0.00     0.150 C 
ATOM     38  O6S SGN d 802       1.081  60.062 -10.487  0.00  0.00    -0.572 OA
ATOM     39  O2S SGN d 802       0.791  51.312 -10.576  0.00  0.00    -0.296 OA
ATOM     40  S2  SGN d 802      -0.094  59.186 -10.664  0.00  0.00     0.251 S 
ATOM     41  C3  SGN d 802       0.390  54.128 -13.771  0.00  0.00     0.083 C 
ATOM     42  H   SGN d 802      -0.540  52.437 -14.117  0.00  0.00     0.210 HD
ATOM     43  H   SGN d 802       0.882  51.811 -13.524  0.00  0.00     0.140 HD
ATOM     44  H   SGN d 802       3.858  51.161 -11.637  0.00  0.00     0.231 HD
ATOM     45  H   SGN d 802       0.278  58.242 -13.495  0.00  0.00     0.080 H 
ATOM     46  H   SGN d 802       1.858  58.404 -12.791  0.00  0.00     0.080 H 
ATOM     47  H   SGN d 802       0.726  53.601 -11.737  0.00  0.00     0.076 H 
ATOM     48  H   SGN d 802       0.892  49.543 -12.476  0.00  0.00     0.231 HD
ATOM     49  H   SGN d 802      -0.525  55.596 -12.510  0.00  0.00     0.091 H 
ATOM     50  H   SGN d 802       1.824  56.414 -14.202  0.00  0.00     0.090 H 
ATOM     51  H   SGN d 802       3.128  54.077 -11.703  0.00  0.00     0.131 H 
ATOM     52  H   SGN d 802      -0.079  51.159 -10.978  0.00  0.00     0.231 HD
ATOM     53  H   SGN d 802       0.916  54.097 -14.702  0.00  0.00     0.089 H 
ATOM     54  O1  SGN d 804      11.064  55.050 -17.816  0.00  0.00    -0.369 OA
ATOM     55  C5  SGN d 804       8.928  53.120 -17.571  0.00  0.00     0.091 C 
ATOM     56  O6  SGN d 804       7.644  51.460 -18.774  0.00  0.00    -0.254 OA
ATOM     57  O6S SGN d 804       6.399  49.824 -20.455  0.00  0.00    -0.572 OA
ATOM     58  C1  SGN d 804      10.007  54.916 -18.767  0.00  0.00     0.147 C 
ATOM     59  N   SGN d 804       9.364  57.224 -18.298  0.00  0.00    -0.210 NA
ATOM     60  C4  SGN d 804       7.740  54.014 -17.216  0.00  0.00     0.095 C 
ATOM     61  O5S SGN d 804       6.009  49.479 -18.102  0.00  0.00    -0.572 OA
ATOM     62  O3S SGN d 804       9.823  57.248 -20.912  0.00  0.00    -0.296 OA
ATOM     63  S1  SGN d 804       9.959  58.101 -19.714  0.00  0.00     0.156 S 
ATOM     64  S2  SGN d 804       7.018  49.840 -19.116  0.00  0.00     0.251 S 
ATOM     65  O3  SGN d 804       7.140  56.311 -16.817  0.00  0.00    -0.391 OA
ATOM     66  O1S SGN d 804      11.379  58.446 -19.514  0.00  0.00    -0.296 OA
ATOM     67  O5  SGN d 804       9.510  53.569 -18.807  0.00  0.00    -0.350 OA
ATOM     68  C3  SGN d 804       8.223  55.456 -17.107  0.00  0.00     0.083 C 
ATOM     69  C6  SGN d 804       8.528  51.651 -17.672  0.00  0.00     0.067 C 
ATOM     70  O2S SGN d 804       9.175  59.337 -19.898  0.00  0.00    -0.296 OA
ATOM     71  C2  SGN d 804       8.861  55.870 -18.426  0.00  0.00     0.081 C 
ATOM     72  O4S SGN d 804       8.124  48.865 -19.072  0.00  0.00    -0.572 OA
ATOM     73  O4  SGN d 804       7.188  53.606 -15.963  0.00  0.00    -0.348 OA
ATOM     74  H   SGN d 804      11.380  55.967 -17.810  0.00  0.00     0.212 HD
ATOM     75  H   SGN d 804       9.648  53.194 -16.784  0.00  0.00     0.090 H 
ATOM     76  H   SGN d 804      10.403  55.162 -19.730  0.00  0.00     0.131 H 
ATOM     77  H   SGN d 804      10.136  57.187 -17.632  0.00  0.00     0.140 HD
ATOM     78  H   SGN d 804       6.989  53.934 -17.976  0.00  0.00     0.091 H 
ATOM     79  H   SGN d 804      10.339  56.436 -20.791  0.00  0.00     0.231 HD
ATOM     80  H   SGN d 804       6.735  56.046 -15.976  0.00  0.00     0.210 HD
ATOM     81  H   SGN d 804      11.896  57.634 -19.392  0.00  0.00     0.231 HD
ATOM     82  H   SGN d 804       8.942  55.529 -16.316  0.00  0.00     0.089 H 
ATOM     83  H   SGN d 804       8.037  51.355 -16.769  0.00  0.00     0.080 H 
ATOM     84  H   SGN d 804       9.406  51.057 -17.819  0.00  0.00     0.080 H 
ATOM     85  H   SGN d 804       8.241  59.111 -20.030  0.00  0.00     0.231 HD
ATOM     86  H   SGN d 804       8.136  55.830 -19.211  0.00  0.00     0.076 H 
ATOM     87  O5  UAP d 801      -2.844  56.085 -13.340  0.00  0.00    -0.311 OA
ATOM     88  O2  UAP d 801      -3.600  58.393 -14.818  0.00  0.00    -0.244 OA
ATOM     89  O1S UAP d 801      -4.797  60.760 -14.840  0.00  0.00    -0.572 OA
ATOM     90  O3S UAP d 801      -2.456  60.712 -15.406  0.00  0.00    -0.572 OA
ATOM     91  C1  UAP d 801      -1.891  56.881 -14.048  0.00  0.00     0.167 C 
ATOM     92  O2S UAP d 801      -4.089  59.878 -16.966  0.00  0.00    -0.572 OA
ATOM     93  C4  UAP d 801      -3.736  55.348 -15.402  0.00  0.00    -0.034 C 
ATOM     94  C3  UAP d 801      -3.171  56.442 -16.164  0.00  0.00     0.086 C 
ATOM     95  O62 UAP d 801      -4.003  54.049 -12.214  0.00  0.00    -0.642 OA
ATOM     96  S   UAP d 801      -3.741  60.002 -15.537  0.00  0.00     0.252 S 
ATOM     97  C6  UAP d 801      -4.143  54.178 -13.452  0.00  0.00     0.233 C 
ATOM     98  C2  UAP d 801      -2.570  57.509 -15.255  0.00  0.00     0.135 C 
ATOM     99  C5  UAP d 801      -3.565  55.209 -14.071  0.00  0.00     0.147 C 
ATOM    100  O61 UAP d 801      -4.827  53.364 -14.116  0.00  0.00    -0.642 OA
ATOM    101  O3  UAP d 801      -2.196  55.949 -17.056  0.00  0.00    -0.389 OA
ATOM    102  H   UAP d 801      -1.528  57.636 -13.383  0.00  0.00     0.134 H 
ATOM    103  H   UAP d 801      -4.297  54.640 -15.902  0.00  0.00     0.085 H 
ATOM    104  H   UAP d 801      -3.962  56.901 -16.720  0.00  0.00     0.093 H 
ATOM    105  H   UAP d 801      -1.833  58.050 -15.810  0.00  0.00     0.097 H 
ATOM    106  H   UAP d 801      -1.479  55.533 -16.553  0.00  0.00     0.210 HD
ENDROOT
TORSDOF 33
ENDMDL
MODEL 9
REMARK VINA RESULT:      -6.4      3.514      6.165
REMARK  0 active torsions:
REMARK  status: ('A' for Active; 'I' for Inactive)
REMARK       I    between atoms: C2_1  and  O2_62 
REMARK       I    between atoms: O3_2  and  C3_65 
REMARK       I    between atoms: O1_3  and  C1_15 
REMARK       I    between atoms: C5_5  and  C6_58 
REMARK       I    between atoms: C1_6  and  O4_70 
REMARK       I    between atoms: S_7  and  O2_62 
REMARK       I    between atoms: O2_9  and  C2_55 
REMARK       I    between atoms: O2_9  and  S_49 
REMARK       I    between atoms: O4_11  and  C1_28 
REMARK       I    between atoms: O4_11  and  C4_41 
REMARK       I    between atoms: O6_12  and  C6_58 
REMARK       I    between atoms: O6_12  and  S2_38 
REMARK       I    between atoms: S1_16  and  N_21 
REMARK       I    between atoms: S1_16  and  O1S_32 
REMARK       I    between atoms: S1_16  and  O2S_53 
REMARK       I    between atoms: S1_16  and  O3S_24 
REMARK       I    between atoms: N_18  and  C2_66 
REMARK       I    between atoms: N_18  and  S1_37 
REMARK       I    between atoms: C3_19  and  O3_27 
REMARK       I    between atoms: N_21  and  C2_31 
REMARK       I    between atoms: C4_22  and  O4_70 
REMARK       I    between atoms: C6_25  and  C5_46 
REMARK       I    between atoms: C6_25  and  O6_45 
REMARK       I    between atoms: O1_33  and  C1_51 
REMARK       I    between atoms: O1_33  and  C4_34 
REMARK       I    between atoms: O3S_35  and  S1_37 
REMARK       I    between atoms: S1_37  and  O1S_42 
REMARK       I    between atoms: S1_37  and  O2S_63 
REMARK       I    between atoms: O3_39  and  C3_54 
REMARK       I    between atoms: C6_40  and  C5_60 
REMARK       I    between atoms: C3_44  and  O3_64 
REMARK       I    between atoms: O6_45  and  S2_59 
REMARK       I    between atoms: C6_50  and  C5_56 
ROOT
ATOM      1  C2  IDS d 803       2.175  56.233 -16.751  0.00  0.00     0.134 C 
ATOM      2  C1  IDS d 803       2.228  57.504 -15.903  0.00  0.00     0.161 C 
ATOM      3  S   IDS d 803       0.081  55.758 -18.487  0.00  0.00     0.252 S 
ATOM      4  O3S IDS d 803      -0.477  57.090 -18.792  0.00  0.00    -0.572 OA
ATOM      5  O5  IDS d 803       1.881  57.197 -14.543  0.00  0.00    -0.340 OA
ATOM      6  C3  IDS d 803       3.060  55.149 -16.136  0.00  0.00     0.094 C 
ATOM      7  O2S IDS d 803       1.096  55.411 -19.500  0.00  0.00    -0.572 OA
ATOM      8  O3  IDS d 803       4.423  55.509 -16.206  0.00  0.00    -0.390 OA
ATOM      9  C4  IDS d 803       2.639  54.902 -14.688  0.00  0.00     0.103 C 
ATOM     10  C6  IDS d 803       2.246  56.025 -12.493  0.00  0.00     0.206 C 
ATOM     11  O61 IDS d 803       3.072  55.672 -11.622  0.00  0.00    -0.646 OA
ATOM     12  C5  IDS d 803       2.732  56.222 -13.920  0.00  0.00     0.152 C 
ATOM     13  O2  IDS d 803       0.830  55.781 -16.886  0.00  0.00    -0.244 OA
ATOM     14  O62 IDS d 803       1.045  56.248 -12.232  0.00  0.00    -0.646 OA
ATOM     15  O1S IDS d 803      -1.000  54.755 -18.510  0.00  0.00    -0.572 OA
ATOM     16  H   IDS d 803       2.550  56.455 -17.728  0.00  0.00     0.097 H 
ATOM     17  H   IDS d 803       1.508  58.202 -16.275  0.00  0.00     0.133 H 
ATOM     18  H   IDS d 803       2.935  54.244 -16.694  0.00  0.00     0.091 H 
ATOM     19  H   IDS d 803       4.567  56.328 -15.707  0.00  0.00     0.210 HD
ATOM     20  H   IDS d 803       3.283  54.172 -14.245  0.00  0.00     0.092 H 
ATOM     21  H   IDS d 803       3.750  56.550 -13.924  0.00  0.00     0.104 H 
ATOM     22  O3  SGN d 802      -2.520  52.637 -14.889  0.00  0.00    -0.391 OA
ATOM     23  O4  SGN d 802      -2.330  53.346 -12.167  0.00  0.00    -0.348 OA
ATOM     24  S1  SGN d 802       0.467  51.641 -17.622  0.00  0.00     0.156 S 
ATOM     25  O5S SGN d 802       0.607  49.039  -9.605  0.00  0.00    -0.572 OA
ATOM     26  N   SGN d 802      -0.172  52.813 -16.464  0.00  0.00    -0.210 NA
ATOM     27  O3S SGN d 802       1.939  51.723 -17.637  0.00  0.00    -0.296 OA
ATOM     28  C6  SGN d 802       0.237  52.784 -10.837  0.00  0.00     0.067 C 
ATOM     29  O5  SGN d 802       1.178  52.682 -13.036  0.00  0.00    -0.349 OA
ATOM     30  C2  SGN d 802      -0.125  52.497 -15.052  0.00  0.00     0.081 C 
ATOM     31  O1S SGN d 802      -0.058  51.944 -18.966  0.00  0.00    -0.296 OA
ATOM     32  O1  SGN d 802       1.294  54.416 -14.645  0.00  0.00    -0.348 OA
ATOM     33  C4  SGN d 802      -1.236  52.741 -12.859  0.00  0.00     0.095 C 
ATOM     34  O6  SGN d 802       0.323  51.361 -10.833  0.00  0.00    -0.254 OA
ATOM     35  C5  SGN d 802       0.091  53.242 -12.280  0.00  0.00     0.091 C 
ATOM     36  O4S SGN d 802      -0.620  50.755  -8.433  0.00  0.00    -0.572 OA
ATOM     37  C1  SGN d 802       1.175  53.006 -14.434  0.00  0.00     0.150 C 
ATOM     38  O6S SGN d 802       1.778  50.926  -8.666  0.00  0.00    -0.572 OA
ATOM     39  O2S SGN d 802       0.055  50.280 -17.226  0.00  0.00    -0.296 OA
ATOM     40  S2  SGN d 802       0.530  50.484  -9.318  0.00  0.00     0.251 S 
ATOM     41  C3  SGN d 802      -1.316  53.115 -14.332  0.00  0.00     0.083 C 
ATOM     42  H   SGN d 802      -2.562  52.880 -15.827  0.00  0.00     0.210 HD
ATOM     43  H   SGN d 802      -1.151  52.966 -16.703  0.00  0.00     0.140 HD
ATOM     44  H   SGN d 802       2.209  52.617 -17.897  0.00  0.00     0.231 HD
ATOM     45  H   SGN d 802      -0.614  53.098 -10.268  0.00  0.00     0.080 H 
ATOM     46  H   SGN d 802       1.115  53.211 -10.398  0.00  0.00     0.080 H 
ATOM     47  H   SGN d 802      -0.166  51.433 -14.943  0.00  0.00     0.076 H 
ATOM     48  H   SGN d 802      -1.027  51.889 -18.955  0.00  0.00     0.231 HD
ATOM     49  H   SGN d 802      -1.288  51.678 -12.746  0.00  0.00     0.091 H 
ATOM     50  H   SGN d 802       0.106  54.311 -12.328  0.00  0.00     0.090 H 
ATOM     51  H   SGN d 802       2.019  52.538 -14.898  0.00  0.00     0.131 H 
ATOM     52  H   SGN d 802      -0.913  50.225 -17.217  0.00  0.00     0.231 HD
ATOM     53  H   SGN d 802      -1.295  54.180 -14.440  0.00  0.00     0.089 H 
ATOM     54  O1  SGN d 804       6.252  61.663 -15.239  0.00  0.00    -0.369 OA
ATOM     55  C5  SGN d 804       4.189  60.334 -16.766  0.00  0.00     0.091 C 
ATOM     56  O6  SGN d 804       2.242  60.698 -18.155  0.00  0.00    -0.254 OA
ATOM     57  O6S SGN d 804       0.112  61.504 -19.519  0.00  0.00    -0.572 OA
ATOM     58  C1  SGN d 804       4.867  62.011 -15.169  0.00  0.00     0.147 C 
ATOM     59  N   SGN d 804       4.903  61.456 -12.791  0.00  0.00    -0.210 NA
ATOM     60  C4  SGN d 804       3.466  59.535 -15.683  0.00  0.00     0.095 C 
ATOM     61  O5S SGN d 804       0.807  59.218 -19.827  0.00  0.00    -0.572 OA
ATOM     62  O3S SGN d 804       4.093  63.984 -12.806  0.00  0.00    -0.296 OA
ATOM     63  S1  SGN d 804       4.907  63.043 -12.011  0.00  0.00     0.156 S 
ATOM     64  S2  SGN d 804       1.275  60.604 -19.633  0.00  0.00     0.251 S 
ATOM     65  O3  SGN d 804       3.504  59.061 -13.323  0.00  0.00    -0.391 OA
ATOM     66  O1S SGN d 804       6.292  63.541 -11.923  0.00  0.00    -0.296 OA
ATOM     67  O5  SGN d 804       4.197  61.726 -16.407  0.00  0.00    -0.350 OA
ATOM     68  C3  SGN d 804       4.173  59.757 -14.350  0.00  0.00     0.083 C 
ATOM     69  C6  SGN d 804       3.555  60.141 -18.140  0.00  0.00     0.067 C 
ATOM     70  O2S SGN d 804       4.340  62.929 -10.653  0.00  0.00    -0.296 OA
ATOM     71  C2  SGN d 804       4.184  61.247 -14.034  0.00  0.00     0.081 C 
ATOM     72  O4S SGN d 804       2.099  61.007 -20.788  0.00  0.00    -0.572 OA
ATOM     73  O4  SGN d 804       3.501  58.144 -16.007  0.00  0.00    -0.348 OA
ATOM     74  H   SGN d 804       6.679  61.865 -14.391  0.00  0.00     0.212 HD
ATOM     75  H   SGN d 804       5.194  59.973 -16.832  0.00  0.00     0.090 H 
ATOM     76  H   SGN d 804       4.806  63.062 -14.980  0.00  0.00     0.131 H 
ATOM     77  H   SGN d 804       5.877  61.218 -12.974  0.00  0.00     0.140 HD
ATOM     78  H   SGN d 804       2.447  59.858 -15.617  0.00  0.00     0.091 H 
ATOM     79  H   SGN d 804       4.465  64.059 -13.698  0.00  0.00     0.231 HD
ATOM     80  H   SGN d 804       3.498  58.112 -13.526  0.00  0.00     0.210 HD
ATOM     81  H   SGN d 804       6.666  63.616 -12.816  0.00  0.00     0.231 HD
ATOM     82  H   SGN d 804       5.178  59.393 -14.417  0.00  0.00     0.089 H 
ATOM     83  H   SGN d 804       3.498  59.095 -18.359  0.00  0.00     0.080 H 
ATOM     84  H   SGN d 804       4.154  60.634 -18.876  0.00  0.00     0.080 H 
ATOM     85  H   SGN d 804       3.429  62.602 -10.709  0.00  0.00     0.231 HD
ATOM     86  H   SGN d 804       3.182  61.606 -13.933  0.00  0.00     0.076 H 
ATOM     87  O5  UAP d 801      -3.612  51.381 -11.844  0.00  0.00    -0.311 OA
ATOM     88  O2  UAP d 801      -4.579  52.498  -9.415  0.00  0.00    -0.244 OA
ATOM     89  O1S UAP d 801      -5.245  52.129  -6.875  0.00  0.00    -0.572 OA
ATOM     90  O3S UAP d 801      -3.478  53.702  -7.325  0.00  0.00    -0.572 OA
ATOM     91  C1  UAP d 801      -2.981  52.499 -11.217  0.00  0.00     0.167 C 
ATOM     92  O2S UAP d 801      -5.759  54.277  -7.833  0.00  0.00    -0.572 OA
ATOM     93  C4  UAP d 801      -5.467  52.748 -12.379  0.00  0.00    -0.034 C 
ATOM     94  C3  UAP d 801      -5.149  53.756 -11.390  0.00  0.00     0.086 C 
ATOM     95  O62 UAP d 801      -4.431  49.713 -13.662  0.00  0.00    -0.642 OA
ATOM     96  S   UAP d 801      -4.774  53.180  -7.796  0.00  0.00     0.252 S 
ATOM     97  C6  UAP d 801      -5.107  50.754 -13.491  0.00  0.00     0.233 C 
ATOM     98  C2  UAP d 801      -4.030  53.299 -10.460  0.00  0.00     0.135 C 
ATOM     99  C5  UAP d 801      -4.722  51.637 -12.568  0.00  0.00     0.147 C 
ATOM    100  O61 UAP d 801      -6.143  50.974 -14.161  0.00  0.00    -0.642 OA
ATOM    101  O3  UAP d 801      -4.794  54.960 -12.032  0.00  0.00    -0.389 OA
ATOM    102  H   UAP d 801      -2.233  52.128 -10.548  0.00  0.00     0.134 H 
ATOM    103  H   UAP d 801      -6.302  52.884 -12.969  0.00  0.00     0.085 H 
ATOM    104  H   UAP d 801      -6.021  53.916 -10.789  0.00  0.00     0.093 H 
ATOM    105  H   UAP d 801      -3.558  54.166 -10.048  0.00  0.00     0.097 H 
ATOM    106  H   UAP d 801      -4.005  54.816 -12.576  0.00  0.00     0.210 HD
ENDROOT
TORSDOF 33
ENDMDL
MODEL 10
REMARK VINA RESULT:      -6.4      3.878     11.740
REMARK  0 active torsions:
REMARK  status: ('A' for Active; 'I' for Inactive)
REMARK       I    between atoms: C2_1  and  O2_62 
REMARK       I    between atoms: O3_2  and  C3_65 
REMARK       I    between atoms: O1_3  and  C1_15 
REMARK       I    between atoms: C5_5  and  C6_58 
REMARK       I    between atoms: C1_6  and  O4_70 
REMARK       I    between atoms: S_7  and  O2_62 
REMARK       I    between atoms: O2_9  and  C2_55 
REMARK       I    between atoms: O2_9  and  S_49 
REMARK       I    between atoms: O4_11  and  C1_28 
REMARK       I    between atoms: O4_11  and  C4_41 
REMARK       I    between atoms: O6_12  and  C6_58 
REMARK       I    between atoms: O6_12  and  S2_38 
REMARK       I    between atoms: S1_16  and  N_21 
REMARK       I    between atoms: S1_16  and  O1S_32 
REMARK       I    between atoms: S1_16  and  O2S_53 
REMARK       I    between atoms: S1_16  and  O3S_24 
REMARK       I    between atoms: N_18  and  C2_66 
REMARK       I    between atoms: N_18  and  S1_37 
REMARK       I    between atoms: C3_19  and  O3_27 
REMARK       I    between atoms: N_21  and  C2_31 
REMARK       I    between atoms: C4_22  and  O4_70 
REMARK       I    between atoms: C6_25  and  C5_46 
REMARK       I    between atoms: C6_25  and  O6_45 
REMARK       I    between atoms: O1_33  and  C1_51 
REMARK       I    between atoms: O1_33  and  C4_34 
REMARK       I    between atoms: O3S_35  and  S1_37 
REMARK       I    between atoms: S1_37  and  O1S_42 
REMARK       I    between atoms: S1_37  and  O2S_63 
REMARK       I    between atoms: O3_39  and  C3_54 
REMARK       I    between atoms: C6_40  and  C5_60 
REMARK       I    between atoms: C3_44  and  O3_64 
REMARK       I    between atoms: O6_45  and  S2_59 
REMARK       I    between atoms: C6_50  and  C5_56 
ROOT
ATOM      1  C2  IDS d 803      -4.042  53.112 -16.089  0.00  0.00     0.134 C 
ATOM      2  C1  IDS d 803      -4.604  52.428 -14.843  0.00  0.00     0.161 C 
ATOM      3  S   IDS d 803      -3.381  51.659 -18.344  0.00  0.00     0.252 S 
ATOM      4  O3S IDS d 803      -4.187  50.426 -18.257  0.00  0.00    -0.572 OA
ATOM      5  O5  IDS d 803      -3.587  52.346 -13.832  0.00  0.00    -0.340 OA
ATOM      6  C3  IDS d 803      -3.446  54.472 -15.725  0.00  0.00     0.094 C 
ATOM      7  O2S IDS d 803      -4.121  52.670 -19.122  0.00  0.00    -0.572 OA
ATOM      8  O3  IDS d 803      -4.454  55.369 -15.310  0.00  0.00    -0.390 OA
ATOM      9  C4  IDS d 803      -2.394  54.295 -14.631  0.00  0.00     0.103 C 
ATOM     10  C6  IDS d 803      -2.008  53.357 -12.350  0.00  0.00     0.206 C 
ATOM     11  O61 IDS d 803      -1.795  54.246 -11.498  0.00  0.00    -0.646 OA
ATOM     12  C5  IDS d 803      -3.049  53.615 -13.428  0.00  0.00     0.152 C 
ATOM     13  O2  IDS d 803      -3.069  52.279 -16.718  0.00  0.00    -0.244 OA
ATOM     14  O62 IDS d 803      -1.421  52.254 -12.335  0.00  0.00    -0.646 OA
ATOM     15  O1S IDS d 803      -2.100  51.363 -19.011  0.00  0.00    -0.572 OA
ATOM     16  H   IDS d 803      -4.839  53.272 -16.784  0.00  0.00     0.097 H 
ATOM     17  H   IDS d 803      -4.897  51.430 -15.095  0.00  0.00     0.133 H 
ATOM     18  H   IDS d 803      -2.979  54.888 -16.594  0.00  0.00     0.091 H 
ATOM     19  H   IDS d 803      -4.895  55.017 -14.521  0.00  0.00     0.210 HD
ATOM     20  H   IDS d 803      -2.006  55.251 -14.347  0.00  0.00     0.092 H 
ATOM     21  H   IDS d 803      -3.822  54.252 -13.052  0.00  0.00     0.104 H 
ATOM     22  O3  SGN d 802       1.860  51.416 -16.955  0.00  0.00    -0.391 OA
ATOM     23  O4  SGN d 802       2.475  51.200 -14.212  0.00  0.00    -0.348 OA
ATOM     24  S1  SGN d 802      -0.223  54.382 -19.018  0.00  0.00     0.156 S 
ATOM     25  O5S SGN d 802       5.196  56.134 -12.803  0.00  0.00    -0.572 OA
ATOM     26  N   SGN d 802      -0.211  53.198 -17.705  0.00  0.00    -0.210 NA
ATOM     27  O3S SGN d 802      -1.062  55.531 -18.630  0.00  0.00    -0.296 OA
ATOM     28  C6  SGN d 802       2.132  53.634 -12.591  0.00  0.00     0.067 C 
ATOM     29  O5  SGN d 802       0.721  54.425 -14.356  0.00  0.00    -0.349 OA
ATOM     30  C2  SGN d 802       0.629  53.442 -16.552  0.00  0.00     0.081 C 
ATOM     31  O1S SGN d 802      -0.772  53.758 -20.235  0.00  0.00    -0.296 OA
ATOM     32  O1  SGN d 802      -1.318  53.485 -15.113  0.00  0.00    -0.348 OA
ATOM     33  C4  SGN d 802       2.025  52.431 -14.782  0.00  0.00     0.095 C 
ATOM     34  O6  SGN d 802       3.116  54.532 -13.099  0.00  0.00    -0.254 OA
ATOM     35  C5  SGN d 802       1.228  53.227 -13.745  0.00  0.00     0.091 C 
ATOM     36  O4S SGN d 802       5.131  54.156 -11.422  0.00  0.00    -0.572 OA
ATOM     37  C1  SGN d 802      -0.143  54.213 -15.482  0.00  0.00     0.150 C 
ATOM     38  O6S SGN d 802       3.643  56.003 -10.963  0.00  0.00    -0.572 OA
ATOM     39  O2S SGN d 802       1.154  54.846 -19.277  0.00  0.00    -0.296 OA
ATOM     40  S2  SGN d 802       4.323  55.235 -12.025  0.00  0.00     0.251 S 
ATOM     41  C3  SGN d 802       1.133  52.125 -15.977  0.00  0.00     0.083 C 
ATOM     42  H   SGN d 802       1.283  51.226 -17.712  0.00  0.00     0.210 HD
ATOM     43  H   SGN d 802       0.085  52.309 -18.108  0.00  0.00     0.140 HD
ATOM     44  H   SGN d 802      -1.967  55.226 -18.459  0.00  0.00     0.231 HD
ATOM     45  H   SGN d 802       2.609  52.769 -12.180  0.00  0.00     0.080 H 
ATOM     46  H   SGN d 802       1.562  54.107 -11.820  0.00  0.00     0.080 H 
ATOM     47  H   SGN d 802       1.467  54.030 -16.864  0.00  0.00     0.076 H 
ATOM     48  H   SGN d 802      -0.219  53.003 -20.489  0.00  0.00     0.231 HD
ATOM     49  H   SGN d 802       2.870  53.009 -15.093  0.00  0.00     0.091 H 
ATOM     50  H   SGN d 802       0.427  52.616 -13.383  0.00  0.00     0.090 H 
ATOM     51  H   SGN d 802      -0.457  55.164 -15.860  0.00  0.00     0.131 H 
ATOM     52  H   SGN d 802       1.706  54.090 -19.533  0.00  0.00     0.231 HD
ATOM     53  H   SGN d 802       0.305  51.521 -15.669  0.00  0.00     0.089 H 
ATOM     54  O1  SGN d 804      -9.419  53.290 -11.681  0.00  0.00    -0.369 OA
ATOM     55  C5  SGN d 804      -8.066  52.362 -14.060  0.00  0.00     0.091 C 
ATOM     56  O6  SGN d 804      -7.932  50.546 -15.652  0.00  0.00    -0.254 OA
ATOM     57  O6S SGN d 804      -8.010  48.324 -17.103  0.00  0.00    -0.572 OA
ATOM     58  C1  SGN d 804      -8.912  51.963 -11.836  0.00  0.00     0.147 C 
ATOM     59  N   SGN d 804      -7.458  52.351  -9.913  0.00  0.00    -0.210 NA
ATOM     60  C4  SGN d 804      -6.620  52.256 -13.575  0.00  0.00     0.095 C 
ATOM     61  O5S SGN d 804      -6.864  50.215 -18.060  0.00  0.00    -0.572 OA
ATOM     62  O3S SGN d 804      -8.864  50.221  -9.183  0.00  0.00    -0.296 OA
ATOM     63  S1  SGN d 804      -8.253  51.443  -8.621  0.00  0.00     0.156 S 
ATOM     64  S2  SGN d 804      -8.023  49.792 -17.250  0.00  0.00     0.251 S 
ATOM     65  O3  SGN d 804      -5.234  52.599 -11.637  0.00  0.00    -0.391 OA
ATOM     66  O1S SGN d 804      -9.301  52.281  -8.008  0.00  0.00    -0.296 OA
ATOM     67  O5  SGN d 804      -8.913  51.564 -13.216  0.00  0.00    -0.350 OA
ATOM     68  C3  SGN d 804      -6.552  52.723 -12.124  0.00  0.00     0.083 C 
ATOM     69  C6  SGN d 804      -8.212  51.938 -15.519  0.00  0.00     0.067 C 
ATOM     70  O2S SGN d 804      -7.262  51.070  -7.594  0.00  0.00    -0.296 OA
ATOM     71  C2  SGN d 804      -7.490  51.870 -11.281  0.00  0.00     0.081 C 
ATOM     72  O4S SGN d 804      -9.267  50.209 -17.923  0.00  0.00    -0.572 OA
ATOM     73  O4  SGN d 804      -5.781  53.089 -14.377  0.00  0.00    -0.348 OA
ATOM     74  H   SGN d 804      -9.407  53.533 -10.742  0.00  0.00     0.212 HD
ATOM     75  H   SGN d 804      -8.363  53.389 -14.002  0.00  0.00     0.090 H 
ATOM     76  H   SGN d 804      -9.554  51.304 -11.289  0.00  0.00     0.131 H 
ATOM     77  H   SGN d 804      -7.881  53.279  -9.921  0.00  0.00     0.140 HD
ATOM     78  H   SGN d 804      -6.289  51.241 -13.651  0.00  0.00     0.091 H 
ATOM     79  H   SGN d 804      -9.516  50.467  -9.857  0.00  0.00     0.231 HD
ATOM     80  H   SGN d 804      -4.638  53.144 -12.175  0.00  0.00     0.210 HD
ATOM     81  H   SGN d 804      -9.954  52.528  -8.683  0.00  0.00     0.231 HD
ATOM     82  H   SGN d 804      -6.846  53.751 -12.069  0.00  0.00     0.089 H 
ATOM     83  H   SGN d 804      -7.527  52.497 -16.120  0.00  0.00     0.080 H 
ATOM     84  H   SGN d 804      -9.215  52.127 -15.840  0.00  0.00     0.080 H 
ATOM     85  H   SGN d 804      -6.572  50.518  -7.996  0.00  0.00     0.231 HD
ATOM     86  H   SGN d 804      -7.177  50.847 -11.309  0.00  0.00     0.076 H 
ATOM     87  O5  UAP d 801       4.712  51.306 -14.983  0.00  0.00    -0.311 OA
ATOM     88  O2  UAP d 801       5.509  49.907 -12.640  0.00  0.00    -0.244 OA
ATOM     89  O1S UAP d 801       7.271  49.620 -10.679  0.00  0.00    -0.572 OA
ATOM     90  O3S UAP d 801       5.005  50.134 -10.046  0.00  0.00    -0.572 OA
ATOM     91  C1  UAP d 801       3.856  51.178 -13.846  0.00  0.00     0.167 C 
ATOM     92  O2S UAP d 801       5.559  47.938 -10.858  0.00  0.00    -0.572 OA
ATOM     93  C4  UAP d 801       4.459  48.995 -15.415  0.00  0.00    -0.034 C 
ATOM     94  C3  UAP d 801       4.011  48.681 -14.074  0.00  0.00     0.086 C 
ATOM     95  O62 UAP d 801       5.526  51.583 -17.436  0.00  0.00    -0.642 OA
ATOM     96  S   UAP d 801       5.850  49.377 -10.988  0.00  0.00     0.252 S 
ATOM     97  C6  UAP d 801       5.207  50.430 -17.063  0.00  0.00     0.233 C 
ATOM     98  C2  UAP d 801       4.171  49.871 -13.134  0.00  0.00     0.135 C 
ATOM     99  C5  UAP d 801       4.784  50.243 -15.812  0.00  0.00     0.147 C 
ATOM    100  O61 UAP d 801       5.291  49.450 -17.839  0.00  0.00    -0.642 OA
ATOM    101  O3  UAP d 801       2.665  48.259 -14.106  0.00  0.00    -0.389 OA
ATOM    102  H   UAP d 801       4.033  52.012 -13.200  0.00  0.00     0.134 H 
ATOM    103  H   UAP d 801       4.533  48.227 -16.099  0.00  0.00     0.085 H 
ATOM    104  H   UAP d 801       4.623  47.889 -13.697  0.00  0.00     0.093 H 
ATOM    105  H   UAP d 801       3.484  49.758 -12.323  0.00  0.00     0.097 H 
ATOM    106  H   UAP d 801       2.109  48.977 -14.448  0.00  0.00     0.210 HD
ENDROOT
TORSDOF 33
ENDMDL
MODEL 11
REMARK VINA RESULT:      -6.3      4.247      8.134
REMARK  0 active torsions:
REMARK  status: ('A' for Active; 'I' for Inactive)
REMARK       I    between atoms: C2_1  and  O2_62 
REMARK       I    between atoms: O3_2  and  C3_65 
REMARK       I    between atoms: O1_3  and  C1_15 
REMARK       I    between atoms: C5_5  and  C6_58 
REMARK       I    between atoms: C1_6  and  O4_70 
REMARK       I    between atoms: S_7  and  O2_62 
REMARK       I    between atoms: O2_9  and  C2_55 
REMARK       I    between atoms: O2_9  and  S_49 
REMARK       I    between atoms: O4_11  and  C1_28 
REMARK       I    between atoms: O4_11  and  C4_41 
REMARK       I    between atoms: O6_12  and  C6_58 
REMARK       I    between atoms: O6_12  and  S2_38 
REMARK       I    between atoms: S1_16  and  N_21 
REMARK       I    between atoms: S1_16  and  O1S_32 
REMARK       I    between atoms: S1_16  and  O2S_53 
REMARK       I    between atoms: S1_16  and  O3S_24 
REMARK       I    between atoms: N_18  and  C2_66 
REMARK       I    between atoms: N_18  and  S1_37 
REMARK       I    between atoms: C3_19  and  O3_27 
REMARK       I    between atoms: N_21  and  C2_31 
REMARK       I    between atoms: C4_22  and  O4_70 
REMARK       I    between atoms: C6_25  and  C5_46 
REMARK       I    between atoms: C6_25  and  O6_45 
REMARK       I    between atoms: O1_33  and  C1_51 
REMARK       I    between atoms: O1_33  and  C4_34 
REMARK       I    between atoms: O3S_35  and  S1_37 
REMARK       I    between atoms: S1_37  and  O1S_42 
REMARK       I    between atoms: S1_37  and  O2S_63 
REMARK       I    between atoms: O3_39  and  C3_54 
REMARK       I    between atoms: C6_40  and  C5_60 
REMARK       I    between atoms: C3_44  and  O3_64 
REMARK       I    between atoms: O6_45  and  S2_59 
REMARK       I    between atoms: C6_50  and  C5_56 
ROOT
ATOM      1  C2  IDS d 803       7.451  58.033 -17.373  0.00  0.00     0.134 C 
ATOM      2  C1  IDS d 803       6.290  58.805 -16.747  0.00  0.00     0.161 C 
ATOM      3  S   IDS d 803       7.469  57.408 -20.063  0.00  0.00     0.252 S 
ATOM      4  O3S IDS d 803       6.579  58.401 -20.695  0.00  0.00    -0.572 OA
ATOM      5  O5  IDS d 803       5.460  57.909 -15.990  0.00  0.00    -0.340 OA
ATOM      6  C3  IDS d 803       8.221  57.268 -16.296  0.00  0.00     0.094 C 
ATOM      7  O2S IDS d 803       8.857  57.908 -20.095  0.00  0.00    -0.572 OA
ATOM      8  O3  IDS d 803       8.879  58.156 -15.418  0.00  0.00    -0.390 OA
ATOM      9  C4  IDS d 803       7.262  56.359 -15.528  0.00  0.00     0.103 C 
ATOM     10  C6  IDS d 803       5.132  56.331 -14.226  0.00  0.00     0.206 C 
ATOM     11  O61 IDS d 803       5.314  56.059 -13.019  0.00  0.00    -0.646 OA
ATOM     12  C5  IDS d 803       6.145  57.217 -14.933  0.00  0.00     0.152 C 
ATOM     13  O2  IDS d 803       6.973  57.150 -18.385  0.00  0.00    -0.244 OA
ATOM     14  O62 IDS d 803       4.138  55.927 -14.866  0.00  0.00    -0.646 OA
ATOM     15  O1S IDS d 803       7.386  56.134 -20.801  0.00  0.00    -0.572 OA
ATOM     16  H   IDS d 803       8.122  58.730 -17.830  0.00  0.00     0.097 H 
ATOM     17  H   IDS d 803       5.691  59.227 -17.526  0.00  0.00     0.133 H 
ATOM     18  H   IDS d 803       8.968  56.666 -16.769  0.00  0.00     0.091 H 
ATOM     19  H   IDS d 803       8.224  58.716 -14.973  0.00  0.00     0.210 HD
ATOM     20  H   IDS d 803       7.792  55.853 -14.748  0.00  0.00     0.092 H 
ATOM     21  H   IDS d 803       6.576  57.912 -14.243  0.00  0.00     0.104 H 
ATOM     22  O3  SGN d 802       5.537  52.416 -19.170  0.00  0.00    -0.391 OA
ATOM     23  O4  SGN d 802       3.677  52.091 -17.076  0.00  0.00    -0.348 OA
ATOM     24  S1  SGN d 802       9.464  53.815 -19.084  0.00  0.00     0.156 S 
ATOM     25  O5S SGN d 802       6.318  48.770 -13.108  0.00  0.00    -0.572 OA
ATOM     26  N   SGN d 802       7.762  54.106 -18.705  0.00  0.00    -0.210 NA
ATOM     27  O3S SGN d 802      10.308  54.496 -18.085  0.00  0.00    -0.296 OA
ATOM     28  C6  SGN d 802       4.750  52.193 -14.335  0.00  0.00     0.067 C 
ATOM     29  O5  SGN d 802       6.649  53.299 -15.285  0.00  0.00    -0.349 OA
ATOM     30  C2  SGN d 802       7.143  53.346 -17.641  0.00  0.00     0.081 C 
ATOM     31  O1S SGN d 802       9.764  54.344 -20.427  0.00  0.00    -0.296 OA
ATOM     32  O1  SGN d 802       6.700  55.383 -16.410  0.00  0.00    -0.348 OA
ATOM     33  C4  SGN d 802       5.068  52.289 -16.815  0.00  0.00     0.095 C 
ATOM     34  O6  SGN d 802       5.583  51.040 -14.244  0.00  0.00    -0.254 OA
ATOM     35  C5  SGN d 802       5.250  53.043 -15.494  0.00  0.00     0.091 C 
ATOM     36  O4S SGN d 802       3.957  49.267 -13.134  0.00  0.00    -0.572 OA
ATOM     37  C1  SGN d 802       7.282  54.081 -16.309  0.00  0.00     0.150 C 
ATOM     38  O6S SGN d 802       5.434  50.483 -11.661  0.00  0.00    -0.572 OA
ATOM     39  O2S SGN d 802       9.737  52.365 -19.051  0.00  0.00    -0.296 OA
ATOM     40  S2  SGN d 802       5.310  49.839 -12.983  0.00  0.00     0.251 S 
ATOM     41  C3  SGN d 802       5.671  53.108 -17.948  0.00  0.00     0.083 C 
ATOM     42  H   SGN d 802       5.924  52.945 -19.885  0.00  0.00     0.210 HD
ATOM     43  H   SGN d 802       7.231  53.918 -19.555  0.00  0.00     0.140 HD
ATOM     44  H   SGN d 802      10.130  55.449 -18.108  0.00  0.00     0.231 HD
ATOM     45  H   SGN d 802       3.738  51.896 -14.512  0.00  0.00     0.080 H 
ATOM     46  H   SGN d 802       4.786  52.750 -13.422  0.00  0.00     0.080 H 
ATOM     47  H   SGN d 802       7.642  52.401 -17.567  0.00  0.00     0.076 H 
ATOM     48  H   SGN d 802       9.208  53.894 -21.083  0.00  0.00     0.231 HD
ATOM     49  H   SGN d 802       5.557  51.340 -16.747  0.00  0.00     0.091 H 
ATOM     50  H   SGN d 802       4.699  53.958 -15.540  0.00  0.00     0.090 H 
ATOM     51  H   SGN d 802       8.315  54.207 -16.057  0.00  0.00     0.131 H 
ATOM     52  H   SGN d 802       9.181  51.917 -19.708  0.00  0.00     0.231 HD
ATOM     53  H   SGN d 802       5.160  54.044 -18.035  0.00  0.00     0.089 H 
ATOM     54  O1  SGN d 804       6.023  63.691 -13.587  0.00  0.00    -0.369 OA
ATOM     55  C5  SGN d 804       6.408  62.291 -16.086  0.00  0.00     0.091 C 
ATOM     56  O6  SGN d 804       5.850  62.300 -18.439  0.00  0.00    -0.254 OA
ATOM     57  O6S SGN d 804       4.924  62.594 -20.910  0.00  0.00    -0.572 OA
ATOM     58  C1  SGN d 804       4.962  63.385 -14.494  0.00  0.00     0.147 C 
ATOM     59  N   SGN d 804       3.906  62.067 -12.731  0.00  0.00    -0.210 NA
ATOM     60  C4  SGN d 804       5.785  60.929 -15.779  0.00  0.00     0.095 C 
ATOM     61  O5S SGN d 804       6.778  61.085 -20.609  0.00  0.00    -0.572 OA
ATOM     62  O3S SGN d 804       2.038  63.848 -13.350  0.00  0.00    -0.296 OA
ATOM     63  S1  SGN d 804       2.581  63.108 -12.193  0.00  0.00     0.156 S 
ATOM     64  S2  SGN d 804       6.182  62.363 -20.176  0.00  0.00     0.251 S 
ATOM     65  O3  SGN d 804       4.696  59.687 -14.028  0.00  0.00    -0.391 OA
ATOM     66  O1S SGN d 804       3.085  64.062 -11.189  0.00  0.00    -0.296 OA
ATOM     67  O5  SGN d 804       5.437  63.324 -15.848  0.00  0.00    -0.350 OA
ATOM     68  C3  SGN d 804       5.311  60.919 -14.329  0.00  0.00     0.083 C 
ATOM     69  C6  SGN d 804       6.934  62.370 -17.516  0.00  0.00     0.067 C 
ATOM     70  O2S SGN d 804       1.514  62.283 -11.593  0.00  0.00    -0.296 OA
ATOM     71  C2  SGN d 804       4.313  62.051 -14.122  0.00  0.00     0.081 C 
ATOM     72  O4S SGN d 804       7.125  63.461 -20.458  0.00  0.00    -0.572 OA
ATOM     73  O4  SGN d 804       6.761  59.902 -15.961  0.00  0.00    -0.348 OA
ATOM     74  H   SGN d 804       5.675  63.726 -12.682  0.00  0.00     0.212 HD
ATOM     75  H   SGN d 804       7.247  62.428 -15.436  0.00  0.00     0.090 H 
ATOM     76  H   SGN d 804       4.237  64.169 -14.421  0.00  0.00     0.131 H 
ATOM     77  H   SGN d 804       4.727  62.338 -12.189  0.00  0.00     0.140 HD
ATOM     78  H   SGN d 804       4.959  60.755 -16.437  0.00  0.00     0.091 H 
ATOM     79  H   SGN d 804       2.739  64.391 -13.744  0.00  0.00     0.231 HD
ATOM     80  H   SGN d 804       5.333  58.966 -14.160  0.00  0.00     0.210 HD
ATOM     81  H   SGN d 804       3.787  64.605 -11.582  0.00  0.00     0.231 HD
ATOM     82  H   SGN d 804       6.153  61.054 -13.681  0.00  0.00     0.089 H 
ATOM     83  H   SGN d 804       7.603  61.555 -17.692  0.00  0.00     0.080 H 
ATOM     84  H   SGN d 804       7.449  63.298 -17.649  0.00  0.00     0.080 H 
ATOM     85  H   SGN d 804       1.181  61.655 -12.253  0.00  0.00     0.231 HD
ATOM     86  H   SGN d 804       3.457  61.901 -14.745  0.00  0.00     0.076 H 
ATOM     87  O5  UAP d 801       3.804  49.804 -17.681  0.00  0.00    -0.311 OA
ATOM     88  O2  UAP d 801       1.197  49.450 -16.604  0.00  0.00    -0.244 OA
ATOM     89  O1S UAP d 801      -0.476  47.938 -15.207  0.00  0.00    -0.572 OA
ATOM     90  O3S UAP d 801      -0.022  50.143 -14.353  0.00  0.00    -0.572 OA
ATOM     91  C1  UAP d 801       3.202  50.768 -16.815  0.00  0.00     0.167 C 
ATOM     92  O2S UAP d 801      -1.409  49.869 -16.301  0.00  0.00    -0.572 OA
ATOM     93  C4  UAP d 801       2.252  50.376 -19.372  0.00  0.00    -0.034 C 
ATOM     94  C3  UAP d 801       1.312  50.986 -18.456  0.00  0.00     0.086 C 
ATOM     95  O62 UAP d 801       5.289  48.740 -19.530  0.00  0.00    -0.642 OA
ATOM     96  S   UAP d 801      -0.236  49.346 -15.574  0.00  0.00     0.252 S 
ATOM     97  C6  UAP d 801       4.212  49.267 -19.891  0.00  0.00     0.233 C 
ATOM     98  C2  UAP d 801       1.693  50.726 -17.002  0.00  0.00     0.135 C 
ATOM     99  C5  UAP d 801       3.419  49.825 -18.975  0.00  0.00     0.147 C 
ATOM    100  O61 UAP d 801       3.860  49.268 -21.094  0.00  0.00    -0.642 OA
ATOM    101  O3  UAP d 801       1.234  52.372 -18.703  0.00  0.00    -0.389 OA
ATOM    102  H   UAP d 801       3.465  50.522 -15.808  0.00  0.00     0.134 H 
ATOM    103  H   UAP d 801       2.020  50.361 -20.377  0.00  0.00     0.085 H 
ATOM    104  H   UAP d 801       0.352  50.541 -18.621  0.00  0.00     0.093 H 
ATOM    105  H   UAP d 801       1.259  51.493 -16.396  0.00  0.00     0.097 H 
ATOM    106  H   UAP d 801       2.103  52.776 -18.553  0.00  0.00     0.210 HD
ENDROOT
TORSDOF 33
ENDMDL
MODEL 12
REMARK VINA RESULT:      -6.2      4.198      8.613
REMARK  0 active torsions:
REMARK  status: ('A' for Active; 'I' for Inactive)
REMARK       I    between atoms: C2_1  and  O2_62 
REMARK       I    between atoms: O3_2  and  C3_65 
REMARK       I    between atoms: O1_3  and  C1_15 
REMARK       I    between atoms: C5_5  and  C6_58 
REMARK       I    between atoms: C1_6  and  O4_70 
REMARK       I    between atoms: S_7  and  O2_62 
REMARK       I    between atoms: O2_9  and  C2_55 
REMARK       I    between atoms: O2_9  and  S_49 
REMARK       I    between atoms: O4_11  and  C1_28 
REMARK       I    between atoms: O4_11  and  C4_41 
REMARK       I    between atoms: O6_12  and  C6_58 
REMARK       I    between atoms: O6_12  and  S2_38 
REMARK       I    between atoms: S1_16  and  N_21 
REMARK       I    between atoms: S1_16  and  O1S_32 
REMARK       I    between atoms: S1_16  and  O2S_53 
REMARK       I    between atoms: S1_16  and  O3S_24 
REMARK       I    between atoms: N_18  and  C2_66 
REMARK       I    between atoms: N_18  and  S1_37 
REMARK       I    between atoms: C3_19  and  O3_27 
REMARK       I    between atoms: N_21  and  C2_31 
REMARK       I    between atoms: C4_22  and  O4_70 
REMARK       I    between atoms: C6_25  and  C5_46 
REMARK       I    between atoms: C6_25  and  O6_45 
REMARK       I    between atoms: O1_33  and  C1_51 
REMARK       I    between atoms: O1_33  and  C4_34 
REMARK       I    between atoms: O3S_35  and  S1_37 
REMARK       I    between atoms: S1_37  and  O1S_42 
REMARK       I    between atoms: S1_37  and  O2S_63 
REMARK       I    between atoms: O3_39  and  C3_54 
REMARK       I    between atoms: C6_40  and  C5_60 
REMARK       I    between atoms: C3_44  and  O3_64 
REMARK       I    between atoms: O6_45  and  S2_59 
REMARK       I    between atoms: C6_50  and  C5_56 
ROOT
ATOM      1  C2  IDS d 803       4.594  57.349 -17.638  0.00  0.00     0.134 C 
ATOM      2  C1  IDS d 803       4.812  55.852 -17.416  0.00  0.00     0.161 C 
ATOM      3  S   IDS d 803       6.068  59.230 -16.255  0.00  0.00     0.252 S 
ATOM      4  O3S IDS d 803       7.305  58.531 -15.853  0.00  0.00    -0.572 OA
ATOM      5  O5  IDS d 803       3.741  55.316 -16.623  0.00  0.00    -0.340 OA
ATOM      6  C3  IDS d 803       3.213  57.599 -18.245  0.00  0.00     0.094 C 
ATOM      7  O2S IDS d 803       6.288  59.902 -17.549  0.00  0.00    -0.572 OA
ATOM      8  O3  IDS d 803       3.136  57.080 -19.556  0.00  0.00    -0.390 OA
ATOM      9  C4  IDS d 803       2.139  56.979 -17.353  0.00  0.00     0.103 C 
ATOM     10  C6  IDS d 803       1.426  54.855 -16.251  0.00  0.00     0.206 C 
ATOM     11  O61 IDS d 803       0.360  54.406 -16.726  0.00  0.00    -0.646 OA
ATOM     12  C5  IDS d 803       2.436  55.486 -17.197  0.00  0.00     0.152 C 
ATOM     13  O2  IDS d 803       4.751  58.061 -16.413  0.00  0.00    -0.244 OA
ATOM     14  O62 IDS d 803       1.708  54.780 -15.036  0.00  0.00    -0.646 OA
ATOM     15  O1S IDS d 803       5.716  60.232 -15.232  0.00  0.00    -0.572 OA
ATOM     16  H   IDS d 803       5.331  57.706 -18.327  0.00  0.00     0.097 H 
ATOM     17  H   IDS d 803       5.724  55.709 -16.876  0.00  0.00     0.133 H 
ATOM     18  H   IDS d 803       3.050  58.655 -18.305  0.00  0.00     0.091 H 
ATOM     19  H   IDS d 803       3.281  56.120 -19.532  0.00  0.00     0.210 HD
ATOM     20  H   IDS d 803       1.177  57.119 -17.797  0.00  0.00     0.092 H 
ATOM     21  H   IDS d 803       2.382  55.023 -18.160  0.00  0.00     0.104 H 
ATOM     22  O3  SGN d 802       2.172  59.915 -12.539  0.00  0.00    -0.391 OA
ATOM     23  O4  SGN d 802       0.660  57.652 -11.801  0.00  0.00    -0.348 OA
ATOM     24  S1  SGN d 802       2.658  61.723 -16.265  0.00  0.00     0.156 S 
ATOM     25  O5S SGN d 802      -4.754  58.695 -13.628  0.00  0.00    -0.572 OA
ATOM     26  N   SGN d 802       2.776  60.257 -15.286  0.00  0.00    -0.210 NA
ATOM     27  O3S SGN d 802       2.331  61.356 -17.655  0.00  0.00    -0.296 OA
ATOM     28  C6  SGN d 802      -1.332  56.706 -13.753  0.00  0.00     0.067 C 
ATOM     29  O5  SGN d 802      -0.094  57.945 -15.385  0.00  0.00    -0.349 OA
ATOM     30  C2  SGN d 802       1.558  59.611 -14.845  0.00  0.00     0.081 C 
ATOM     31  O1S SGN d 802       3.947  62.438 -16.234  0.00  0.00    -0.296 OA
ATOM     32  O1  SGN d 802       2.149  57.606 -16.067  0.00  0.00    -0.348 OA
ATOM     33  C4  SGN d 802       0.462  58.305 -13.056  0.00  0.00     0.095 C 
ATOM     34  O6  SGN d 802      -2.289  57.761 -13.812  0.00  0.00    -0.254 OA
ATOM     35  C5  SGN d 802       0.028  57.285 -14.113  0.00  0.00     0.091 C 
ATOM     36  O4S SGN d 802      -4.134  56.934 -12.099  0.00  0.00    -0.572 OA
ATOM     37  C1  SGN d 802       1.108  58.566 -15.864  0.00  0.00     0.150 C 
ATOM     38  O6S SGN d 802      -4.495  56.438 -14.436  0.00  0.00    -0.572 OA
ATOM     39  O2S SGN d 802       1.596  62.594 -15.724  0.00  0.00    -0.296 OA
ATOM     40  S2  SGN d 802      -3.991  57.442 -13.479  0.00  0.00     0.251 S 
ATOM     41  C3  SGN d 802       1.771  58.952 -13.488  0.00  0.00     0.083 C 
ATOM     42  H   SGN d 802       3.006  60.321 -12.823  0.00  0.00     0.210 HD
ATOM     43  H   SGN d 802       3.307  60.497 -14.449  0.00  0.00     0.140 HD
ATOM     44  H   SGN d 802       3.029  60.784 -18.010  0.00  0.00     0.231 HD
ATOM     45  H   SGN d 802      -1.303  56.298 -12.764  0.00  0.00     0.080 H 
ATOM     46  H   SGN d 802      -1.597  55.926 -14.434  0.00  0.00     0.080 H 
ATOM     47  H   SGN d 802       0.795  60.356 -14.754  0.00  0.00     0.076 H 
ATOM     48  H   SGN d 802       4.161  62.679 -15.318  0.00  0.00     0.231 HD
ATOM     49  H   SGN d 802      -0.299  59.050 -12.954  0.00  0.00     0.091 H 
ATOM     50  H   SGN d 802       0.757  56.504 -14.159  0.00  0.00     0.090 H 
ATOM     51  H   SGN d 802       0.905  59.027 -16.808  0.00  0.00     0.131 H 
ATOM     52  H   SGN d 802       1.812  62.836 -14.809  0.00  0.00     0.231 HD
ATOM     53  H   SGN d 802       2.539  58.210 -13.560  0.00  0.00     0.089 H 
ATOM     54  O1  SGN d 804       5.994  51.440 -21.031  0.00  0.00    -0.369 OA
ATOM     55  C5  SGN d 804       6.754  53.830 -19.595  0.00  0.00     0.091 C 
ATOM     56  O6  SGN d 804       8.492  54.830 -18.243  0.00  0.00    -0.254 OA
ATOM     57  O6S SGN d 804      10.552  55.519 -16.716  0.00  0.00    -0.572 OA
ATOM     58  C1  SGN d 804       6.541  51.429 -19.711  0.00  0.00     0.147 C 
ATOM     59  N   SGN d 804       4.486  50.369 -18.927  0.00  0.00    -0.210 NA
ATOM     60  C4  SGN d 804       5.656  53.917 -18.534  0.00  0.00     0.095 C 
ATOM     61  O5S SGN d 804       9.088  57.289 -17.442  0.00  0.00    -0.572 OA
ATOM     62  O3S SGN d 804       6.367  48.640 -18.206  0.00  0.00    -0.296 OA
ATOM     63  S1  SGN d 804       4.972  48.685 -18.687  0.00  0.00     0.156 S 
ATOM     64  S2  SGN d 804       9.734  56.023 -17.836  0.00  0.00     0.251 S 
ATOM     65  O3  SGN d 804       3.667  52.806 -17.759  0.00  0.00    -0.391 OA
ATOM     66  O1S SGN d 804       4.867  47.959 -19.966  0.00  0.00    -0.296 OA
ATOM     67  O5  SGN d 804       7.409  52.554 -19.499  0.00  0.00    -0.350 OA
ATOM     68  C3  SGN d 804       4.671  52.773 -18.748  0.00  0.00     0.083 C 
ATOM     69  C6  SGN d 804       7.768  54.962 -19.464  0.00  0.00     0.067 C 
ATOM     70  O2S SGN d 804       4.088  48.051 -17.690  0.00  0.00    -0.296 OA
ATOM     71  C2  SGN d 804       5.419  51.449 -18.672  0.00  0.00     0.081 C 
ATOM     72  O4S SGN d 804      10.596  56.257 -19.009  0.00  0.00    -0.572 OA
ATOM     73  O4  SGN d 804       4.966  55.162 -18.658  0.00  0.00    -0.348 OA
ATOM     74  H   SGN d 804       5.413  50.672 -21.147  0.00  0.00     0.212 HD
ATOM     75  H   SGN d 804       6.296  53.929 -20.557  0.00  0.00     0.090 H 
ATOM     76  H   SGN d 804       7.112  50.531 -19.605  0.00  0.00     0.131 H 
ATOM     77  H   SGN d 804       4.201  50.454 -19.902  0.00  0.00     0.140 HD
ATOM     78  H   SGN d 804       6.092  53.850 -17.559  0.00  0.00     0.091 H 
ATOM     79  H   SGN d 804       6.948  49.057 -18.861  0.00  0.00     0.231 HD
ATOM     80  H   SGN d 804       3.190  53.650 -17.809  0.00  0.00     0.210 HD
ATOM     81  H   SGN d 804       5.448  48.376 -20.623  0.00  0.00     0.231 HD
ATOM     82  H   SGN d 804       4.212  52.876 -19.710  0.00  0.00     0.089 H 
ATOM     83  H   SGN d 804       7.253  55.900 -19.470  0.00  0.00     0.080 H 
ATOM     84  H   SGN d 804       8.452  54.917 -20.285  0.00  0.00     0.080 H 
ATOM     85  H   SGN d 804       4.156  48.527 -16.848  0.00  0.00     0.231 HD
ATOM     86  H   SGN d 804       5.851  51.329 -17.700  0.00  0.00     0.076 H 
ATOM     87  O5  UAP d 801      -0.514  59.211 -10.458  0.00  0.00    -0.311 OA
ATOM     88  O2  UAP d 801      -1.243  57.069  -8.737  0.00  0.00    -0.244 OA
ATOM     89  O1S UAP d 801      -3.104  55.917  -7.240  0.00  0.00    -0.572 OA
ATOM     90  O3S UAP d 801      -2.227  54.630  -9.077  0.00  0.00    -0.572 OA
ATOM     91  C1  UAP d 801      -0.393  57.843 -10.854  0.00  0.00     0.167 C 
ATOM     92  O2S UAP d 801      -0.884  54.996  -7.114  0.00  0.00    -0.572 OA
ATOM     93  C4  UAP d 801       1.253  58.905  -8.916  0.00  0.00    -0.034 C 
ATOM     94  C3  UAP d 801       1.129  57.463  -8.891  0.00  0.00     0.086 C 
ATOM     95  O62 UAP d 801      -0.101  61.772 -10.284  0.00  0.00    -0.642 OA
ATOM     96  S   UAP d 801      -1.891  55.592  -8.012  0.00  0.00     0.252 S 
ATOM     97  C6  UAP d 801       0.639  61.023  -9.605  0.00  0.00     0.233 C 
ATOM     98  C2  UAP d 801      -0.125  56.993  -9.620  0.00  0.00     0.135 C 
ATOM     99  C5  UAP d 801       0.462  59.702  -9.664  0.00  0.00     0.147 C 
ATOM    100  O61 UAP d 801       1.532  61.493  -8.862  0.00  0.00    -0.642 OA
ATOM    101  O3  UAP d 801       2.277  56.874  -9.461  0.00  0.00    -0.389 OA
ATOM    102  H   UAP d 801      -1.308  57.550 -11.323  0.00  0.00     0.134 H 
ATOM    103  H   UAP d 801       1.982  59.345  -8.333  0.00  0.00     0.085 H 
ATOM    104  H   UAP d 801       1.041  57.155  -7.870  0.00  0.00     0.093 H 
ATOM    105  H   UAP d 801       0.024  55.983  -9.936  0.00  0.00     0.097 H 
ATOM    106  H   UAP d 801       2.358  57.152 -10.387  0.00  0.00     0.210 HD
ENDROOT
TORSDOF 33
ENDMDL
MODEL 13
REMARK VINA RESULT:      -6.2      2.911      4.265
REMARK  0 active torsions:
REMARK  status: ('A' for Active; 'I' for Inactive)
REMARK       I    between atoms: C2_1  and  O2_62 
REMARK       I    between atoms: O3_2  and  C3_65 
REMARK       I    between atoms: O1_3  and  C1_15 
REMARK       I    between atoms: C5_5  and  C6_58 
REMARK       I    between atoms: C1_6  and  O4_70 
REMARK       I    between atoms: S_7  and  O2_62 
REMARK       I    between atoms: O2_9  and  C2_55 
REMARK       I    between atoms: O2_9  and  S_49 
REMARK       I    between atoms: O4_11  and  C1_28 
REMARK       I    between atoms: O4_11  and  C4_41 
REMARK       I    between atoms: O6_12  and  C6_58 
REMARK       I    between atoms: O6_12  and  S2_38 
REMARK       I    between atoms: S1_16  and  N_21 
REMARK       I    between atoms: S1_16  and  O1S_32 
REMARK       I    between atoms: S1_16  and  O2S_53 
REMARK       I    between atoms: S1_16  and  O3S_24 
REMARK       I    between atoms: N_18  and  C2_66 
REMARK       I    between atoms: N_18  and  S1_37 
REMARK       I    between atoms: C3_19  and  O3_27 
REMARK       I    between atoms: N_21  and  C2_31 
REMARK       I    between atoms: C4_22  and  O4_70 
REMARK       I    between atoms: C6_25  and  C5_46 
REMARK       I    between atoms: C6_25  and  O6_45 
REMARK       I    between atoms: O1_33  and  C1_51 
REMARK       I    between atoms: O1_33  and  C4_34 
REMARK       I    between atoms: O3S_35  and  S1_37 
REMARK       I    between atoms: S1_37  and  O1S_42 
REMARK       I    between atoms: S1_37  and  O2S_63 
REMARK       I    between atoms: O3_39  and  C3_54 
REMARK       I    between atoms: C6_40  and  C5_60 
REMARK       I    between atoms: C3_44  and  O3_64 
REMARK       I    between atoms: O6_45  and  S2_59 
REMARK       I    between atoms: C6_50  and  C5_56 
ROOT
ATOM      1  C2  IDS d 803       3.251  56.370 -13.860  0.00  0.00     0.134 C 
ATOM      2  C1  IDS d 803       3.717  56.946 -15.197  0.00  0.00     0.161 C 
ATOM      3  S   IDS d 803       2.829  53.659 -13.541  0.00  0.00     0.252 S 
ATOM      4  O3S IDS d 803       3.654  53.015 -14.581  0.00  0.00    -0.572 OA
ATOM      5  O5  IDS d 803       2.618  57.589 -15.861  0.00  0.00    -0.340 OA
ATOM      6  C3  IDS d 803       2.593  57.459 -13.014  0.00  0.00     0.094 C 
ATOM      7  O2S IDS d 803       3.609  53.759 -12.293  0.00  0.00    -0.572 OA
ATOM      8  O3  IDS d 803       3.537  58.430 -12.617  0.00  0.00    -0.390 OA
ATOM      9  C4  IDS d 803       1.452  58.103 -13.802  0.00  0.00     0.103 C 
ATOM     10  C6  IDS d 803       0.890  59.237 -15.954  0.00  0.00     0.206 C 
ATOM     11  O61 IDS d 803       0.580  60.438 -15.794  0.00  0.00    -0.646 OA
ATOM     12  C5  IDS d 803       2.015  58.656 -15.112  0.00  0.00     0.152 C 
ATOM     13  O2  IDS d 803       2.359  55.278 -14.074  0.00  0.00    -0.244 OA
ATOM     14  O62 IDS d 803       0.331  58.503 -16.797  0.00  0.00    -0.646 OA
ATOM     15  O1S IDS d 803       1.619  52.850 -13.302  0.00  0.00    -0.572 OA
ATOM     16  H   IDS d 803       4.103  56.002 -13.327  0.00  0.00     0.097 H 
ATOM     17  H   IDS d 803       4.057  56.147 -15.822  0.00  0.00     0.133 H 
ATOM     18  H   IDS d 803       2.194  57.012 -12.127  0.00  0.00     0.091 H 
ATOM     19  H   IDS d 803       3.916  58.853 -13.404  0.00  0.00     0.210 HD
ATOM     20  H   IDS d 803       1.017  58.892 -13.226  0.00  0.00     0.092 H 
ATOM     21  H   IDS d 803       2.736  59.413 -14.884  0.00  0.00     0.104 H 
ATOM     22  O3  SGN d 802      -2.507  54.136 -14.412  0.00  0.00    -0.391 OA
ATOM     23  O4  SGN d 802      -3.357  56.063 -16.286  0.00  0.00    -0.348 OA
ATOM     24  S1  SGN d 802      -0.324  54.593 -10.888  0.00  0.00     0.156 S 
ATOM     25  O5S SGN d 802      -6.312  60.036 -13.250  0.00  0.00    -0.572 OA
ATOM     26  N   SGN d 802      -0.423  54.857 -12.633  0.00  0.00    -0.210 NA
ATOM     27  O3S SGN d 802       0.449  55.688 -10.274  0.00  0.00    -0.296 OA
ATOM     28  C6  SGN d 802      -3.219  58.878 -15.434  0.00  0.00     0.067 C 
ATOM     29  O5  SGN d 802      -1.677  58.136 -13.760  0.00  0.00    -0.349 OA
ATOM     30  C2  SGN d 802      -1.367  55.830 -13.141  0.00  0.00     0.081 C 
ATOM     31  O1S SGN d 802       0.346  53.307 -10.625  0.00  0.00    -0.296 OA
ATOM     32  O1  SGN d 802       0.443  57.130 -14.086  0.00  0.00    -0.348 OA
ATOM     33  C4  SGN d 802      -2.889  56.438 -14.989  0.00  0.00     0.095 C 
ATOM     34  O6  SGN d 802      -4.175  58.971 -14.381  0.00  0.00    -0.254 OA
ATOM     35  C5  SGN d 802      -2.206  57.808 -15.056  0.00  0.00     0.091 C 
ATOM     36  O4S SGN d 802      -6.321  59.858 -15.657  0.00  0.00    -0.572 OA
ATOM     37  C1  SGN d 802      -0.712  57.205 -13.246  0.00  0.00     0.150 C 
ATOM     38  O6S SGN d 802      -4.925  61.502 -14.569  0.00  0.00    -0.572 OA
ATOM     39  O2S SGN d 802      -1.684  54.570 -10.314  0.00  0.00    -0.296 OA
ATOM     40  S2  SGN d 802      -5.490  60.142 -14.469  0.00  0.00     0.251 S 
ATOM     41  C3  SGN d 802      -1.887  55.399 -14.506  0.00  0.00     0.083 C 
ATOM     42  H   SGN d 802      -1.861  53.481 -14.103  0.00  0.00     0.210 HD
ATOM     43  H   SGN d 802      -0.660  53.960 -13.058  0.00  0.00     0.140 HD
ATOM     44  H   SGN d 802       1.343  55.703 -10.650  0.00  0.00     0.231 HD
ATOM     45  H   SGN d 802      -3.708  58.609 -16.347  0.00  0.00     0.080 H 
ATOM     46  H   SGN d 802      -2.730  59.819 -15.575  0.00  0.00     0.080 H 
ATOM     47  H   SGN d 802      -2.189  55.890 -12.458  0.00  0.00     0.076 H 
ATOM     48  H   SGN d 802      -0.165  52.588 -11.030  0.00  0.00     0.231 HD
ATOM     49  H   SGN d 802      -3.717  56.492 -14.314  0.00  0.00     0.091 H 
ATOM     50  H   SGN d 802      -1.426  57.768 -15.786  0.00  0.00     0.090 H 
ATOM     51  H   SGN d 802      -0.389  57.541 -12.282  0.00  0.00     0.131 H 
ATOM     52  H   SGN d 802      -2.193  53.849 -10.719  0.00  0.00     0.231 HD
ATOM     53  H   SGN d 802      -1.075  55.324 -15.199  0.00  0.00     0.089 H 
ATOM     54  O1  SGN d 804       8.212  60.333 -16.701  0.00  0.00    -0.369 OA
ATOM     55  C5  SGN d 804       7.098  57.799 -15.869  0.00  0.00     0.091 C 
ATOM     56  O6  SGN d 804       7.150  55.414 -16.268  0.00  0.00    -0.254 OA
ATOM     57  O6S SGN d 804       7.410  52.899 -17.079  0.00  0.00    -0.572 OA
ATOM     58  C1  SGN d 804       7.753  59.333 -17.612  0.00  0.00     0.147 C 
ATOM     59  N   SGN d 804       6.126  60.938 -18.470  0.00  0.00    -0.210 NA
ATOM     60  C4  SGN d 804       5.618  57.985 -16.205  0.00  0.00     0.095 C 
ATOM     61  O5S SGN d 804       6.307  53.259 -14.967  0.00  0.00    -0.572 OA
ATOM     62  O3S SGN d 804       7.514  60.275 -20.634  0.00  0.00    -0.296 OA
ATOM     63  S1  SGN d 804       6.826  61.429 -20.019  0.00  0.00     0.156 S 
ATOM     64  S2  SGN d 804       7.399  53.713 -15.849  0.00  0.00     0.251 S 
ATOM     65  O3  SGN d 804       4.058  59.579 -17.109  0.00  0.00    -0.391 OA
ATOM     66  O1S SGN d 804       7.795  62.518 -19.794  0.00  0.00    -0.296 OA
ATOM     67  O5  SGN d 804       7.886  58.017 -17.052  0.00  0.00    -0.350 OA
ATOM     68  C3  SGN d 804       5.410  59.392 -16.755  0.00  0.00     0.083 C 
ATOM     69  C6  SGN d 804       7.383  56.419 -15.284  0.00  0.00     0.067 C 
ATOM     70  O2S SGN d 804       5.757  61.901 -20.919  0.00  0.00    -0.296 OA
ATOM     71  C2  SGN d 804       6.291  59.583 -17.983  0.00  0.00     0.081 C 
ATOM     72  O4S SGN d 804       8.688  53.563 -15.147  0.00  0.00    -0.572 OA
ATOM     73  O4  SGN d 804       4.833  57.822 -15.022  0.00  0.00    -0.348 OA
ATOM     74  H   SGN d 804       8.111  61.209 -17.104  0.00  0.00     0.212 HD
ATOM     75  H   SGN d 804       7.363  58.517 -15.121  0.00  0.00     0.090 H 
ATOM     76  H   SGN d 804       8.360  59.392 -18.492  0.00  0.00     0.131 H 
ATOM     77  H   SGN d 804       6.525  61.554 -17.762  0.00  0.00     0.140 HD
ATOM     78  H   SGN d 804       5.319  57.258 -16.931  0.00  0.00     0.091 H 
ATOM     79  H   SGN d 804       8.217  59.965 -20.042  0.00  0.00     0.231 HD
ATOM     80  H   SGN d 804       3.498  59.458 -16.326  0.00  0.00     0.210 HD
ATOM     81  H   SGN d 804       8.498  62.208 -19.202  0.00  0.00     0.231 HD
ATOM     82  H   SGN d 804       5.673  60.108 -16.004  0.00  0.00     0.089 H 
ATOM     83  H   SGN d 804       6.740  56.250 -14.446  0.00  0.00     0.080 H 
ATOM     84  H   SGN d 804       8.405  56.375 -14.972  0.00  0.00     0.080 H 
ATOM     85  H   SGN d 804       5.120  61.185 -21.068  0.00  0.00     0.231 HD
ATOM     86  H   SGN d 804       6.007  58.889 -18.747  0.00  0.00     0.076 H 
ATOM     87  O5  UAP d 801      -5.519  55.348 -15.636  0.00  0.00    -0.311 OA
ATOM     88  O2  UAP d 801      -6.485  56.204 -18.168  0.00  0.00    -0.244 OA
ATOM     89  O1S UAP d 801      -8.406  57.387 -19.563  0.00  0.00    -0.572 OA
ATOM     90  O3S UAP d 801      -6.218  58.390 -19.646  0.00  0.00    -0.572 OA
ATOM     91  C1  UAP d 801      -4.764  56.216 -16.483  0.00  0.00     0.167 C 
ATOM     92  O2S UAP d 801      -6.644  56.331 -20.817  0.00  0.00    -0.572 OA
ATOM     93  C4  UAP d 801      -5.172  53.578 -17.165  0.00  0.00    -0.034 C 
ATOM     94  C3  UAP d 801      -4.836  54.451 -18.270  0.00  0.00     0.086 C 
ATOM     95  O62 UAP d 801      -6.120  53.562 -13.844  0.00  0.00    -0.642 OA
ATOM     96  S   UAP d 801      -6.957  57.115 -19.608  0.00  0.00     0.252 S 
ATOM     97  C6  UAP d 801      -5.807  53.150 -14.985  0.00  0.00     0.233 C 
ATOM     98  C2  UAP d 801      -5.109  55.913 -17.934  0.00  0.00     0.135 C 
ATOM     99  C5  UAP d 801      -5.491  54.032 -15.934  0.00  0.00     0.147 C 
ATOM    100  O61 UAP d 801      -5.797  51.925 -15.252  0.00  0.00    -0.642 OA
ATOM    101  O3  UAP d 801      -3.483  54.272 -18.626  0.00  0.00    -0.389 OA
ATOM    102  H   UAP d 801      -5.018  57.226 -16.237  0.00  0.00     0.134 H 
ATOM    103  H   UAP d 801      -5.166  52.558 -17.325  0.00  0.00     0.085 H 
ATOM    104  H   UAP d 801      -5.460  54.190 -19.099  0.00  0.00     0.093 H 
ATOM    105  H   UAP d 801      -4.493  56.525 -18.559  0.00  0.00     0.097 H 
ATOM    106  H   UAP d 801      -2.917  54.509 -17.875  0.00  0.00     0.210 HD
ENDROOT
TORSDOF 33
ENDMDL
MODEL 14
REMARK VINA RESULT:      -6.1      1.597      2.029
REMARK  0 active torsions:
REMARK  status: ('A' for Active; 'I' for Inactive)
REMARK       I    between atoms: C2_1  and  O2_62 
REMARK       I    between atoms: O3_2  and  C3_65 
REMARK       I    between atoms: O1_3  and  C1_15 
REMARK       I    between atoms: C5_5  and  C6_58 
REMARK       I    between atoms: C1_6  and  O4_70 
REMARK       I    between atoms: S_7  and  O2_62 
REMARK       I    between atoms: O2_9  and  C2_55 
REMARK       I    between atoms: O2_9  and  S_49 
REMARK       I    between atoms: O4_11  and  C1_28 
REMARK       I    between atoms: O4_11  and  C4_41 
REMARK       I    between atoms: O6_12  and  C6_58 
REMARK       I    between atoms: O6_12  and  S2_38 
REMARK       I    between atoms: S1_16  and  N_21 
REMARK       I    between atoms: S1_16  and  O1S_32 
REMARK       I    between atoms: S1_16  and  O2S_53 
REMARK       I    between atoms: S1_16  and  O3S_24 
REMARK       I    between atoms: N_18  and  C2_66 
REMARK       I    between atoms: N_18  and  S1_37 
REMARK       I    between atoms: C3_19  and  O3_27 
REMARK       I    between atoms: N_21  and  C2_31 
REMARK       I    between atoms: C4_22  and  O4_70 
REMARK       I    between atoms: C6_25  and  C5_46 
REMARK       I    between atoms: C6_25  and  O6_45 
REMARK       I    between atoms: O1_33  and  C1_51 
REMARK       I    between atoms: O1_33  and  C4_34 
REMARK       I    between atoms: O3S_35  and  S1_37 
REMARK       I    between atoms: S1_37  and  O1S_42 
REMARK       I    between atoms: S1_37  and  O2S_63 
REMARK       I    between atoms: O3_39  and  C3_54 
REMARK       I    between atoms: C6_40  and  C5_60 
REMARK       I    between atoms: C3_44  and  O3_64 
REMARK       I    between atoms: O6_45  and  S2_59 
REMARK       I    between atoms: C6_50  and  C5_56 
ROOT
ATOM      1  C2  IDS d 803       4.496  54.790 -14.138  0.00  0.00     0.134 C 
ATOM      2  C1  IDS d 803       4.229  55.985 -15.052  0.00  0.00     0.161 C 
ATOM      3  S   IDS d 803       4.941  52.268 -15.171  0.00  0.00     0.252 S 
ATOM      4  O3S IDS d 803       5.418  52.495 -16.549  0.00  0.00    -0.572 OA
ATOM      5  O5  IDS d 803       2.832  56.318 -15.025  0.00  0.00    -0.340 OA
ATOM      6  C3  IDS d 803       3.975  55.074 -12.729  0.00  0.00     0.094 C 
ATOM      7  O2S IDS d 803       6.100  52.180 -14.263  0.00  0.00    -0.572 OA
ATOM      8  O3  IDS d 803       4.718  56.105 -12.113  0.00  0.00    -0.390 OA
ATOM      9  C4  IDS d 803       2.493  55.440 -12.793  0.00  0.00     0.103 C 
ATOM     10  C6  IDS d 803       0.852  56.987 -13.865  0.00  0.00     0.206 C 
ATOM     11  O61 IDS d 803       0.337  57.779 -13.046  0.00  0.00    -0.646 OA
ATOM     12  C5  IDS d 803       2.327  56.646 -13.720  0.00  0.00     0.152 C 
ATOM     13  O2  IDS d 803       3.903  53.610 -14.675  0.00  0.00    -0.244 OA
ATOM     14  O62 IDS d 803       0.211  56.487 -14.814  0.00  0.00    -0.646 OA
ATOM     15  O1S IDS d 803       4.176  51.009 -15.118  0.00  0.00    -0.572 OA
ATOM     16  H   IDS d 803       5.553  54.632 -14.077  0.00  0.00     0.097 H 
ATOM     17  H   IDS d 803       4.483  55.719 -16.057  0.00  0.00     0.133 H 
ATOM     18  H   IDS d 803       4.091  54.192 -12.134  0.00  0.00     0.091 H 
ATOM     19  H   IDS d 803       4.632  56.920 -12.632  0.00  0.00     0.210 HD
ATOM     20  H   IDS d 803       2.137  55.678 -11.813  0.00  0.00     0.092 H 
ATOM     21  H   IDS d 803       2.861  57.474 -13.305  0.00  0.00     0.104 H 
ATOM     22  O3  SGN d 802      -0.230  50.788 -14.446  0.00  0.00    -0.391 OA
ATOM     23  O4  SGN d 802      -2.215  52.756 -14.816  0.00  0.00    -0.348 OA
ATOM     24  S1  SGN d 802       2.979  50.674 -11.786  0.00  0.00     0.156 S 
ATOM     25  O5S SGN d 802      -4.625  53.581  -9.595  0.00  0.00    -0.572 OA
ATOM     26  N   SGN d 802       2.131  51.540 -13.072  0.00  0.00    -0.210 NA
ATOM     27  O3S SGN d 802       3.627  51.649 -10.889  0.00  0.00    -0.296 OA
ATOM     28  C6  SGN d 802      -2.471  54.782 -12.695  0.00  0.00     0.067 C 
ATOM     29  O5  SGN d 802      -0.257  54.151 -12.038  0.00  0.00    -0.349 OA
ATOM     30  C2  SGN d 802       0.849  52.146 -12.780  0.00  0.00     0.081 C 
ATOM     31  O1S SGN d 802       4.002  49.795 -12.380  0.00  0.00    -0.296 OA
ATOM     32  O1  SGN d 802       1.738  54.336 -13.302  0.00  0.00    -0.348 OA
ATOM     33  C4  SGN d 802      -1.383  52.744 -13.655  0.00  0.00     0.095 C 
ATOM     34  O6  SGN d 802      -2.919  54.044 -11.560  0.00  0.00    -0.254 OA
ATOM     35  C5  SGN d 802      -1.156  54.176 -13.160  0.00  0.00     0.091 C 
ATOM     36  O4S SGN d 802      -5.544  54.384 -11.677  0.00  0.00    -0.572 OA
ATOM     37  C1  SGN d 802       1.034  53.586 -12.308  0.00  0.00     0.150 C 
ATOM     38  O6S SGN d 802      -4.299  55.880 -10.246  0.00  0.00    -0.572 OA
ATOM     39  O2S SGN d 802       2.015  49.864 -11.017  0.00  0.00    -0.296 OA
ATOM     40  S2  SGN d 802      -4.411  54.492 -10.736  0.00  0.00     0.251 S 
ATOM     41  C3  SGN d 802      -0.043  52.117 -14.014  0.00  0.00     0.083 C 
ATOM     42  H   SGN d 802       0.629  50.398 -14.673  0.00  0.00     0.210 HD
ATOM     43  H   SGN d 802       1.981  50.876 -13.832  0.00  0.00     0.140 HD
ATOM     44  H   SGN d 802       4.260  52.181 -11.394  0.00  0.00     0.231 HD
ATOM     45  H   SGN d 802      -3.198  54.720 -13.478  0.00  0.00     0.080 H 
ATOM     46  H   SGN d 802      -2.336  55.812 -12.438  0.00  0.00     0.080 H 
ATOM     47  H   SGN d 802       0.381  51.583 -11.999  0.00  0.00     0.076 H 
ATOM     48  H   SGN d 802       3.574  49.154 -12.970  0.00  0.00     0.231 HD
ATOM     49  H   SGN d 802      -1.858  52.177 -12.882  0.00  0.00     0.091 H 
ATOM     50  H   SGN d 802      -0.748  54.757 -13.960  0.00  0.00     0.090 H 
ATOM     51  H   SGN d 802       1.617  53.614 -11.410  0.00  0.00     0.131 H 
ATOM     52  H   SGN d 802       1.589  49.222 -11.608  0.00  0.00     0.231 HD
ATOM     53  H   SGN d 802       0.417  52.668 -14.809  0.00  0.00     0.089 H 
ATOM     54  O1  SGN d 804       6.731  61.220 -15.568  0.00  0.00    -0.369 OA
ATOM     55  C5  SGN d 804       6.724  58.353 -15.931  0.00  0.00     0.091 C 
ATOM     56  O6  SGN d 804       7.218  56.579 -17.499  0.00  0.00    -0.254 OA
ATOM     57  O6S SGN d 804       7.766  54.948 -19.521  0.00  0.00    -0.572 OA
ATOM     58  C1  SGN d 804       6.218  60.572 -16.733  0.00  0.00     0.147 C 
ATOM     59  N   SGN d 804       4.034  61.551 -16.252  0.00  0.00    -0.210 NA
ATOM     60  C4  SGN d 804       5.239  58.024 -15.780  0.00  0.00     0.095 C 
ATOM     61  O5S SGN d 804       7.542  53.949 -17.340  0.00  0.00    -0.572 OA
ATOM     62  O3S SGN d 804       4.565  62.440 -18.696  0.00  0.00    -0.296 OA
ATOM     63  S1  SGN d 804       3.910  62.856 -17.439  0.00  0.00     0.156 S 
ATOM     64  S2  SGN d 804       8.038  55.124 -18.082  0.00  0.00     0.251 S 
ATOM     65  O3  SGN d 804       3.098  59.040 -15.358  0.00  0.00    -0.391 OA
ATOM     66  O1S SGN d 804       4.576  64.061 -16.911  0.00  0.00    -0.296 OA
ATOM     67  O5  SGN d 804       6.893  59.327 -16.975  0.00  0.00    -0.350 OA
ATOM     68  C3  SGN d 804       4.478  59.308 -15.466  0.00  0.00     0.083 C 
ATOM     69  C6  SGN d 804       7.559  57.110 -16.220  0.00  0.00     0.067 C 
ATOM     70  O2S SGN d 804       2.490  63.156 -17.701  0.00  0.00    -0.296 OA
ATOM     71  C2  SGN d 804       4.718  60.316 -16.582  0.00  0.00     0.081 C 
ATOM     72  O4S SGN d 804       9.491  55.257 -17.869  0.00  0.00    -0.572 OA
ATOM     73  O4  SGN d 804       5.058  57.096 -14.708  0.00  0.00    -0.348 OA
ATOM     74  H   SGN d 804       6.258  62.056 -15.428  0.00  0.00     0.212 HD
ATOM     75  H   SGN d 804       7.073  58.755 -15.002  0.00  0.00     0.090 H 
ATOM     76  H   SGN d 804       6.388  61.221 -17.567  0.00  0.00     0.131 H 
ATOM     77  H   SGN d 804       4.510  61.940 -15.439  0.00  0.00     0.140 HD
ATOM     78  H   SGN d 804       4.872  57.592 -16.688  0.00  0.00     0.091 H 
ATOM     79  H   SGN d 804       5.499  62.244 -18.524  0.00  0.00     0.231 HD
ATOM     80  H   SGN d 804       2.947  58.399 -14.646  0.00  0.00     0.210 HD
ATOM     81  H   SGN d 804       5.510  63.865 -16.738  0.00  0.00     0.231 HD
ATOM     82  H   SGN d 804       4.827  59.707 -14.535  0.00  0.00     0.089 H 
ATOM     83  H   SGN d 804       7.369  56.373 -15.468  0.00  0.00     0.080 H 
ATOM     84  H   SGN d 804       8.596  57.374 -16.214  0.00  0.00     0.080 H 
ATOM     85  H   SGN d 804       2.051  62.364 -18.049  0.00  0.00     0.231 HD
ATOM     86  H   SGN d 804       4.340  59.933 -17.507  0.00  0.00     0.076 H 
ATOM     87  O5  UAP d 801      -3.681  51.015 -14.159  0.00  0.00    -0.311 OA
ATOM     88  O2  UAP d 801      -5.757  52.318 -15.597  0.00  0.00    -0.244 OA
ATOM     89  O1S UAP d 801      -8.306  53.041 -15.711  0.00  0.00    -0.572 OA
ATOM     90  O3S UAP d 801      -6.666  54.804 -15.757  0.00  0.00    -0.572 OA
ATOM     91  C1  UAP d 801      -3.573  52.374 -14.584  0.00  0.00     0.167 C 
ATOM     92  O2S UAP d 801      -6.983  53.404 -17.689  0.00  0.00    -0.572 OA
ATOM     93  C4  UAP d 801      -3.532  50.314 -16.412  0.00  0.00    -0.034 C 
ATOM     94  C3  UAP d 801      -3.898  51.606 -16.953  0.00  0.00     0.086 C 
ATOM     95  O62 UAP d 801      -3.043  48.594 -13.458  0.00  0.00    -0.642 OA
ATOM     96  S   UAP d 801      -6.978  53.438 -16.215  0.00  0.00     0.252 S 
ATOM     97  C6  UAP d 801      -3.115  48.837 -14.685  0.00  0.00     0.233 C 
ATOM     98  C2  UAP d 801      -4.377  52.558 -15.863  0.00  0.00     0.135 C 
ATOM     99  C5  UAP d 801      -3.440  50.066 -15.089  0.00  0.00     0.147 C 
ATOM    100  O61 UAP d 801      -2.902  47.944 -15.538  0.00  0.00    -0.642 OA
ATOM    101  O3  UAP d 801      -2.802  52.163 -17.645  0.00  0.00    -0.389 OA
ATOM    102  H   UAP d 801      -3.956  52.999 -13.804  0.00  0.00     0.134 H 
ATOM    103  H   UAP d 801      -3.331  49.545 -17.071  0.00  0.00     0.085 H 
ATOM    104  H   UAP d 801      -4.711  51.462 -17.634  0.00  0.00     0.093 H 
ATOM    105  H   UAP d 801      -4.238  53.562 -16.204  0.00  0.00     0.097 H 
ATOM    106  H   UAP d 801      -2.064  52.294 -17.029  0.00  0.00     0.210 HD
ENDROOT
TORSDOF 33
ENDMDL
MODEL 15
REMARK VINA RESULT:      -6.1      3.101     11.120
REMARK  0 active torsions:
REMARK  status: ('A' for Active; 'I' for Inactive)
REMARK       I    between atoms: C2_1  and  O2_62 
REMARK       I    between atoms: O3_2  and  C3_65 
REMARK       I    between atoms: O1_3  and  C1_15 
REMARK       I    between atoms: C5_5  and  C6_58 
REMARK       I    between atoms: C1_6  and  O4_70 
REMARK       I    between atoms: S_7  and  O2_62 
REMARK       I    between atoms: O2_9  and  C2_55 
REMARK       I    between atoms: O2_9  and  S_49 
REMARK       I    between atoms: O4_11  and  C1_28 
REMARK       I    between atoms: O4_11  and  C4_41 
REMARK       I    between atoms: O6_12  and  C6_58 
REMARK       I    between atoms: O6_12  and  S2_38 
REMARK       I    between atoms: S1_16  and  N_21 
REMARK       I    between atoms: S1_16  and  O1S_32 
REMARK       I    between atoms: S1_16  and  O2S_53 
REMARK       I    between atoms: S1_16  and  O3S_24 
REMARK       I    between atoms: N_18  and  C2_66 
REMARK       I    between atoms: N_18  and  S1_37 
REMARK       I    between atoms: C3_19  and  O3_27 
REMARK       I    between atoms: N_21  and  C2_31 
REMARK       I    between atoms: C4_22  and  O4_70 
REMARK       I    between atoms: C6_25  and  C5_46 
REMARK       I    between atoms: C6_25  and  O6_45 
REMARK       I    between atoms: O1_33  and  C1_51 
REMARK       I    between atoms: O1_33  and  C4_34 
REMARK       I    between atoms: O3S_35  and  S1_37 
REMARK       I    between atoms: S1_37  and  O1S_42 
REMARK       I    between atoms: S1_37  and  O2S_63 
REMARK       I    between atoms: O3_39  and  C3_54 
REMARK       I    between atoms: C6_40  and  C5_60 
REMARK       I    between atoms: C3_44  and  O3_64 
REMARK       I    between atoms: O6_45  and  S2_59 
REMARK       I    between atoms: C6_50  and  C5_56 
ROOT
ATOM      1  C2  IDS d 803      -0.955  56.474 -13.802  0.00  0.00     0.134 C 
ATOM      2  C1  IDS d 803      -1.699  55.940 -15.025  0.00  0.00     0.161 C 
ATOM      3  S   IDS d 803       0.564  58.777 -13.943  0.00  0.00     0.252 S 
ATOM      4  O3S IDS d 803       0.013  59.532 -15.086  0.00  0.00    -0.572 OA
ATOM      5  O5  IDS d 803      -1.004  54.802 -15.560  0.00  0.00    -0.340 OA
ATOM      6  C3  IDS d 803      -0.751  55.359 -12.776  0.00  0.00     0.094 C 
ATOM      7  O2S IDS d 803      -0.110  59.210 -12.704  0.00  0.00    -0.572 OA
ATOM      8  O3  IDS d 803      -1.985  54.945 -12.229  0.00  0.00    -0.390 OA
ATOM      9  C4  IDS d 803      -0.028  54.184 -13.432  0.00  0.00     0.103 C 
ATOM     10  C6  IDS d 803      -0.116  52.593 -15.355  0.00  0.00     0.206 C 
ATOM     11  O61 IDS d 803      -0.318  51.414 -14.990  0.00  0.00    -0.646 OA
ATOM     12  C5  IDS d 803      -0.849  53.714 -14.635  0.00  0.00     0.152 C 
ATOM     13  O2  IDS d 803       0.292  57.047 -14.189  0.00  0.00    -0.244 OA
ATOM     14  O62 IDS d 803       0.642  52.885 -16.305  0.00  0.00    -0.646 OA
ATOM     15  O1S IDS d 803       2.011  59.037 -13.834  0.00  0.00    -0.572 OA
ATOM     16  H   IDS d 803      -1.545  57.242 -13.347  0.00  0.00     0.097 H 
ATOM     17  H   IDS d 803      -1.718  56.698 -15.780  0.00  0.00     0.133 H 
ATOM     18  H   IDS d 803      -0.150  55.734 -11.974  0.00  0.00     0.091 H 
ATOM     19  H   IDS d 803      -2.552  54.598 -12.936  0.00  0.00     0.210 HD
ATOM     20  H   IDS d 803       0.079  53.387 -12.727  0.00  0.00     0.092 H 
ATOM     21  H   IDS d 803      -1.801  53.373 -14.288  0.00  0.00     0.104 H 
ATOM     22  O3  SGN d 802       5.166  55.994 -14.670  0.00  0.00    -0.391 OA
ATOM     23  O4  SGN d 802       5.030  53.618 -16.181  0.00  0.00    -0.348 OA
ATOM     24  S1  SGN d 802       3.212  57.050 -11.141  0.00  0.00     0.156 S 
ATOM     25  O5S SGN d 802       6.274  49.312 -12.487  0.00  0.00    -0.572 OA
ATOM     26  N   SGN d 802       3.085  56.496 -12.814  0.00  0.00    -0.210 NA
ATOM     27  O3S SGN d 802       2.097  56.489 -10.356  0.00  0.00    -0.296 OA
ATOM     28  C6  SGN d 802       3.800  51.289 -14.865  0.00  0.00     0.067 C 
ATOM     29  O5  SGN d 802       2.807  52.860 -13.356  0.00  0.00    -0.349 OA
ATOM     30  C2  SGN d 802       3.512  55.152 -13.140  0.00  0.00     0.081 C 
ATOM     31  O1S SGN d 802       3.148  58.522 -11.106  0.00  0.00    -0.296 OA
ATOM     32  O1  SGN d 802       1.272  54.591 -13.868  0.00  0.00    -0.348 OA
ATOM     33  C4  SGN d 802       4.531  53.682 -14.844  0.00  0.00     0.095 C 
ATOM     34  O6  SGN d 802       4.698  50.975 -13.802  0.00  0.00    -0.254 OA
ATOM     35  C5  SGN d 802       3.343  52.729 -14.684  0.00  0.00     0.091 C 
ATOM     36  O4S SGN d 802       6.205  49.087 -14.888  0.00  0.00    -0.572 OA
ATOM     37  C1  SGN d 802       2.344  54.176 -13.017  0.00  0.00     0.150 C 
ATOM     38  O6S SGN d 802       4.328  48.367 -13.550  0.00  0.00    -0.572 OA
ATOM     39  O2S SGN d 802       4.494  56.597 -10.566  0.00  0.00    -0.296 OA
ATOM     40  S2  SGN d 802       5.406  49.366 -13.678  0.00  0.00     0.251 S 
ATOM     41  C3  SGN d 802       4.077  55.106 -14.554  0.00  0.00     0.083 C 
ATOM     42  H   SGN d 802       4.867  56.898 -14.483  0.00  0.00     0.210 HD
ATOM     43  H   SGN d 802       3.642  57.134 -13.383  0.00  0.00     0.140 HD
ATOM     44  H   SGN d 802       1.254  56.787 -10.733  0.00  0.00     0.231 HD
ATOM     45  H   SGN d 802       4.299  51.182 -15.805  0.00  0.00     0.080 H 
ATOM     46  H   SGN d 802       2.960  50.627 -14.849  0.00  0.00     0.080 H 
ATOM     47  H   SGN d 802       4.277  54.865 -12.449  0.00  0.00     0.076 H 
ATOM     48  H   SGN d 802       3.882  58.890 -11.622  0.00  0.00     0.231 HD
ATOM     49  H   SGN d 802       5.304  53.396 -14.161  0.00  0.00     0.091 H 
ATOM     50  H   SGN d 802       2.604  52.973 -15.418  0.00  0.00     0.090 H 
ATOM     51  H   SGN d 802       1.972  54.162 -12.013  0.00  0.00     0.131 H 
ATOM     52  H   SGN d 802       5.227  56.966 -11.082  0.00  0.00     0.231 HD
ATOM     53  H   SGN d 802       3.326  55.400 -15.257  0.00  0.00     0.089 H 
ATOM     54  O1  SGN d 804      -7.272  54.537 -15.974  0.00  0.00    -0.369 OA
ATOM     55  C5  SGN d 804      -5.166  56.475 -15.574  0.00  0.00     0.091 C 
ATOM     56  O6  SGN d 804      -4.257  58.569 -16.373  0.00  0.00    -0.254 OA
ATOM     57  O6S SGN d 804      -3.511  60.801 -17.602  0.00  0.00    -0.572 OA
ATOM     58  C1  SGN d 804      -6.501  55.097 -17.038  0.00  0.00     0.147 C 
ATOM     59  N   SGN d 804      -5.734  52.847 -17.595  0.00  0.00    -0.210 NA
ATOM     60  C4  SGN d 804      -3.917  55.640 -15.859  0.00  0.00     0.095 C 
ATOM     61  O5S SGN d 804      -2.524  60.355 -15.450  0.00  0.00    -0.572 OA
ATOM     62  O3S SGN d 804      -6.858  53.675 -19.853  0.00  0.00    -0.296 OA
ATOM     63  S1  SGN d 804      -6.669  52.454 -19.044  0.00  0.00     0.156 S 
ATOM     64  S2  SGN d 804      -3.759  60.263 -16.251  0.00  0.00     0.251 S 
ATOM     65  O3  SGN d 804      -3.210  53.420 -16.465  0.00  0.00    -0.391 OA
ATOM     66  O1S SGN d 804      -7.983  51.917 -18.647  0.00  0.00    -0.296 OA
ATOM     67  O5  SGN d 804      -6.045  56.420 -16.710  0.00  0.00    -0.350 OA
ATOM     68  C3  SGN d 804      -4.341  54.206 -16.161  0.00  0.00     0.083 C 
ATOM     69  C6  SGN d 804      -4.821  57.922 -15.235  0.00  0.00     0.067 C 
ATOM     70  O2S SGN d 804      -5.947  51.444 -19.842  0.00  0.00    -0.296 OA
ATOM     71  C2  SGN d 804      -5.296  54.207 -17.347  0.00  0.00     0.081 C 
ATOM     72  O4S SGN d 804      -4.825  61.044 -15.598  0.00  0.00    -0.572 OA
ATOM     73  O4  SGN d 804      -3.062  55.647 -14.714  0.00  0.00    -0.348 OA
ATOM     74  H   SGN d 804      -7.566  53.646 -16.221  0.00  0.00     0.212 HD
ATOM     75  H   SGN d 804      -5.656  56.060 -14.718  0.00  0.00     0.090 H 
ATOM     76  H   SGN d 804      -7.132  55.157 -17.900  0.00  0.00     0.131 H 
ATOM     77  H   SGN d 804      -6.306  52.574 -16.797  0.00  0.00     0.140 HD
ATOM     78  H   SGN d 804      -3.392  56.052 -16.696  0.00  0.00     0.091 H 
ATOM     79  H   SGN d 804      -7.333  54.339 -19.329  0.00  0.00     0.231 HD
ATOM     80  H   SGN d 804      -2.602  53.420 -15.709  0.00  0.00     0.210 HD
ATOM     81  H   SGN d 804      -8.459  52.580 -18.123  0.00  0.00     0.231 HD
ATOM     82  H   SGN d 804      -4.828  53.793 -15.302  0.00  0.00     0.089 H 
ATOM     83  H   SGN d 804      -4.115  57.938 -14.432  0.00  0.00     0.080 H 
ATOM     84  H   SGN d 804      -5.714  58.436 -14.945  0.00  0.00     0.080 H 
ATOM     85  H   SGN d 804      -5.082  51.796 -20.104  0.00  0.00     0.231 HD
ATOM     86  H   SGN d 804      -4.801  54.589 -18.214  0.00  0.00     0.076 H 
ATOM     87  O5  UAP d 801       7.331  53.463 -15.642  0.00  0.00    -0.311 OA
ATOM     88  O2  UAP d 801       7.700  51.893 -17.982  0.00  0.00    -0.244 OA
ATOM     89  O1S UAP d 801       8.874  49.814 -19.138  0.00  0.00    -0.572 OA
ATOM     90  O3S UAP d 801       6.467  49.812 -19.070  0.00  0.00    -0.572 OA
ATOM     91  C1  UAP d 801       6.235  52.865 -16.336  0.00  0.00     0.167 C 
ATOM     92  O2S UAP d 801       7.628  51.294 -20.570  0.00  0.00    -0.572 OA
ATOM     93  C4  UAP d 801       7.648  54.951 -17.452  0.00  0.00    -0.034 C 
ATOM     94  C3  UAP d 801       6.915  54.133 -18.396  0.00  0.00     0.086 C 
ATOM     95  O62 UAP d 801       8.723  55.096 -14.174  0.00  0.00    -0.642 OA
ATOM     96  S   UAP d 801       7.666  50.653 -19.242  0.00  0.00     0.252 S 
ATOM     97  C6  UAP d 801       8.537  55.415 -15.371  0.00  0.00     0.233 C 
ATOM     98  C2  UAP d 801       6.583  52.763 -17.814  0.00  0.00     0.135 C 
ATOM     99  C5  UAP d 801       7.828  54.606 -16.160  0.00  0.00     0.147 C 
ATOM    100  O61 UAP d 801       9.015  56.474 -15.843  0.00  0.00    -0.642 OA
ATOM    101  O3  UAP d 801       5.736  54.798 -18.790  0.00  0.00    -0.389 OA
ATOM    102  H   UAP d 801       6.066  51.894 -15.920  0.00  0.00     0.134 H 
ATOM    103  H   UAP d 801       8.052  55.840 -17.784  0.00  0.00     0.085 H 
ATOM    104  H   UAP d 801       7.538  53.976 -19.252  0.00  0.00     0.093 H 
ATOM    105  H   UAP d 801       5.733  52.372 -18.332  0.00  0.00     0.097 H 
ATOM    106  H   UAP d 801       5.171  54.941 -18.015  0.00  0.00     0.210 HD
ENDROOT
TORSDOF 33
ENDMDL
MODEL 16
REMARK VINA RESULT:      -6.0      3.483      5.234
REMARK  0 active torsions:
REMARK  status: ('A' for Active; 'I' for Inactive)
REMARK       I    between atoms: C2_1  and  O2_62 
REMARK       I    between atoms: O3_2  and  C3_65 
REMARK       I    between atoms: O1_3  and  C1_15 
REMARK       I    between atoms: C5_5  and  C6_58 
REMARK       I    between atoms: C1_6  and  O4_70 
REMARK       I    between atoms: S_7  and  O2_62 
REMARK       I    between atoms: O2_9  and  C2_55 
REMARK       I    between atoms: O2_9  and  S_49 
REMARK       I    between atoms: O4_11  and  C1_28 
REMARK       I    between atoms: O4_11  and  C4_41 
REMARK       I    between atoms: O6_12  and  C6_58 
REMARK       I    between atoms: O6_12  and  S2_38 
REMARK       I    between atoms: S1_16  and  N_21 
REMARK       I    between atoms: S1_16  and  O1S_32 
REMARK       I    between atoms: S1_16  and  O2S_53 
REMARK       I    between atoms: S1_16  and  O3S_24 
REMARK       I    between atoms: N_18  and  C2_66 
REMARK       I    between atoms: N_18  and  S1_37 
REMARK       I    between atoms: C3_19  and  O3_27 
REMARK       I    between atoms: N_21  and  C2_31 
REMARK       I    between atoms: C4_22  and  O4_70 
REMARK       I    between atoms: C6_25  and  C5_46 
REMARK       I    between atoms: C6_25  and  O6_45 
REMARK       I    between atoms: O1_33  and  C1_51 
REMARK       I    between atoms: O1_33  and  C4_34 
REMARK       I    between atoms: O3S_35  and  S1_37 
REMARK       I    between atoms: S1_37  and  O1S_42 
REMARK       I    between atoms: S1_37  and  O2S_63 
REMARK       I    between atoms: O3_39  and  C3_54 
REMARK       I    between atoms: C6_40  and  C5_60 
REMARK       I    between atoms: C3_44  and  O3_64 
REMARK       I    between atoms: O6_45  and  S2_59 
REMARK       I    between atoms: C6_50  and  C5_56 
ROOT
ATOM      1  C2  IDS d 803       4.684  52.134 -14.965  0.00  0.00     0.134 C 
ATOM      2  C1  IDS d 803       5.358  52.924 -16.087  0.00  0.00     0.161 C 
ATOM      3  S   IDS d 803       2.430  50.611 -15.441  0.00  0.00     0.252 S 
ATOM      4  O3S IDS d 803       2.470  50.306 -16.885  0.00  0.00    -0.572 OA
ATOM      5  O5  IDS d 803       5.048  54.321 -15.954  0.00  0.00    -0.340 OA
ATOM      6  C3  IDS d 803       5.074  52.709 -13.603  0.00  0.00     0.094 C 
ATOM      7  O2S IDS d 803       3.095  49.526 -14.696  0.00  0.00    -0.572 OA
ATOM      8  O3  IDS d 803       6.447  52.504 -13.343  0.00  0.00    -0.390 OA
ATOM      9  C4  IDS d 803       4.731  54.197 -13.557  0.00  0.00     0.103 C 
ATOM     10  C6  IDS d 803       5.073  56.374 -14.732  0.00  0.00     0.206 C 
ATOM     11  O61 IDS d 803       5.749  57.180 -14.056  0.00  0.00    -0.646 OA
ATOM     12  C5  IDS d 803       5.455  54.902 -14.706  0.00  0.00     0.152 C 
ATOM     13  O2  IDS d 803       3.268  52.137 -15.135  0.00  0.00    -0.244 OA
ATOM     14  O62 IDS d 803       4.115  56.732 -15.449  0.00  0.00    -0.646 OA
ATOM     15  O1S IDS d 803       1.027  50.724 -15.001  0.00  0.00    -0.572 OA
ATOM     16  H   IDS d 803       5.021  51.120 -15.007  0.00  0.00     0.097 H 
ATOM     17  H   IDS d 803       4.974  52.590 -17.028  0.00  0.00     0.133 H 
ATOM     18  H   IDS d 803       4.520  52.200 -12.842  0.00  0.00     0.091 H 
ATOM     19  H   IDS d 803       6.976  52.956 -14.019  0.00  0.00     0.210 HD
ATOM     20  H   IDS d 803       5.041  54.609 -12.619  0.00  0.00     0.092 H 
ATOM     21  H   IDS d 803       6.510  54.795 -14.564  0.00  0.00     0.104 H 
ATOM     22  O3  SGN d 802      -0.893  54.546 -13.730  0.00  0.00    -0.391 OA
ATOM     23  O4  SGN d 802      -0.153  57.211 -14.280  0.00  0.00    -0.348 OA
ATOM     24  S1  SGN d 802       1.098  51.598 -11.555  0.00  0.00     0.156 S 
ATOM     25  O5S SGN d 802       0.890  59.665  -9.120  0.00  0.00    -0.572 OA
ATOM     26  N   SGN d 802       1.139  52.762 -12.884  0.00  0.00    -0.210 NA
ATOM     27  O3S SGN d 802       2.455  51.449 -10.997  0.00  0.00    -0.296 OA
ATOM     28  C6  SGN d 802       2.042  58.327 -12.665  0.00  0.00     0.067 C 
ATOM     29  O5  SGN d 802       2.629  56.059 -12.175  0.00  0.00    -0.349 OA
ATOM     30  C2  SGN d 802       1.183  54.175 -12.574  0.00  0.00     0.081 C 
ATOM     31  O1S SGN d 802       0.626  50.296 -12.060  0.00  0.00    -0.296 OA
ATOM     32  O1  SGN d 802       3.319  54.379 -13.696  0.00  0.00    -0.348 OA
ATOM     33  C4  SGN d 802       0.503  56.448 -13.265  0.00  0.00     0.095 C 
ATOM     34  O6  SGN d 802       1.510  58.379 -11.343  0.00  0.00    -0.254 OA
ATOM     35  C5  SGN d 802       1.966  56.886 -13.146  0.00  0.00     0.091 C 
ATOM     36  O4S SGN d 802       0.637  60.875 -11.193  0.00  0.00    -0.572 OA
ATOM     37  C1  SGN d 802       2.630  54.655 -12.474  0.00  0.00     0.150 C 
ATOM     38  O6S SGN d 802       2.842  60.422 -10.317  0.00  0.00    -0.572 OA
ATOM     39  O2S SGN d 802       0.184  52.082 -10.502  0.00  0.00    -0.296 OA
ATOM     40  S2  SGN d 802       1.468  59.901 -10.456  0.00  0.00     0.251 S 
ATOM     41  C3  SGN d 802       0.448  54.974 -13.643  0.00  0.00     0.083 C 
ATOM     42  H   SGN d 802      -0.918  53.606 -13.971  0.00  0.00     0.210 HD
ATOM     43  H   SGN d 802       0.301  52.605 -13.445  0.00  0.00     0.140 HD
ATOM     44  H   SGN d 802       3.055  51.130 -11.689  0.00  0.00     0.231 HD
ATOM     45  H   SGN d 802       1.467  58.957 -13.312  0.00  0.00     0.080 H 
ATOM     46  H   SGN d 802       3.055  58.669 -12.671  0.00  0.00     0.080 H 
ATOM     47  H   SGN d 802       0.702  54.329 -11.631  0.00  0.00     0.076 H 
ATOM     48  H   SGN d 802      -0.267  50.395 -12.426  0.00  0.00     0.231 HD
ATOM     49  H   SGN d 802       0.012  56.605 -12.328  0.00  0.00     0.091 H 
ATOM     50  H   SGN d 802       2.432  56.795 -14.104  0.00  0.00     0.090 H 
ATOM     51  H   SGN d 802       3.142  54.136 -11.690  0.00  0.00     0.131 H 
ATOM     52  H   SGN d 802      -0.708  52.180 -10.869  0.00  0.00     0.231 HD
ATOM     53  H   SGN d 802       0.912  54.823 -14.595  0.00  0.00     0.089 H 
ATOM     54  O1  SGN d 804      10.819  53.064 -18.109  0.00  0.00    -0.369 OA
ATOM     55  C5  SGN d 804       8.248  51.779 -17.802  0.00  0.00     0.091 C 
ATOM     56  O6  SGN d 804       6.520  50.557 -18.972  0.00  0.00    -0.254 OA
ATOM     57  O6S SGN d 804       4.818  49.358 -20.620  0.00  0.00    -0.572 OA
ATOM     58  C1  SGN d 804       9.731  53.243 -19.018  0.00  0.00     0.147 C 
ATOM     59  N   SGN d 804       9.756  55.628 -18.494  0.00  0.00    -0.210 NA
ATOM     60  C4  SGN d 804       7.361  52.954 -17.387  0.00  0.00     0.095 C 
ATOM     61  O5S SGN d 804       4.434  49.079 -18.258  0.00  0.00    -0.572 OA
ATOM     62  O3S SGN d 804      10.110  55.588 -21.125  0.00  0.00    -0.296 OA
ATOM     63  S1  SGN d 804      10.515  56.343 -19.923  0.00  0.00     0.156 S 
ATOM     64  S2  SGN d 804       5.466  49.176 -19.307  0.00  0.00     0.251 S 
ATOM     65  O3  SGN d 804       7.422  55.317 -16.935  0.00  0.00    -0.391 OA
ATOM     66  O1S SGN d 804      11.982  56.287 -19.777  0.00  0.00    -0.296 OA
ATOM     67  O5  SGN d 804       8.886  52.082 -19.054  0.00  0.00    -0.350 OA
ATOM     68  C3  SGN d 804       8.222  54.208 -17.280  0.00  0.00     0.083 C 
ATOM     69  C6  SGN d 804       7.462  50.476 -17.904  0.00  0.00     0.067 C 
ATOM     70  O2S SGN d 804      10.090  57.749 -20.060  0.00  0.00    -0.296 OA
ATOM     71  C2  SGN d 804       8.900  54.464 -18.619  0.00  0.00     0.081 C 
ATOM     72  O4S SGN d 804       6.266  47.938 -19.321  0.00  0.00    -0.572 OA
ATOM     73  O4  SGN d 804       6.766  52.682 -16.117  0.00  0.00    -0.348 OA
ATOM     74  H   SGN d 804      11.371  53.861 -18.105  0.00  0.00     0.212 HD
ATOM     75  H   SGN d 804       8.990  51.638 -17.044  0.00  0.00     0.090 H 
ATOM     76  H   SGN d 804      10.144  53.396 -19.993  0.00  0.00     0.131 H 
ATOM     77  H   SGN d 804      10.512  55.368 -17.862  0.00  0.00     0.140 HD
ATOM     78  H   SGN d 804       6.591  53.098 -18.116  0.00  0.00     0.091 H 
ATOM     79  H   SGN d 804      10.390  54.663 -21.035  0.00  0.00     0.231 HD
ATOM     80  H   SGN d 804       6.991  55.153 -16.082  0.00  0.00     0.210 HD
ATOM     81  H   SGN d 804      12.263  55.363 -19.686  0.00  0.00     0.231 HD
ATOM     82  H   SGN d 804       8.962  54.066 -16.519  0.00  0.00     0.089 H 
ATOM     83  H   SGN d 804       6.942  50.304 -16.985  0.00  0.00     0.080 H 
ATOM     84  H   SGN d 804       8.140  49.671 -18.094  0.00  0.00     0.080 H 
ATOM     85  H   SGN d 804       9.126  57.788 -20.156  0.00  0.00     0.231 HD
ATOM     86  H   SGN d 804       8.163  54.640 -19.374  0.00  0.00     0.076 H 
ATOM     87  O5  UAP d 801      -2.115  57.723 -13.056  0.00  0.00    -0.311 OA
ATOM     88  O2  UAP d 801      -2.270  60.183 -14.472  0.00  0.00    -0.244 OA
ATOM     89  O1S UAP d 801      -2.779  62.785 -14.417  0.00  0.00    -0.572 OA
ATOM     90  O3S UAP d 801      -0.561  62.118 -15.078  0.00  0.00    -0.572 OA
ATOM     91  C1  UAP d 801      -1.008  58.247 -13.792  0.00  0.00     0.167 C 
ATOM     92  O2S UAP d 801      -2.414  61.794 -16.580  0.00  0.00    -0.572 OA
ATOM     93  C4  UAP d 801      -3.248  57.303 -15.088  0.00  0.00    -0.034 C 
ATOM     94  C3  UAP d 801      -2.436  58.220 -15.859  0.00  0.00     0.086 C 
ATOM     95  O62 UAP d 801      -3.742  56.051 -11.908  0.00  0.00    -0.642 OA
ATOM     96  S   UAP d 801      -1.995  61.786 -15.166  0.00  0.00     0.252 S 
ATOM     97  C6  UAP d 801      -3.887  56.241 -13.138  0.00  0.00     0.233 C 
ATOM     98  C2  UAP d 801      -1.535  59.063 -14.963  0.00  0.00     0.135 C 
ATOM     99  C5  UAP d 801      -3.074  57.092 -13.767  0.00  0.00     0.147 C 
ATOM    100  O61 UAP d 801      -4.789  55.659 -13.784  0.00  0.00    -0.642 OA
ATOM    101  O3  UAP d 801      -1.663  57.502 -16.796  0.00  0.00    -0.389 OA
ATOM    102  H   UAP d 801      -0.430  58.861 -13.133  0.00  0.00     0.134 H 
ATOM    103  H   UAP d 801      -3.998  56.785 -15.573  0.00  0.00     0.085 H 
ATOM    104  H   UAP d 801      -3.091  58.889 -16.377  0.00  0.00     0.093 H 
ATOM    105  H   UAP d 801      -0.699  59.397 -15.540  0.00  0.00     0.097 H 
ATOM    106  H   UAP d 801      -1.068  56.896 -16.328  0.00  0.00     0.210 HD
ENDROOT
TORSDOF 33
ENDMDL
MODEL 17
REMARK VINA RESULT:      -6.0      4.522      7.186
REMARK  0 active torsions:
REMARK  status: ('A' for Active; 'I' for Inactive)
REMARK       I    between atoms: C2_1  and  O2_62 
REMARK       I    between atoms: O3_2  and  C3_65 
REMARK       I    between atoms: O1_3  and  C1_15 
REMARK       I    between atoms: C5_5  and  C6_58 
REMARK       I    between atoms: C1_6  and  O4_70 
REMARK       I    between atoms: S_7  and  O2_62 
REMARK       I    between atoms: O2_9  and  C2_55 
REMARK       I    between atoms: O2_9  and  S_49 
REMARK       I    between atoms: O4_11  and  C1_28 
REMARK       I    between atoms: O4_11  and  C4_41 
REMARK       I    between atoms: O6_12  and  C6_58 
REMARK       I    between atoms: O6_12  and  S2_38 
REMARK       I    between atoms: S1_16  and  N_21 
REMARK       I    between atoms: S1_16  and  O1S_32 
REMARK       I    between atoms: S1_16  and  O2S_53 
REMARK       I    between atoms: S1_16  and  O3S_24 
REMARK       I    between atoms: N_18  and  C2_66 
REMARK       I    between atoms: N_18  and  S1_37 
REMARK       I    between atoms: C3_19  and  O3_27 
REMARK       I    between atoms: N_21  and  C2_31 
REMARK       I    between atoms: C4_22  and  O4_70 
REMARK       I    between atoms: C6_25  and  C5_46 
REMARK       I    between atoms: C6_25  and  O6_45 
REMARK       I    between atoms: O1_33  and  C1_51 
REMARK       I    between atoms: O1_33  and  C4_34 
REMARK       I    between atoms: O3S_35  and  S1_37 
REMARK       I    between atoms: S1_37  and  O1S_42 
REMARK       I    between atoms: S1_37  and  O2S_63 
REMARK       I    between atoms: O3_39  and  C3_54 
REMARK       I    between atoms: C6_40  and  C5_60 
REMARK       I    between atoms: C3_44  and  O3_64 
REMARK       I    between atoms: O6_45  and  S2_59 
REMARK       I    between atoms: C6_50  and  C5_56 
ROOT
ATOM      1  C2  IDS d 803       0.593  56.236 -14.353  0.00  0.00     0.134 C 
ATOM      2  C1  IDS d 803       0.132  57.419 -13.501  0.00  0.00     0.161 C 
ATOM      3  S   IDS d 803      -0.762  55.511 -16.647  0.00  0.00     0.252 S 
ATOM      4  O3S IDS d 803      -1.472  56.732 -17.077  0.00  0.00    -0.572 OA
ATOM      5  O5  IDS d 803      -0.522  56.940 -12.315  0.00  0.00    -0.340 OA
ATOM      6  C3  IDS d 803       1.467  55.295 -13.524  0.00  0.00     0.094 C 
ATOM      7  O2S IDS d 803       0.552  55.451 -17.316  0.00  0.00    -0.572 OA
ATOM      8  O3  IDS d 803       2.686  55.915 -13.174  0.00  0.00    -0.390 OA
ATOM      9  C4  IDS d 803       0.706  54.853 -12.275  0.00  0.00     0.103 C 
ATOM     10  C6  IDS d 803      -0.530  55.695 -10.275  0.00  0.00     0.206 C 
ATOM     11  O61 IDS d 803       0.062  55.437  -9.205  0.00  0.00    -0.646 OA
ATOM     12  C5  IDS d 803       0.296  56.099 -11.486  0.00  0.00     0.152 C 
ATOM     13  O2  IDS d 803      -0.531  55.546 -14.895  0.00  0.00    -0.244 OA
ATOM     14  O62 IDS d 803      -1.775  55.661 -10.382  0.00  0.00    -0.646 OA
ATOM     15  O1S IDS d 803      -1.557  54.325 -17.015  0.00  0.00    -0.572 OA
ATOM     16  H   IDS d 803       1.180  56.606 -15.167  0.00  0.00     0.097 H 
ATOM     17  H   IDS d 803      -0.578  57.994 -14.058  0.00  0.00     0.133 H 
ATOM     18  H   IDS d 803       1.700  54.433 -14.113  0.00  0.00     0.091 H 
ATOM     19  H   IDS d 803       2.506  56.703 -12.637  0.00  0.00     0.210 HD
ATOM     20  H   IDS d 803       1.331  54.227 -11.674  0.00  0.00     0.092 H 
ATOM     21  H   IDS d 803       1.180  56.616 -11.177  0.00  0.00     0.104 H 
ATOM     22  O3  SGN d 802      -3.585  51.663 -14.063  0.00  0.00    -0.391 OA
ATOM     23  O4  SGN d 802      -4.342  52.169 -11.395  0.00  0.00    -0.348 OA
ATOM     24  S1  SGN d 802       0.205  51.488 -15.794  0.00  0.00     0.156 S 
ATOM     25  O5S SGN d 802      -1.444  48.311  -8.162  0.00  0.00    -0.572 OA
ATOM     26  N   SGN d 802      -0.971  52.416 -14.856  0.00  0.00    -0.210 NA
ATOM     27  O3S SGN d 802       1.567  51.854 -15.364  0.00  0.00    -0.296 OA
ATOM     28  C6  SGN d 802      -2.212  52.004  -9.368  0.00  0.00     0.067 C 
ATOM     29  O5  SGN d 802      -0.675  52.265 -11.185  0.00  0.00    -0.349 OA
ATOM     30  C2  SGN d 802      -1.270  52.000 -13.503  0.00  0.00     0.081 C 
ATOM     31  O1S SGN d 802       0.040  51.795 -17.227  0.00  0.00    -0.296 OA
ATOM     32  O1  SGN d 802      -0.462  54.116 -12.648  0.00  0.00    -0.348 OA
ATOM     33  C4  SGN d 802      -2.994  51.845 -11.740  0.00  0.00     0.095 C 
ATOM     34  O6  SGN d 802      -1.837  50.628  -9.369  0.00  0.00    -0.254 OA
ATOM     35  C5  SGN d 802      -2.026  52.542 -10.779  0.00  0.00     0.091 C 
ATOM     36  O4S SGN d 802      -3.287  49.656  -7.376  0.00  0.00    -0.572 OA
ATOM     37  C1  SGN d 802      -0.340  52.698 -12.512  0.00  0.00     0.150 C 
ATOM     38  O6S SGN d 802      -1.014  50.303  -6.875  0.00  0.00    -0.572 OA
ATOM     39  O2S SGN d 802      -0.011  50.046 -15.569  0.00  0.00    -0.296 OA
ATOM     40  S2  SGN d 802      -1.899  49.685  -7.881  0.00  0.00     0.251 S 
ATOM     41  C3  SGN d 802      -2.720  52.317 -13.161  0.00  0.00     0.083 C 
ATOM     42  H   SGN d 802      -3.403  51.970 -14.965  0.00  0.00     0.210 HD
ATOM     43  H   SGN d 802      -1.849  52.398 -15.376  0.00  0.00     0.140 HD
ATOM     44  H   SGN d 802       1.709  52.801 -15.513  0.00  0.00     0.231 HD
ATOM     45  H   SGN d 802      -3.237  52.100  -9.074  0.00  0.00     0.080 H 
ATOM     46  H   SGN d 802      -1.608  52.553  -8.677  0.00  0.00     0.080 H 
ATOM     47  H   SGN d 802      -1.119  50.943 -13.434  0.00  0.00     0.076 H 
ATOM     48  H   SGN d 802      -0.857  51.554 -17.508  0.00  0.00     0.231 HD
ATOM     49  H   SGN d 802      -2.854  50.786 -11.671  0.00  0.00     0.091 H 
ATOM     50  H   SGN d 802      -2.221  53.594 -10.797  0.00  0.00     0.090 H 
ATOM     51  H   SGN d 802       0.679  52.440 -12.711  0.00  0.00     0.131 H 
ATOM     52  H   SGN d 802      -0.908  49.806 -15.852  0.00  0.00     0.231 HD
ATOM     53  H   SGN d 802      -2.891  53.371 -13.235  0.00  0.00     0.089 H 
ATOM     54  O1  SGN d 804       2.834  62.205 -11.571  0.00  0.00    -0.369 OA
ATOM     55  C5  SGN d 804       1.626  60.635 -13.675  0.00  0.00     0.091 C 
ATOM     56  O6  SGN d 804       0.133  60.731 -15.576  0.00  0.00    -0.254 OA
ATOM     57  O6S SGN d 804      -1.630  61.222 -17.500  0.00  0.00    -0.572 OA
ATOM     58  C1  SGN d 804       1.448  62.273 -11.913  0.00  0.00     0.147 C 
ATOM     59  N   SGN d 804       0.909  61.541  -9.646  0.00  0.00    -0.210 NA
ATOM     60  C4  SGN d 804       0.802  59.625 -12.876  0.00  0.00     0.095 C 
ATOM     61  O5S SGN d 804      -0.416  59.145 -17.633  0.00  0.00    -0.572 OA
ATOM     62  O3S SGN d 804      -0.370  63.859  -9.850  0.00  0.00    -0.296 OA
ATOM     63  S1  SGN d 804       0.356  63.030  -8.867  0.00  0.00     0.156 S 
ATOM     64  S2  SGN d 804      -0.323  60.574 -17.278  0.00  0.00     0.251 S 
ATOM     65  O3  SGN d 804       0.254  58.974 -10.625  0.00  0.00    -0.391 OA
ATOM     66  O1S SGN d 804       1.522  63.776  -8.357  0.00  0.00    -0.296 OA
ATOM     67  O5  SGN d 804       1.239  61.968 -13.301  0.00  0.00    -0.350 OA
ATOM     68  C3  SGN d 804       1.032  59.869 -11.388  0.00  0.00     0.083 C 
ATOM     69  C6  SGN d 804       1.471  60.437 -15.180  0.00  0.00     0.067 C 
ATOM     70  O2S SGN d 804      -0.543  62.698  -7.745  0.00  0.00    -0.296 OA
ATOM     71  C2  SGN d 804       0.640  61.301 -11.051  0.00  0.00     0.081 C 
ATOM     72  O4S SGN d 804       0.697  61.222 -18.124  0.00  0.00    -0.572 OA
ATOM     73  O4  SGN d 804       1.219  58.298 -13.204  0.00  0.00    -0.348 OA
ATOM     74  H   SGN d 804       2.946  62.415 -10.630  0.00  0.00     0.212 HD
ATOM     75  H   SGN d 804       2.659  60.480 -13.444  0.00  0.00     0.090 H 
ATOM     76  H   SGN d 804       1.118  63.274 -11.729  0.00  0.00     0.131 H 
ATOM     77  H   SGN d 804       1.921  61.512  -9.534  0.00  0.00     0.140 HD
ATOM     78  H   SGN d 804      -0.235  59.739 -13.112  0.00  0.00     0.091 H 
ATOM     79  H   SGN d 804       0.221  64.077 -10.587  0.00  0.00     0.231 HD
ATOM     80  H   SGN d 804       0.504  58.062 -10.840  0.00  0.00     0.210 HD
ATOM     81  H   SGN d 804       2.114  63.995  -9.094  0.00  0.00     0.231 HD
ATOM     82  H   SGN d 804       2.065  59.711 -11.159  0.00  0.00     0.089 H 
ATOM     83  H   SGN d 804       1.699  59.422 -15.428  0.00  0.00     0.080 H 
ATOM     84  H   SGN d 804       2.142  61.095 -15.692  0.00  0.00     0.080 H 
ATOM     85  H   SGN d 804      -1.310  62.208  -8.079  0.00  0.00     0.231 HD
ATOM     86  H   SGN d 804      -0.400  61.452 -11.249  0.00  0.00     0.076 H 
ATOM     87  O5  UAP d 801      -5.225  49.974 -11.514  0.00  0.00    -0.311 OA
ATOM     88  O2  UAP d 801      -7.064  50.681  -9.465  0.00  0.00    -0.244 OA
ATOM     89  O1S UAP d 801      -8.345  49.982  -7.250  0.00  0.00    -0.572 OA
ATOM     90  O3S UAP d 801      -6.891  51.898  -7.114  0.00  0.00    -0.572 OA
ATOM     91  C1  UAP d 801      -5.049  51.138 -10.703  0.00  0.00     0.167 C 
ATOM     92  O2S UAP d 801      -8.994  52.063  -8.272  0.00  0.00    -0.572 OA
ATOM     93  C4  UAP d 801      -7.087  50.998 -12.552  0.00  0.00    -0.034 C 
ATOM     94  C3  UAP d 801      -7.287  51.963 -11.492  0.00  0.00     0.086 C 
ATOM     95  O62 UAP d 801      -5.117  48.336 -13.529  0.00  0.00    -0.642 OA
ATOM     96  S   UAP d 801      -7.856  51.176  -7.964  0.00  0.00     0.252 S 
ATOM     97  C6  UAP d 801      -6.014  49.210 -13.547  0.00  0.00     0.233 C 
ATOM     98  C2  UAP d 801      -6.415  51.656 -10.279  0.00  0.00     0.135 C 
ATOM     99  C5  UAP d 801      -6.106  50.071 -12.532  0.00  0.00     0.147 C 
ATOM    100  O61 UAP d 801      -6.834  49.280 -14.492  0.00  0.00    -0.642 OA
ATOM    101  O3  UAP d 801      -7.020  53.263 -11.972  0.00  0.00    -0.389 OA
ATOM    102  H   UAP d 801      -4.467  50.863  -9.848  0.00  0.00     0.134 H 
ATOM    103  H   UAP d 801      -7.725  51.020 -13.362  0.00  0.00     0.085 H 
ATOM    104  H   UAP d 801      -8.308  51.904 -11.177  0.00  0.00     0.093 H 
ATOM    105  H   UAP d 801      -6.273  52.560  -9.726  0.00  0.00     0.097 H 
ATOM    106  H   UAP d 801      -6.094  53.318 -12.257  0.00  0.00     0.210 HD
ENDROOT
TORSDOF 33
ENDMDL
MODEL 18
REMARK VINA RESULT:      -6.0      1.753      2.202
REMARK  0 active torsions:
REMARK  status: ('A' for Active; 'I' for Inactive)
REMARK       I    between atoms: C2_1  and  O2_62 
REMARK       I    between atoms: O3_2  and  C3_65 
REMARK       I    between atoms: O1_3  and  C1_15 
REMARK       I    between atoms: C5_5  and  C6_58 
REMARK       I    between atoms: C1_6  and  O4_70 
REMARK       I    between atoms: S_7  and  O2_62 
REMARK       I    between atoms: O2_9  and  C2_55 
REMARK       I    between atoms: O2_9  and  S_49 
REMARK       I    between atoms: O4_11  and  C1_28 
REMARK       I    between atoms: O4_11  and  C4_41 
REMARK       I    between atoms: O6_12  and  C6_58 
REMARK       I    between atoms: O6_12  and  S2_38 
REMARK       I    between atoms: S1_16  and  N_21 
REMARK       I    between atoms: S1_16  and  O1S_32 
REMARK       I    between atoms: S1_16  and  O2S_53 
REMARK       I    between atoms: S1_16  and  O3S_24 
REMARK       I    between atoms: N_18  and  C2_66 
REMARK       I    between atoms: N_18  and  S1_37 
REMARK       I    between atoms: C3_19  and  O3_27 
REMARK       I    between atoms: N_21  and  C2_31 
REMARK       I    between atoms: C4_22  and  O4_70 
REMARK       I    between atoms: C6_25  and  C5_46 
REMARK       I    between atoms: C6_25  and  O6_45 
REMARK       I    between atoms: O1_33  and  C1_51 
REMARK       I    between atoms: O1_33  and  C4_34 
REMARK       I    between atoms: O3S_35  and  S1_37 
REMARK       I    between atoms: S1_37  and  O1S_42 
REMARK       I    between atoms: S1_37  and  O2S_63 
REMARK       I    between atoms: O3_39  and  C3_54 
REMARK       I    between atoms: C6_40  and  C5_60 
REMARK       I    between atoms: C3_44  and  O3_64 
REMARK       I    between atoms: O6_45  and  S2_59 
REMARK       I    between atoms: C6_50  and  C5_56 
ROOT
ATOM      1  C2  IDS d 803       5.101  55.109 -14.921  0.00  0.00     0.134 C 
ATOM      2  C1  IDS d 803       4.910  56.241 -15.929  0.00  0.00     0.161 C 
ATOM      3  S   IDS d 803       5.253  52.475 -15.740  0.00  0.00     0.252 S 
ATOM      4  O3S IDS d 803       5.689  52.535 -17.149  0.00  0.00    -0.572 OA
ATOM      5  O5  IDS d 803       3.554  56.714 -15.882  0.00  0.00    -0.340 OA
ATOM      6  C3  IDS d 803       4.673  55.563 -13.526  0.00  0.00     0.094 C 
ATOM      7  O2S IDS d 803       6.438  52.350 -14.869  0.00  0.00    -0.572 OA
ATOM      8  O3  IDS d 803       5.539  56.563 -13.032  0.00  0.00    -0.390 OA
ATOM      9  C4  IDS d 803       3.231  56.069 -13.570  0.00  0.00     0.103 C 
ATOM     10  C6  IDS d 803       1.702  57.675 -14.717  0.00  0.00     0.206 C 
ATOM     11  O61 IDS d 803       1.303  58.582 -13.954  0.00  0.00    -0.646 OA
ATOM     12  C5  IDS d 803       3.142  57.201 -14.595  0.00  0.00     0.152 C 
ATOM     13  O2  IDS d 803       4.373  53.952 -15.329  0.00  0.00    -0.244 OA
ATOM     14  O62 IDS d 803       0.974  57.162 -15.594  0.00  0.00    -0.646 OA
ATOM     15  O1S IDS d 803       4.373  51.308 -15.547  0.00  0.00    -0.572 OA
ATOM     16  H   IDS d 803       6.139  54.851 -14.884  0.00  0.00     0.097 H 
ATOM     17  H   IDS d 803       5.092  55.866 -16.915  0.00  0.00     0.133 H 
ATOM     18  H   IDS d 803       4.728  54.728 -12.859  0.00  0.00     0.091 H 
ATOM     19  H   IDS d 803       5.508  57.335 -13.618  0.00  0.00     0.210 HD
ATOM     20  H   IDS d 803       2.944  56.424 -12.603  0.00  0.00     0.092 H 
ATOM     21  H   IDS d 803       3.771  58.005 -14.274  0.00  0.00     0.104 H 
ATOM     22  O3  SGN d 802       0.001  51.589 -14.702  0.00  0.00    -0.391 OA
ATOM     23  O4  SGN d 802      -1.799  53.707 -15.175  0.00  0.00    -0.348 OA
ATOM     24  S1  SGN d 802       3.298  51.382 -12.158  0.00  0.00     0.156 S 
ATOM     25  O5S SGN d 802      -3.884  55.214  -9.967  0.00  0.00    -0.572 OA
ATOM     26  N   SGN d 802       2.481  52.215 -13.486  0.00  0.00    -0.210 NA
ATOM     27  O3S SGN d 802       4.076  52.360 -11.375  0.00  0.00    -0.296 OA
ATOM     28  C6  SGN d 802      -1.764  55.923 -13.236  0.00  0.00     0.067 C 
ATOM     29  O5  SGN d 802       0.406  55.132 -12.605  0.00  0.00    -0.349 OA
ATOM     30  C2  SGN d 802       1.279  52.969 -13.203  0.00  0.00     0.081 C 
ATOM     31  O1S SGN d 802       4.204  50.357 -12.707  0.00  0.00    -0.296 OA
ATOM     32  O1  SGN d 802       2.351  55.007 -13.950  0.00  0.00    -0.348 OA
ATOM     33  C4  SGN d 802      -0.921  53.711 -14.048  0.00  0.00     0.095 C 
ATOM     34  O6  SGN d 802      -2.231  55.333 -12.025  0.00  0.00    -0.254 OA
ATOM     35  C5  SGN d 802      -0.535  55.150 -13.692  0.00  0.00     0.091 C 
ATOM     36  O4S SGN d 802      -4.812  55.924 -12.078  0.00  0.00    -0.572 OA
ATOM     37  C1  SGN d 802       1.623  54.419 -12.869  0.00  0.00     0.150 C 
ATOM     38  O6S SGN d 802      -3.367  57.404 -10.832  0.00  0.00    -0.572 OA
ATOM     39  O2S SGN d 802       2.295  50.741 -11.286  0.00  0.00    -0.296 OA
ATOM     40  S2  SGN d 802      -3.634  55.998 -11.191  0.00  0.00     0.251 S 
ATOM     41  C3  SGN d 802       0.335  52.925 -14.397  0.00  0.00     0.083 C 
ATOM     42  H   SGN d 802       0.807  51.096 -14.923  0.00  0.00     0.210 HD
ATOM     43  H   SGN d 802       2.235  51.506 -14.177  0.00  0.00     0.140 HD
ATOM     44  H   SGN d 802       4.736  52.781 -11.948  0.00  0.00     0.231 HD
ATOM     45  H   SGN d 802      -2.527  55.866 -13.984  0.00  0.00     0.080 H 
ATOM     46  H   SGN d 802      -1.519  56.952 -13.077  0.00  0.00     0.080 H 
ATOM     47  H   SGN d 802       0.794  52.525 -12.359  0.00  0.00     0.076 H 
ATOM     48  H   SGN d 802       3.690  49.714 -13.221  0.00  0.00     0.231 HD
ATOM     49  H   SGN d 802      -1.414  53.263 -13.211  0.00  0.00     0.091 H 
ATOM     50  H   SGN d 802      -0.109  55.616 -14.555  0.00  0.00     0.090 H 
ATOM     51  H   SGN d 802       2.245  54.465 -11.998  0.00  0.00     0.131 H 
ATOM     52  H   SGN d 802       1.783  50.097 -11.801  0.00  0.00     0.231 HD
ATOM     53  H   SGN d 802       0.809  53.356 -15.254  0.00  0.00     0.089 H 
ATOM     54  O1  SGN d 804       7.881  61.136 -17.000  0.00  0.00    -0.369 OA
ATOM     55  C5  SGN d 804       7.582  58.264 -17.105  0.00  0.00     0.091 C 
ATOM     56  O6  SGN d 804       7.832  56.321 -18.524  0.00  0.00    -0.254 OA
ATOM     57  O6S SGN d 804       8.129  54.476 -20.410  0.00  0.00    -0.572 OA
ATOM     58  C1  SGN d 804       7.257  60.445 -18.084  0.00  0.00     0.147 C 
ATOM     59  N   SGN d 804       5.202  61.676 -17.614  0.00  0.00    -0.210 NA
ATOM     60  C4  SGN d 804       6.080  58.099 -16.872  0.00  0.00     0.095 C 
ATOM     61  O5S SGN d 804       7.906  53.695 -18.142  0.00  0.00    -0.572 OA
ATOM     62  O3S SGN d 804       5.708  62.295 -20.146  0.00  0.00    -0.296 OA
ATOM     63  S1  SGN d 804       5.152  62.880 -18.909  0.00  0.00     0.156 S 
ATOM     64  S2  SGN d 804       8.481  54.746 -19.003  0.00  0.00     0.251 S 
ATOM     65  O3  SGN d 804       4.068  59.357 -16.467  0.00  0.00    -0.391 OA
ATOM     66  O1S SGN d 804       5.955  64.053 -18.515  0.00  0.00    -0.296 OA
ATOM     67  O5  SGN d 804       7.797  59.122 -18.237  0.00  0.00    -0.350 OA
ATOM     68  C3  SGN d 804       5.462  59.475 -16.647  0.00  0.00     0.083 C 
ATOM     69  C6  SGN d 804       8.279  56.922 -17.311  0.00  0.00     0.067 C 
ATOM     70  O2S SGN d 804       3.757  63.297 -19.146  0.00  0.00    -0.296 OA
ATOM     71  C2  SGN d 804       5.748  60.354 -17.857  0.00  0.00     0.081 C 
ATOM     72  O4S SGN d 804       9.947  54.751 -18.855  0.00  0.00    -0.572 OA
ATOM     73  O4  SGN d 804       5.858  57.289 -15.716  0.00  0.00    -0.348 OA
ATOM     74  H   SGN d 804       7.499  62.024 -16.919  0.00  0.00     0.212 HD
ATOM     75  H   SGN d 804       8.008  58.707 -16.229  0.00  0.00     0.090 H 
ATOM     76  H   SGN d 804       7.452  60.999 -18.978  0.00  0.00     0.131 H 
ATOM     77  H   SGN d 804       5.749  62.083 -16.857  0.00  0.00     0.140 HD
ATOM     78  H   SGN d 804       5.633  57.630 -17.724  0.00  0.00     0.091 H 
ATOM     79  H   SGN d 804       6.625  62.021 -19.990  0.00  0.00     0.231 HD
ATOM     80  H   SGN d 804       3.887  58.797 -15.696  0.00  0.00     0.210 HD
ATOM     81  H   SGN d 804       6.872  63.780 -18.359  0.00  0.00     0.231 HD
ATOM     82  H   SGN d 804       5.888  59.915 -15.769  0.00  0.00     0.089 H 
ATOM     83  H   SGN d 804       8.051  56.275 -16.490  0.00  0.00     0.080 H 
ATOM     84  H   SGN d 804       9.336  57.081 -17.366  0.00  0.00     0.080 H 
ATOM     85  H   SGN d 804       3.229  62.526 -19.405  0.00  0.00     0.231 HD
ATOM     86  H   SGN d 804       5.294  59.933 -18.730  0.00  0.00     0.076 H 
ATOM     87  O5  UAP d 801      -3.396  52.184 -14.313  0.00  0.00    -0.311 OA
ATOM     88  O2  UAP d 801      -5.398  53.561 -15.787  0.00  0.00    -0.244 OA
ATOM     89  O1S UAP d 801      -7.868  54.524 -15.875  0.00  0.00    -0.572 OA
ATOM     90  O3S UAP d 801      -6.068  56.103 -16.137  0.00  0.00    -0.572 OA
ATOM     91  C1  UAP d 801      -3.176  53.485 -14.862  0.00  0.00     0.167 C 
ATOM     92  O2S UAP d 801      -6.604  54.582 -17.923  0.00  0.00    -0.572 OA
ATOM     93  C4  UAP d 801      -3.415  51.282 -16.498  0.00  0.00    -0.034 C 
ATOM     94  C3  UAP d 801      -3.678  52.553 -17.140  0.00  0.00     0.086 C 
ATOM     95  O62 UAP d 801      -2.965  49.780 -13.422  0.00  0.00    -0.642 OA
ATOM     96  S   UAP d 801      -6.531  54.741 -16.459  0.00  0.00     0.252 S 
ATOM     97  C6  UAP d 801      -3.068  49.924 -14.662  0.00  0.00     0.233 C 
ATOM     98  C2  UAP d 801      -4.014  53.638 -16.122  0.00  0.00     0.135 C 
ATOM     99  C5  UAP d 801      -3.289  51.140 -15.162  0.00  0.00     0.147 C 
ATOM    100  O61 UAP d 801      -2.980  48.944 -15.438  0.00  0.00    -0.642 OA
ATOM    101  O3  UAP d 801      -2.565  52.936 -17.917  0.00  0.00    -0.389 OA
ATOM    102  H   UAP d 801      -3.462  54.209 -14.128  0.00  0.00     0.134 H 
ATOM    103  H   UAP d 801      -3.320  50.443 -17.092  0.00  0.00     0.085 H 
ATOM    104  H   UAP d 801      -4.531  52.433 -17.775  0.00  0.00     0.093 H 
ATOM    105  H   UAP d 801      -3.794  54.590 -16.557  0.00  0.00     0.097 H 
ATOM    106  H   UAP d 801      -1.792  53.044 -17.342  0.00  0.00     0.210 HD
ENDROOT
TORSDOF 33
ENDMDL
MODEL 19
REMARK VINA RESULT:      -6.0      4.955      9.743
REMARK  0 active torsions:
REMARK  status: ('A' for Active; 'I' for Inactive)
REMARK       I    between atoms: C2_1  and  O2_62 
REMARK       I    between atoms: O3_2  and  C3_65 
REMARK       I    between atoms: O1_3  and  C1_15 
REMARK       I    between atoms: C5_5  and  C6_58 
REMARK       I    between atoms: C1_6  and  O4_70 
REMARK       I    between atoms: S_7  and  O2_62 
REMARK       I    between atoms: O2_9  and  C2_55 
REMARK       I    between atoms: O2_9  and  S_49 
REMARK       I    between atoms: O4_11  and  C1_28 
REMARK       I    between atoms: O4_11  and  C4_41 
REMARK       I    between atoms: O6_12  and  C6_58 
REMARK       I    between atoms: O6_12  and  S2_38 
REMARK       I    between atoms: S1_16  and  N_21 
REMARK       I    between atoms: S1_16  and  O1S_32 
REMARK       I    between atoms: S1_16  and  O2S_53 
REMARK       I    between atoms: S1_16  and  O3S_24 
REMARK       I    between atoms: N_18  and  C2_66 
REMARK       I    between atoms: N_18  and  S1_37 
REMARK       I    between atoms: C3_19  and  O3_27 
REMARK       I    between atoms: N_21  and  C2_31 
REMARK       I    between atoms: C4_22  and  O4_70 
REMARK       I    between atoms: C6_25  and  C5_46 
REMARK       I    between atoms: C6_25  and  O6_45 
REMARK       I    between atoms: O1_33  and  C1_51 
REMARK       I    between atoms: O1_33  and  C4_34 
REMARK       I    between atoms: O3S_35  and  S1_37 
REMARK       I    between atoms: S1_37  and  O1S_42 
REMARK       I    between atoms: S1_37  and  O2S_63 
REMARK       I    between atoms: O3_39  and  C3_54 
REMARK       I    between atoms: C6_40  and  C5_60 
REMARK       I    between atoms: C3_44  and  O3_64 
REMARK       I    between atoms: O6_45  and  S2_59 
REMARK       I    between atoms: C6_50  and  C5_56 
ROOT
ATOM      1  C2  IDS d 803       5.805  59.850 -18.947  0.00  0.00     0.134 C 
ATOM      2  C1  IDS d 803       6.739  58.771 -18.402  0.00  0.00     0.161 C 
ATOM      3  S   IDS d 803       6.021  62.478 -18.127  0.00  0.00     0.252 S 
ATOM      4  O3S IDS d 803       7.412  62.621 -17.653  0.00  0.00    -0.572 OA
ATOM      5  O5  IDS d 803       6.042  57.961 -17.441  0.00  0.00    -0.340 OA
ATOM      6  C3  IDS d 803       4.532  59.216 -19.508  0.00  0.00     0.094 C 
ATOM      7  O2S IDS d 803       5.952  62.852 -19.552  0.00  0.00    -0.572 OA
ATOM      8  O3  IDS d 803       4.816  58.445 -20.657  0.00  0.00    -0.390 OA
ATOM      9  C4  IDS d 803       3.868  58.358 -18.432  0.00  0.00     0.103 C 
ATOM     10  C6  IDS d 803       4.266  56.484 -16.830  0.00  0.00     0.206 C 
ATOM     11  O61 IDS d 803       3.610  55.460 -17.122  0.00  0.00    -0.646 OA
ATOM     12  C5  IDS d 803       4.872  57.306 -17.957  0.00  0.00     0.152 C 
ATOM     13  O2  IDS d 803       5.497  60.801 -17.930  0.00  0.00    -0.244 OA
ATOM     14  O62 IDS d 803       4.466  56.844 -15.650  0.00  0.00    -0.646 OA
ATOM     15  O1S IDS d 803       5.141  63.363 -17.341  0.00  0.00    -0.572 OA
ATOM     16  H   IDS d 803       6.300  60.365 -19.744  0.00  0.00     0.097 H 
ATOM     17  H   IDS d 803       7.560  59.240 -17.901  0.00  0.00     0.133 H 
ATOM     18  H   IDS d 803       3.858  59.994 -19.799  0.00  0.00     0.091 H 
ATOM     19  H   IDS d 803       5.427  57.729 -20.423  0.00  0.00     0.210 HD
ATOM     20  H   IDS d 803       3.000  57.881 -18.836  0.00  0.00     0.092 H 
ATOM     21  H   IDS d 803       5.125  56.675 -18.783  0.00  0.00     0.104 H 
ATOM     22  O3  SGN d 802       2.086  61.910 -14.433  0.00  0.00    -0.391 OA
ATOM     23  O4  SGN d 802       1.892  59.431 -13.102  0.00  0.00    -0.348 OA
ATOM     24  S1  SGN d 802       1.825  62.806 -18.497  0.00  0.00     0.156 S 
ATOM     25  O5S SGN d 802      -3.165  57.119 -14.781  0.00  0.00    -0.572 OA
ATOM     26  N   SGN d 802       2.610  61.873 -17.217  0.00  0.00    -0.210 NA
ATOM     27  O3S SGN d 802       1.823  62.016 -19.742  0.00  0.00    -0.296 OA
ATOM     28  C6  SGN d 802       0.792  57.185 -14.657  0.00  0.00     0.067 C 
ATOM     29  O5  SGN d 802       1.331  58.470 -16.604  0.00  0.00    -0.349 OA
ATOM     30  C2  SGN d 802       1.864  60.818 -16.564  0.00  0.00     0.081 C 
ATOM     31  O1S SGN d 802       2.566  64.062 -18.711  0.00  0.00    -0.296 OA
ATOM     32  O1  SGN d 802       3.473  59.177 -17.328  0.00  0.00    -0.348 OA
ATOM     33  C4  SGN d 802       1.472  59.585 -14.459  0.00  0.00     0.095 C 
ATOM     34  O6  SGN d 802      -0.562  57.558 -14.898  0.00  0.00    -0.254 OA
ATOM     35  C5  SGN d 802       1.688  58.276 -15.225  0.00  0.00     0.091 C 
ATOM     36  O4S SGN d 802      -1.836  56.324 -12.930  0.00  0.00    -0.572 OA
ATOM     37  C1  SGN d 802       2.077  59.489 -17.286  0.00  0.00     0.150 C 
ATOM     38  O6S SGN d 802      -1.741  55.195 -15.063  0.00  0.00    -0.572 OA
ATOM     39  O2S SGN d 802       0.435  63.111 -18.106  0.00  0.00    -0.296 OA
ATOM     40  S2  SGN d 802      -1.882  56.503 -14.395  0.00  0.00     0.251 S 
ATOM     41  C3  SGN d 802       2.294  60.690 -15.109  0.00  0.00     0.083 C 
ATOM     42  H   SGN d 802       2.613  62.607 -14.854  0.00  0.00     0.210 HD
ATOM     43  H   SGN d 802       2.888  62.535 -16.492  0.00  0.00     0.140 HD
ATOM     44  H   SGN d 802       2.736  61.817 -20.000  0.00  0.00     0.231 HD
ATOM     45  H   SGN d 802       0.961  57.088 -13.605  0.00  0.00     0.080 H 
ATOM     46  H   SGN d 802       1.007  56.247 -15.124  0.00  0.00     0.080 H 
ATOM     47  H   SGN d 802       0.825  61.068 -16.600  0.00  0.00     0.076 H 
ATOM     48  H   SGN d 802       2.566  64.581 -17.890  0.00  0.00     0.231 HD
ATOM     49  H   SGN d 802       0.432  59.838 -14.484  0.00  0.00     0.091 H 
ATOM     50  H   SGN d 802       2.715  57.990 -15.135  0.00  0.00     0.090 H 
ATOM     51  H   SGN d 802       1.730  59.552 -18.297  0.00  0.00     0.131 H 
ATOM     52  H   SGN d 802       0.437  63.630 -17.286  0.00  0.00     0.231 HD
ATOM     53  H   SGN d 802       3.336  60.449 -15.055  0.00  0.00     0.089 H 
ATOM     54  O1  SGN d 804      10.237  54.887 -20.973  0.00  0.00    -0.369 OA
ATOM     55  C5  SGN d 804       9.578  57.585 -20.174  0.00  0.00     0.091 C 
ATOM     56  O6  SGN d 804      10.472  59.610 -19.198  0.00  0.00    -0.254 OA
ATOM     57  O6S SGN d 804      11.789  61.581 -18.002  0.00  0.00    -0.572 OA
ATOM     58  C1  SGN d 804      10.626  55.459 -19.723  0.00  0.00     0.147 C 
ATOM     59  N   SGN d 804       9.351  53.711 -18.590  0.00  0.00    -0.210 NA
ATOM     60  C4  SGN d 804       8.523  57.341 -19.095  0.00  0.00     0.095 C 
ATOM     61  O5S SGN d 804       9.678  62.137 -19.022  0.00  0.00    -0.572 OA
ATOM     62  O3S SGN d 804      11.799  53.401 -17.609  0.00  0.00    -0.296 OA
ATOM     63  S1  SGN d 804      10.610  52.617 -18.000  0.00  0.00     0.156 S 
ATOM     64  S2  SGN d 804      10.903  61.325 -19.154  0.00  0.00     0.251 S 
ATOM     65  O3  SGN d 804       7.330  55.582 -17.964  0.00  0.00    -0.391 OA
ATOM     66  O1S SGN d 804      10.974  51.670 -19.070  0.00  0.00    -0.296 OA
ATOM     67  O5  SGN d 804      10.784  56.883 -19.828  0.00  0.00    -0.350 OA
ATOM     68  C3  SGN d 804       8.274  55.841 -18.980  0.00  0.00     0.083 C 
ATOM     69  C6  SGN d 804       9.863  59.071 -20.369  0.00  0.00     0.067 C 
ATOM     70  O2S SGN d 804      10.109  51.869 -16.832  0.00  0.00    -0.296 OA
ATOM     71  C2  SGN d 804       9.585  55.142 -18.648  0.00  0.00     0.081 C 
ATOM     72  O4S SGN d 804      11.600  61.691 -20.401  0.00  0.00    -0.572 OA
ATOM     73  O4  SGN d 804       7.304  57.993 -19.458  0.00  0.00    -0.348 OA
ATOM     74  H   SGN d 804      10.138  53.928 -20.874  0.00  0.00     0.212 HD
ATOM     75  H   SGN d 804       9.198  57.215 -21.103  0.00  0.00     0.090 H 
ATOM     76  H   SGN d 804      11.567  55.030 -19.448  0.00  0.00     0.131 H 
ATOM     77  H   SGN d 804       9.127  53.414 -19.538  0.00  0.00     0.140 HD
ATOM     78  H   SGN d 804       8.867  57.730 -18.160  0.00  0.00     0.091 H 
ATOM     79  H   SGN d 804      12.128  53.893 -18.378  0.00  0.00     0.231 HD
ATOM     80  H   SGN d 804       6.495  56.028 -18.177  0.00  0.00     0.210 HD
ATOM     81  H   SGN d 804      11.303  52.161 -19.839  0.00  0.00     0.231 HD
ATOM     82  H   SGN d 804       7.891  55.472 -19.909  0.00  0.00     0.089 H 
ATOM     83  H   SGN d 804       8.944  59.585 -20.559  0.00  0.00     0.080 H 
ATOM     84  H   SGN d 804      10.527  59.195 -21.199  0.00  0.00     0.080 H 
ATOM     85  H   SGN d 804       9.870  52.491 -16.127  0.00  0.00     0.231 HD
ATOM     86  H   SGN d 804       9.953  55.484 -17.703  0.00  0.00     0.076 H 
ATOM     87  O5  UAP d 801       0.003  60.433 -12.083  0.00  0.00    -0.311 OA
ATOM     88  O2  UAP d 801       0.356  58.678  -9.874  0.00  0.00    -0.244 OA
ATOM     89  O1S UAP d 801      -0.753  57.116  -8.040  0.00  0.00    -0.572 OA
ATOM     90  O3S UAP d 801       0.776  56.076  -9.583  0.00  0.00    -0.572 OA
ATOM     91  C1  UAP d 801       0.829  59.270 -12.161  0.00  0.00     0.167 C 
ATOM     92  O2S UAP d 801       1.613  57.513  -7.844  0.00  0.00    -0.572 OA
ATOM     93  C4  UAP d 801       1.574  61.432 -10.625  0.00  0.00    -0.034 C 
ATOM     94  C3  UAP d 801       2.200  60.178 -10.262  0.00  0.00     0.086 C 
ATOM     95  O62 UAP d 801      -0.959  62.807 -12.527  0.00  0.00    -0.642 OA
ATOM     96  S   UAP d 801       0.504  57.289  -8.791  0.00  0.00     0.252 S 
ATOM     97  C6  UAP d 801       0.013  62.718 -11.742  0.00  0.00     0.233 C 
ATOM     98  C2  UAP d 801       1.411  58.983 -10.784  0.00  0.00     0.135 C 
ATOM     99  C5  UAP d 801       0.538  61.519 -11.485  0.00  0.00     0.147 C 
ATOM    100  O61 UAP d 801       0.492  63.733 -11.184  0.00  0.00    -0.642 OA
ATOM    101  O3  UAP d 801       3.523  60.145 -10.751  0.00  0.00    -0.389 OA
ATOM    102  H   UAP d 801       0.224  58.452 -12.492  0.00  0.00     0.134 H 
ATOM    103  H   UAP d 801       1.938  62.302 -10.205  0.00  0.00     0.085 H 
ATOM    104  H   UAP d 801       2.215  60.112  -9.194  0.00  0.00     0.093 H 
ATOM    105  H   UAP d 801       2.075  58.149 -10.868  0.00  0.00     0.097 H 
ATOM    106  H   UAP d 801       3.511  60.205 -11.719  0.00  0.00     0.210 HD
ENDROOT
TORSDOF 33
ENDMDL
MODEL 20
REMARK VINA RESULT:      -6.0      3.287      7.760
REMARK  0 active torsions:
REMARK  status: ('A' for Active; 'I' for Inactive)
REMARK       I    between atoms: C2_1  and  O2_62 
REMARK       I    between atoms: O3_2  and  C3_65 
REMARK       I    between atoms: O1_3  and  C1_15 
REMARK       I    between atoms: C5_5  and  C6_58 
REMARK       I    between atoms: C1_6  and  O4_70 
REMARK       I    between atoms: S_7  and  O2_62 
REMARK       I    between atoms: O2_9  and  C2_55 
REMARK       I    between atoms: O2_9  and  S_49 
REMARK       I    between atoms: O4_11  and  C1_28 
REMARK       I    between atoms: O4_11  and  C4_41 
REMARK       I    between atoms: O6_12  and  C6_58 
REMARK       I    between atoms: O6_12  and  S2_38 
REMARK       I    between atoms: S1_16  and  N_21 
REMARK       I    between atoms: S1_16  and  O1S_32 
REMARK       I    between atoms: S1_16  and  O2S_53 
REMARK       I    between atoms: S1_16  and  O3S_24 
REMARK       I    between atoms: N_18  and  C2_66 
REMARK       I    between atoms: N_18  and  S1_37 
REMARK       I    between atoms: C3_19  and  O3_27 
REMARK       I    between atoms: N_21  and  C2_31 
REMARK       I    between atoms: C4_22  and  O4_70 
REMARK       I    between atoms: C6_25  and  C5_46 
REMARK       I    between atoms: C6_25  and  O6_45 
REMARK       I    between atoms: O1_33  and  C1_51 
REMARK       I    between atoms: O1_33  and  C4_34 
REMARK       I    between atoms: O3S_35  and  S1_37 
REMARK       I    between atoms: S1_37  and  O1S_42 
REMARK       I    between atoms: S1_37  and  O2S_63 
REMARK       I    between atoms: O3_39  and  C3_54 
REMARK       I    between atoms: C6_40  and  C5_60 
REMARK       I    between atoms: C3_44  and  O3_64 
REMARK       I    between atoms: O6_45  and  S2_59 
REMARK       I    between atoms: C6_50  and  C5_56 
ROOT
ATOM      1  C2  IDS d 803       0.215  57.844 -15.906  0.00  0.00     0.134 C 
ATOM      2  C1  IDS d 803       1.666  57.669 -15.459  0.00  0.00     0.161 C 
ATOM      3  S   IDS d 803      -1.562  59.362 -14.434  0.00  0.00     0.252 S 
ATOM      4  O3S IDS d 803      -0.721  60.292 -13.656  0.00  0.00    -0.572 OA
ATOM      5  O5  IDS d 803       1.849  56.358 -14.899  0.00  0.00    -0.340 OA
ATOM      6  C3  IDS d 803      -0.185  56.721 -16.863  0.00  0.00     0.094 C 
ATOM      7  O2S IDS d 803      -1.952  60.003 -15.704  0.00  0.00    -0.572 OA
ATOM      8  O3  IDS d 803       0.525  56.818 -18.080  0.00  0.00    -0.390 OA
ATOM      9  C4  IDS d 803       0.062  55.367 -16.199  0.00  0.00     0.103 C 
ATOM     10  C6  IDS d 803       1.796  53.975 -15.064  0.00  0.00     0.206 C 
ATOM     11  O61 IDS d 803       2.110  52.966 -15.732  0.00  0.00    -0.646 OA
ATOM     12  C5  IDS d 803       1.536  55.281 -15.797  0.00  0.00     0.152 C 
ATOM     13  O2  IDS d 803      -0.652  57.885 -14.775  0.00  0.00    -0.244 OA
ATOM     14  O62 IDS d 803       1.715  53.960 -13.817  0.00  0.00    -0.646 OA
ATOM     15  O1S IDS d 803      -2.771  59.027 -13.659  0.00  0.00    -0.572 OA
ATOM     16  H   IDS d 803       0.124  58.774 -16.427  0.00  0.00     0.097 H 
ATOM     17  H   IDS d 803       1.885  58.385 -14.696  0.00  0.00     0.133 H 
ATOM     18  H   IDS d 803      -1.227  56.814 -17.088  0.00  0.00     0.091 H 
ATOM     19  H   IDS d 803       1.476  56.736 -17.907  0.00  0.00     0.210 HD
ATOM     20  H   IDS d 803      -0.180  54.581 -16.883  0.00  0.00     0.092 H 
ATOM     21  H   IDS d 803       2.136  55.338 -16.681  0.00  0.00     0.104 H 
ATOM     22  O3  SGN d 802      -3.587  55.001 -11.916  0.00  0.00    -0.391 OA
ATOM     23  O4  SGN d 802      -1.808  52.898 -11.313  0.00  0.00    -0.348 OA
ATOM     24  S1  SGN d 802      -4.615  56.681 -15.592  0.00  0.00     0.156 S 
ATOM     25  O5S SGN d 802      -3.527  48.387 -14.543  0.00  0.00    -0.572 OA
ATOM     26  N   SGN d 802      -3.339  56.251 -14.446  0.00  0.00    -0.210 NA
ATOM     27  O3S SGN d 802      -4.085  56.591 -16.966  0.00  0.00    -0.296 OA
ATOM     28  C6  SGN d 802      -0.937  51.222 -13.572  0.00  0.00     0.067 C 
ATOM     29  O5  SGN d 802      -1.626  53.031 -14.980  0.00  0.00    -0.349 OA
ATOM     30  C2  SGN d 802      -3.018  54.854 -14.249  0.00  0.00     0.081 C 
ATOM     31  O1S SGN d 802      -5.068  58.058 -15.326  0.00  0.00    -0.296 OA
ATOM     32  O1  SGN d 802      -0.761  55.235 -15.036  0.00  0.00    -0.348 OA
ATOM     33  C4  SGN d 802      -2.264  53.131 -12.647  0.00  0.00     0.095 C 
ATOM     34  O6  SGN d 802      -2.128  50.561 -13.994  0.00  0.00    -0.254 OA
ATOM     35  C5  SGN d 802      -1.180  52.722 -13.649  0.00  0.00     0.091 C 
ATOM     36  O4S SGN d 802      -1.965  48.250 -12.708  0.00  0.00    -0.572 OA
ATOM     37  C1  SGN d 802      -1.920  54.416 -15.215  0.00  0.00     0.150 C 
ATOM     38  O6S SGN d 802      -1.158  48.307 -14.985  0.00  0.00    -0.572 OA
ATOM     39  O2S SGN d 802      -5.749  55.748 -15.441  0.00  0.00    -0.296 OA
ATOM     40  S2  SGN d 802      -2.196  48.800 -14.059  0.00  0.00     0.251 S 
ATOM     41  C3  SGN d 802      -2.570  54.613 -12.813  0.00  0.00     0.083 C 
ATOM     42  H   SGN d 802      -3.775  55.946 -12.030  0.00  0.00     0.210 HD
ATOM     43  H   SGN d 802      -3.614  56.627 -13.539  0.00  0.00     0.140 HD
ATOM     44  H   SGN d 802      -3.341  57.204 -17.065  0.00  0.00     0.231 HD
ATOM     45  H   SGN d 802      -0.704  50.942 -12.565  0.00  0.00     0.080 H 
ATOM     46  H   SGN d 802      -0.116  50.945 -14.199  0.00  0.00     0.080 H 
ATOM     47  H   SGN d 802      -3.898  54.276 -14.441  0.00  0.00     0.076 H 
ATOM     48  H   SGN d 802      -5.416  58.115 -14.422  0.00  0.00     0.231 HD
ATOM     49  H   SGN d 802      -3.145  52.551 -12.828  0.00  0.00     0.091 H 
ATOM     50  H   SGN d 802      -0.280  53.250 -13.417  0.00  0.00     0.090 H 
ATOM     51  H   SGN d 802      -2.244  54.532 -16.228  0.00  0.00     0.131 H 
ATOM     52  H   SGN d 802      -6.097  55.807 -14.537  0.00  0.00     0.231 HD
ATOM     53  H   SGN d 802      -1.696  55.192 -12.602  0.00  0.00     0.089 H 
ATOM     54  O1  SGN d 804       6.768  58.597 -18.111  0.00  0.00    -0.369 OA
ATOM     55  C5  SGN d 804       4.357  59.538 -16.827  0.00  0.00     0.091 C 
ATOM     56  O6  SGN d 804       3.488  61.117 -15.214  0.00  0.00    -0.254 OA
ATOM     57  O6S SGN d 804       2.950  62.895 -13.316  0.00  0.00    -0.572 OA
ATOM     58  C1  SGN d 804       6.658  58.826 -16.705  0.00  0.00     0.147 C 
ATOM     59  N   SGN d 804       7.165  56.466 -16.336  0.00  0.00    -0.210 NA
ATOM     60  C4  SGN d 804       3.886  58.283 -16.091  0.00  0.00     0.095 C 
ATOM     61  O5S SGN d 804       1.085  62.057 -14.591  0.00  0.00    -0.572 OA
ATOM     62  O3S SGN d 804       9.069  57.710 -14.968  0.00  0.00    -0.296 OA
ATOM     63  S1  SGN d 804       8.845  56.499 -15.783  0.00  0.00     0.156 S 
ATOM     64  S2  SGN d 804       2.498  62.474 -14.656  0.00  0.00     0.251 S 
ATOM     65  O3  SGN d 804       4.455  55.976 -15.710  0.00  0.00    -0.391 OA
ATOM     66  O1S SGN d 804       9.743  56.518 -16.952  0.00  0.00    -0.296 OA
ATOM     67  O5  SGN d 804       5.698  59.855 -16.419  0.00  0.00    -0.350 OA
ATOM     68  C3  SGN d 804       4.844  57.139 -16.406  0.00  0.00     0.083 C 
ATOM     69  C6  SGN d 804       3.430  60.725 -16.584  0.00  0.00     0.067 C 
ATOM     70  O2S SGN d 804       9.123  55.300 -14.969  0.00  0.00    -0.296 OA
ATOM     71  C2  SGN d 804       6.252  57.538 -15.987  0.00  0.00     0.081 C 
ATOM     72  O4S SGN d 804       2.632  63.601 -15.597  0.00  0.00    -0.572 OA
ATOM     73  O4  SGN d 804       2.573  57.932 -16.532  0.00  0.00    -0.348 OA
ATOM     74  H   SGN d 804       7.422  57.899 -18.275  0.00  0.00     0.212 HD
ATOM     75  H   SGN d 804       4.337  59.336 -17.878  0.00  0.00     0.090 H 
ATOM     76  H   SGN d 804       7.617  59.145 -16.352  0.00  0.00     0.131 H 
ATOM     77  H   SGN d 804       7.194  56.427 -17.354  0.00  0.00     0.140 HD
ATOM     78  H   SGN d 804       3.868  58.469 -15.037  0.00  0.00     0.091 H 
ATOM     79  H   SGN d 804       8.887  58.498 -15.502  0.00  0.00     0.231 HD
ATOM     80  H   SGN d 804       3.557  55.723 -15.978  0.00  0.00     0.210 HD
ATOM     81  H   SGN d 804       9.561  57.306 -17.488  0.00  0.00     0.231 HD
ATOM     82  H   SGN d 804       4.820  56.936 -17.457  0.00  0.00     0.089 H 
ATOM     83  H   SGN d 804       2.427  60.448 -16.831  0.00  0.00     0.080 H 
ATOM     84  H   SGN d 804       3.741  61.545 -17.197  0.00  0.00     0.080 H 
ATOM     85  H   SGN d 804       8.532  55.287 -14.200  0.00  0.00     0.231 HD
ATOM     86  H   SGN d 804       6.285  57.708 -14.932  0.00  0.00     0.076 H 
ATOM     87  O5  UAP d 801      -3.764  51.838 -10.501  0.00  0.00    -0.311 OA
ATOM     88  O2  UAP d 801      -2.120  50.291  -8.773  0.00  0.00    -0.244 OA
ATOM     89  O1S UAP d 801      -1.610  47.938  -7.660  0.00  0.00    -0.572 OA
ATOM     90  O3S UAP d 801       0.112  48.886  -9.053  0.00  0.00    -0.572 OA
ATOM     91  C1  UAP d 801      -2.351  51.734 -10.688  0.00  0.00     0.167 C 
ATOM     92  O2S UAP d 801      -0.322  49.815  -6.875  0.00  0.00    -0.572 OA
ATOM     93  C4  UAP d 801      -3.396  53.111  -8.543  0.00  0.00    -0.034 C 
ATOM     94  C3  UAP d 801      -2.029  52.666  -8.377  0.00  0.00     0.086 C 
ATOM     95  O62 UAP d 801      -6.193  52.763 -10.538  0.00  0.00    -0.642 OA
ATOM     96  S   UAP d 801      -0.937  49.188  -8.061  0.00  0.00     0.252 S 
ATOM     97  C6  UAP d 801      -5.444  53.150  -9.611  0.00  0.00     0.233 C 
ATOM     98  C2  UAP d 801      -1.687  51.529  -9.334  0.00  0.00     0.135 C 
ATOM     99  C5  UAP d 801      -4.190  52.700  -9.554  0.00  0.00     0.147 C 
ATOM    100  O61 UAP d 801      -5.857  53.942  -8.731  0.00  0.00    -0.642 OA
ATOM    101  O3  UAP d 801      -1.147  53.750  -8.568  0.00  0.00    -0.389 OA
ATOM    102  H   UAP d 801      -2.160  50.901 -11.332  0.00  0.00     0.134 H 
ATOM    103  H   UAP d 801      -3.783  53.774  -7.854  0.00  0.00     0.085 H 
ATOM    104  H   UAP d 801      -1.920  52.291  -7.381  0.00  0.00     0.093 H 
ATOM    105  H   UAP d 801      -0.628  51.515  -9.479  0.00  0.00     0.097 H 
ATOM    106  H   UAP d 801      -1.244  54.090  -9.471  0.00  0.00     0.210 HD
ENDROOT
TORSDOF 33
ENDMDL
MODEL 21
REMARK VINA RESULT:      -5.9      4.548      9.857
REMARK  0 active torsions:
REMARK  status: ('A' for Active; 'I' for Inactive)
REMARK       I    between atoms: C2_1  and  O2_62 
REMARK       I    between atoms: O3_2  and  C3_65 
REMARK       I    between atoms: O1_3  and  C1_15 
REMARK       I    between atoms: C5_5  and  C6_58 
REMARK       I    between atoms: C1_6  and  O4_70 
REMARK       I    between atoms: S_7  and  O2_62 
REMARK       I    between atoms: O2_9  and  C2_55 
REMARK       I    between atoms: O2_9  and  S_49 
REMARK       I    between atoms: O4_11  and  C1_28 
REMARK       I    between atoms: O4_11  and  C4_41 
REMARK       I    between atoms: O6_12  and  C6_58 
REMARK       I    between atoms: O6_12  and  S2_38 
REMARK       I    between atoms: S1_16  and  N_21 
REMARK       I    between atoms: S1_16  and  O1S_32 
REMARK       I    between atoms: S1_16  and  O2S_53 
REMARK       I    between atoms: S1_16  and  O3S_24 
REMARK       I    between atoms: N_18  and  C2_66 
REMARK       I    between atoms: N_18  and  S1_37 
REMARK       I    between atoms: C3_19  and  O3_27 
REMARK       I    between atoms: N_21  and  C2_31 
REMARK       I    between atoms: C4_22  and  O4_70 
REMARK       I    between atoms: C6_25  and  C5_46 
REMARK       I    between atoms: C6_25  and  O6_45 
REMARK       I    between atoms: O1_33  and  C1_51 
REMARK       I    between atoms: O1_33  and  C4_34 
REMARK       I    between atoms: O3S_35  and  S1_37 
REMARK       I    between atoms: S1_37  and  O1S_42 
REMARK       I    between atoms: S1_37  and  O2S_63 
REMARK       I    between atoms: O3_39  and  C3_54 
REMARK       I    between atoms: C6_40  and  C5_60 
REMARK       I    between atoms: C3_44  and  O3_64 
REMARK       I    between atoms: O6_45  and  S2_59 
REMARK       I    between atoms: C6_50  and  C5_56 
ROOT
ATOM      1  C2  IDS d 803      -2.278  57.348 -11.628  0.00  0.00     0.134 C 
ATOM      2  C1  IDS d 803      -2.126  58.391 -12.735  0.00  0.00     0.161 C 
ATOM      3  S   IDS d 803      -0.466  57.193  -9.550  0.00  0.00     0.252 S 
ATOM      4  O3S IDS d 803       0.146  58.534  -9.472  0.00  0.00    -0.572 OA
ATOM      5  O5  IDS d 803      -1.632  57.766 -13.930  0.00  0.00    -0.340 OA
ATOM      6  C3  IDS d 803      -3.155  56.191 -12.106  0.00  0.00     0.094 C 
ATOM      7  O2S IDS d 803      -1.625  57.133  -8.640  0.00  0.00    -0.572 OA
ATOM      8  O3  IDS d 803      -4.485  56.616 -12.312  0.00  0.00    -0.390 OA
ATOM      9  C4  IDS d 803      -2.571  55.600 -13.389  0.00  0.00     0.103 C 
ATOM     10  C6  IDS d 803      -1.817  56.171 -15.700  0.00  0.00     0.206 C 
ATOM     11  O61 IDS d 803      -2.547  55.664 -16.579  0.00  0.00    -0.646 OA
ATOM     12  C5  IDS d 803      -2.466  56.711 -14.436  0.00  0.00     0.152 C 
ATOM     13  O2  IDS d 803      -0.999  56.881 -11.206  0.00  0.00    -0.244 OA
ATOM     14  O62 IDS d 803      -0.578  56.276 -15.830  0.00  0.00    -0.646 OA
ATOM     15  O1S IDS d 803       0.526  56.177  -9.153  0.00  0.00    -0.572 OA
ATOM     16  H   IDS d 803      -2.758  57.804 -10.788  0.00  0.00     0.097 H 
ATOM     17  H   IDS d 803      -1.410  59.124 -12.428  0.00  0.00     0.133 H 
ATOM     18  H   IDS d 803      -3.170  55.434 -11.350  0.00  0.00     0.091 H 
ATOM     19  H   IDS d 803      -4.502  57.304 -12.996  0.00  0.00     0.210 HD
ATOM     20  H   IDS d 803      -3.205  54.817 -13.747  0.00  0.00     0.092 H 
ATOM     21  H   IDS d 803      -3.449  57.075 -14.649  0.00  0.00     0.104 H 
ATOM     22  O3  SGN d 802       2.337  53.220 -11.961  0.00  0.00    -0.391 OA
ATOM     23  O4  SGN d 802       2.551  53.293 -14.772  0.00  0.00    -0.348 OA
ATOM     24  S1  SGN d 802      -1.043  53.008  -9.528  0.00  0.00     0.156 S 
ATOM     25  O5S SGN d 802      -0.345  48.645 -16.707  0.00  0.00    -0.572 OA
ATOM     26  N   SGN d 802      -0.174  53.854 -10.814  0.00  0.00    -0.210 NA
ATOM     27  O3S SGN d 802      -2.494  53.156  -9.741  0.00  0.00    -0.296 OA
ATOM     28  C6  SGN d 802       0.142  52.553 -16.295  0.00  0.00     0.067 C 
ATOM     29  O5  SGN d 802      -1.079  52.999 -14.284  0.00  0.00    -0.349 OA
ATOM     30  C2  SGN d 802      -0.063  53.225 -12.113  0.00  0.00     0.081 C 
ATOM     31  O1S SGN d 802      -0.674  53.589  -8.224  0.00  0.00    -0.296 OA
ATOM     32  O1  SGN d 802      -1.271  55.059 -13.132  0.00  0.00    -0.348 OA
ATOM     33  C4  SGN d 802       1.336  52.911 -14.125  0.00  0.00     0.095 C 
ATOM     34  O6  SGN d 802      -0.048  51.172 -15.996  0.00  0.00    -0.254 OA
ATOM     35  C5  SGN d 802       0.135  53.323 -14.983  0.00  0.00     0.091 C 
ATOM     36  O4S SGN d 802       1.147  49.991 -18.043  0.00  0.00    -0.572 OA
ATOM     37  C1  SGN d 802      -1.232  53.635 -13.007  0.00  0.00     0.150 C 
ATOM     38  O6S SGN d 802      -1.241  50.314 -18.196  0.00  0.00    -0.572 OA
ATOM     39  O2S SGN d 802      -0.686  51.576  -9.550  0.00  0.00    -0.296 OA
ATOM     40  S2  SGN d 802      -0.124  49.980 -17.292  0.00  0.00     0.251 S 
ATOM     41  C3  SGN d 802       1.253  53.610 -12.775  0.00  0.00     0.083 C 
ATOM     42  H   SGN d 802       2.276  53.670 -11.104  0.00  0.00     0.210 HD
ATOM     43  H   SGN d 802       0.775  54.016 -10.478  0.00  0.00     0.140 HD
ATOM     44  H   SGN d 802      -2.728  54.097  -9.726  0.00  0.00     0.231 HD
ATOM     45  H   SGN d 802       1.080  52.691 -16.792  0.00  0.00     0.080 H 
ATOM     46  H   SGN d 802      -0.638  52.905 -16.937  0.00  0.00     0.080 H 
ATOM     47  H   SGN d 802      -0.088  52.164 -11.977  0.00  0.00     0.076 H 
ATOM     48  H   SGN d 802       0.282  53.491  -8.085  0.00  0.00     0.231 HD
ATOM     49  H   SGN d 802       1.322  51.850 -13.991  0.00  0.00     0.091 H 
ATOM     50  H   SGN d 802       0.194  54.374 -15.175  0.00  0.00     0.090 H 
ATOM     51  H   SGN d 802      -2.160  53.323 -12.576  0.00  0.00     0.131 H 
ATOM     52  H   SGN d 802       0.269  51.479  -9.410  0.00  0.00     0.231 HD
ATOM     53  H   SGN d 802       1.298  54.671 -12.910  0.00  0.00     0.089 H 
ATOM     54  O1  SGN d 804      -5.711  62.457 -14.868  0.00  0.00    -0.369 OA
ATOM     55  C5  SGN d 804      -3.967  61.427 -12.807  0.00  0.00     0.091 C 
ATOM     56  O6  SGN d 804      -2.193  62.014 -11.272  0.00  0.00    -0.254 OA
ATOM     57  O6S SGN d 804      -0.201  63.019  -9.831  0.00  0.00    -0.572 OA
ATOM     58  C1  SGN d 804      -4.307  62.719 -14.816  0.00  0.00     0.147 C 
ATOM     59  N   SGN d 804      -4.078  61.636 -16.992  0.00  0.00    -0.210 NA
ATOM     60  C4  SGN d 804      -3.171  60.369 -13.573  0.00  0.00     0.095 C 
ATOM     61  O5S SGN d 804      -1.098  60.897  -9.127  0.00  0.00    -0.572 OA
ATOM     62  O3S SGN d 804      -3.091  64.062 -17.422  0.00  0.00    -0.296 OA
ATOM     63  S1  SGN d 804      -3.864  63.000 -18.097  0.00  0.00     0.156 S 
ATOM     64  S2  SGN d 804      -1.433  62.220  -9.687  0.00  0.00     0.251 S 
ATOM     65  O3  SGN d 804      -2.941  59.368 -15.750  0.00  0.00    -0.391 OA
ATOM     66  O1S SGN d 804      -5.185  63.524 -18.488  0.00  0.00    -0.296 OA
ATOM     67  O5  SGN d 804      -3.824  62.698 -13.463  0.00  0.00    -0.350 OA
ATOM     68  C3  SGN d 804      -3.683  60.310 -15.008  0.00  0.00     0.083 C 
ATOM     69  C6  SGN d 804      -3.530  61.526 -11.349  0.00  0.00     0.067 C 
ATOM     70  O2S SGN d 804      -3.137  62.553 -19.301  0.00  0.00    -0.296 OA
ATOM     71  C2  SGN d 804      -3.543  61.686 -15.645  0.00  0.00     0.081 C 
ATOM     72  O4S SGN d 804      -2.366  62.913  -8.779  0.00  0.00    -0.572 OA
ATOM     73  O4  SGN d 804      -3.351  59.092 -12.957  0.00  0.00    -0.348 OA
ATOM     74  H   SGN d 804      -6.010  62.477 -15.791  0.00  0.00     0.212 HD
ATOM     75  H   SGN d 804      -4.996  61.134 -12.806  0.00  0.00     0.090 H 
ATOM     76  H   SGN d 804      -4.144  63.696 -15.222  0.00  0.00     0.131 H 
ATOM     77  H   SGN d 804      -5.083  61.489 -16.901  0.00  0.00     0.140 HD
ATOM     78  H   SGN d 804      -2.132  60.623 -13.563  0.00  0.00     0.091 H 
ATOM     79  H   SGN d 804      -3.568  64.356 -16.631  0.00  0.00     0.231 HD
ATOM     80  H   SGN d 804      -3.032  58.492 -15.343  0.00  0.00     0.210 HD
ATOM     81  H   SGN d 804      -5.664  63.818 -17.697  0.00  0.00     0.231 HD
ATOM     82  H   SGN d 804      -4.712  60.015 -15.005  0.00  0.00     0.089 H 
ATOM     83  H   SGN d 804      -3.580  60.557 -10.898  0.00  0.00     0.080 H 
ATOM     84  H   SGN d 804      -4.181  62.201 -10.833  0.00  0.00     0.080 H 
ATOM     85  H   SGN d 804      -2.268  62.208 -19.045  0.00  0.00     0.231 HD
ATOM     86  H   SGN d 804      -2.512  61.969 -15.679  0.00  0.00     0.076 H 
ATOM     87  O5  UAP d 801       3.715  51.253 -14.466  0.00  0.00    -0.311 OA
ATOM     88  O2  UAP d 801       5.066  51.740 -16.919  0.00  0.00    -0.244 OA
ATOM     89  O1S UAP d 801       6.024  50.769 -19.193  0.00  0.00    -0.572 OA
ATOM     90  O3S UAP d 801       4.335  52.478 -19.359  0.00  0.00    -0.572 OA
ATOM     91  C1  UAP d 801       3.254  52.224 -15.408  0.00  0.00     0.167 C 
ATOM     92  O2S UAP d 801       6.568  53.055 -18.672  0.00  0.00    -0.572 OA
ATOM     93  C4  UAP d 801       5.581  52.624 -13.989  0.00  0.00    -0.034 C 
ATOM     94  C3  UAP d 801       5.470  53.391 -15.211  0.00  0.00     0.086 C 
ATOM     95  O62 UAP d 801       4.167  50.013 -12.226  0.00  0.00    -0.642 OA
ATOM     96  S   UAP d 801       5.517  52.022 -18.605  0.00  0.00     0.252 S 
ATOM     97  C6  UAP d 801       4.934  50.957 -12.526  0.00  0.00     0.233 C 
ATOM     98  C2  UAP d 801       4.448  52.782 -16.166  0.00  0.00     0.135 C 
ATOM     99  C5  UAP d 801       4.739  51.620 -13.667  0.00  0.00     0.147 C 
ATOM    100  O61 UAP d 801       5.889  51.279 -11.781  0.00  0.00    -0.642 OA
ATOM    101  O3  UAP d 801       5.126  54.725 -14.909  0.00  0.00    -0.389 OA
ATOM    102  H   UAP d 801       2.573  51.742 -16.077  0.00  0.00     0.134 H 
ATOM    103  H   UAP d 801       6.342  52.856 -13.331  0.00  0.00     0.085 H 
ATOM    104  H   UAP d 801       6.421  53.372 -15.703  0.00  0.00     0.093 H 
ATOM    105  H   UAP d 801       4.099  53.551 -16.823  0.00  0.00     0.097 H 
ATOM    106  H   UAP d 801       4.264  54.744 -14.464  0.00  0.00     0.210 HD
ENDROOT
TORSDOF 33
ENDMDL
MODEL 22
REMARK VINA RESULT:      -5.9      3.975     11.812
REMARK  0 active torsions:
REMARK  status: ('A' for Active; 'I' for Inactive)
REMARK       I    between atoms: C2_1  and  O2_62 
REMARK       I    between atoms: O3_2  and  C3_65 
REMARK       I    between atoms: O1_3  and  C1_15 
REMARK       I    between atoms: C5_5  and  C6_58 
REMARK       I    between atoms: C1_6  and  O4_70 
REMARK       I    between atoms: S_7  and  O2_62 
REMARK       I    between atoms: O2_9  and  C2_55 
REMARK       I    between atoms: O2_9  and  S_49 
REMARK       I    between atoms: O4_11  and  C1_28 
REMARK       I    between atoms: O4_11  and  C4_41 
REMARK       I    between atoms: O6_12  and  C6_58 
REMARK       I    between atoms: O6_12  and  S2_38 
REMARK       I    between atoms: S1_16  and  N_21 
REMARK       I    between atoms: S1_16  and  O1S_32 
REMARK       I    between atoms: S1_16  and  O2S_53 
REMARK       I    between atoms: S1_16  and  O3S_24 
REMARK       I    between atoms: N_18  and  C2_66 
REMARK       I    between atoms: N_18  and  S1_37 
REMARK       I    between atoms: C3_19  and  O3_27 
REMARK       I    between atoms: N_21  and  C2_31 
REMARK       I    between atoms: C4_22  and  O4_70 
REMARK       I    between atoms: C6_25  and  C5_46 
REMARK       I    between atoms: C6_25  and  O6_45 
REMARK       I    between atoms: O1_33  and  C1_51 
REMARK       I    between atoms: O1_33  and  C4_34 
REMARK       I    between atoms: O3S_35  and  S1_37 
REMARK       I    between atoms: S1_37  and  O1S_42 
REMARK       I    between atoms: S1_37  and  O2S_63 
REMARK       I    between atoms: O3_39  and  C3_54 
REMARK       I    between atoms: C6_40  and  C5_60 
REMARK       I    between atoms: C3_44  and  O3_64 
REMARK       I    between atoms: O6_45  and  S2_59 
REMARK       I    between atoms: C6_50  and  C5_56 
ROOT
ATOM      1  C2  IDS d 803      -0.106  59.106 -12.630  0.00  0.00     0.134 C 
ATOM      2  C1  IDS d 803      -0.951  57.832 -12.627  0.00  0.00     0.161 C 
ATOM      3  S   IDS d 803      -0.393  61.008 -14.611  0.00  0.00     0.252 S 
ATOM      4  O3S IDS d 803      -1.755  60.808 -15.143  0.00  0.00    -0.572 OA
ATOM      5  O5  IDS d 803      -0.155  56.717 -13.061  0.00  0.00    -0.340 OA
ATOM      6  C3  IDS d 803       1.156  58.907 -11.791  0.00  0.00     0.094 C 
ATOM      7  O2S IDS d 803      -0.434  62.017 -13.535  0.00  0.00    -0.572 OA
ATOM      8  O3  IDS d 803       0.836  58.754 -10.425  0.00  0.00    -0.390 OA
ATOM      9  C4  IDS d 803       1.929  57.692 -12.305  0.00  0.00     0.103 C 
ATOM     10  C6  IDS d 803       1.725  55.260 -12.832  0.00  0.00     0.206 C 
ATOM     11  O61 IDS d 803       2.408  54.547 -12.065  0.00  0.00    -0.646 OA
ATOM     12  C5  IDS d 803       1.008  56.471 -12.255  0.00  0.00     0.152 C 
ATOM     13  O2  IDS d 803       0.222  59.481 -13.966  0.00  0.00    -0.244 OA
ATOM     14  O62 IDS d 803       1.585  55.003 -14.047  0.00  0.00    -0.646 OA
ATOM     15  O1S IDS d 803       0.493  61.477 -15.693  0.00  0.00    -0.572 OA
ATOM     16  H   IDS d 803      -0.675  59.899 -12.193  0.00  0.00     0.097 H 
ATOM     17  H   IDS d 803      -1.759  57.948 -13.319  0.00  0.00     0.133 H 
ATOM     18  H   IDS d 803       1.773  59.777 -11.884  0.00  0.00     0.091 H 
ATOM     19  H   IDS d 803       0.276  57.970 -10.310  0.00  0.00     0.210 HD
ATOM     20  H   IDS d 803       2.791  57.528 -11.693  0.00  0.00     0.092 H 
ATOM     21  H   IDS d 803       0.733  56.290 -11.238  0.00  0.00     0.104 H 
ATOM     22  O3  SGN d 802       3.796  59.045 -17.450  0.00  0.00    -0.391 OA
ATOM     23  O4  SGN d 802       4.192  56.254 -17.430  0.00  0.00    -0.348 OA
ATOM     24  S1  SGN d 802       3.749  61.776 -14.298  0.00  0.00     0.156 S 
ATOM     25  O5S SGN d 802       9.234  55.386 -14.680  0.00  0.00    -0.572 OA
ATOM     26  N   SGN d 802       3.095  60.294 -15.005  0.00  0.00    -0.210 NA
ATOM     27  O3S SGN d 802       3.709  61.673 -12.828  0.00  0.00    -0.296 OA
ATOM     28  C6  SGN d 802       5.295  55.098 -14.956  0.00  0.00     0.067 C 
ATOM     29  O5  SGN d 802       4.571  57.109 -13.877  0.00  0.00    -0.349 OA
ATOM     30  C2  SGN d 802       3.930  59.112 -15.049  0.00  0.00     0.081 C 
ATOM     31  O1S SGN d 802       2.938  62.926 -14.735  0.00  0.00    -0.296 OA
ATOM     32  O1  SGN d 802       2.355  57.917 -13.652  0.00  0.00    -0.348 OA
ATOM     33  C4  SGN d 802       4.516  57.062 -16.297  0.00  0.00     0.095 C 
ATOM     34  O6  SGN d 802       6.612  55.638 -14.876  0.00  0.00    -0.254 OA
ATOM     35  C5  SGN d 802       4.313  56.260 -15.008  0.00  0.00     0.091 C 
ATOM     36  O4S SGN d 802       8.067  53.715 -15.972  0.00  0.00    -0.572 OA
ATOM     37  C1  SGN d 802       3.734  58.272 -13.789  0.00  0.00     0.150 C 
ATOM     38  O6S SGN d 802       7.887  53.727 -13.564  0.00  0.00    -0.572 OA
ATOM     39  O2S SGN d 802       5.146  61.958 -14.740  0.00  0.00    -0.296 OA
ATOM     40  S2  SGN d 802       8.009  54.569 -14.769  0.00  0.00     0.251 S 
ATOM     41  C3  SGN d 802       3.602  58.279 -16.282  0.00  0.00     0.083 C 
ATOM     42  H   SGN d 802       3.209  59.818 -17.430  0.00  0.00     0.210 HD
ATOM     43  H   SGN d 802       2.833  60.511 -15.966  0.00  0.00     0.140 HD
ATOM     44  H   SGN d 802       2.792  61.553 -12.538  0.00  0.00     0.231 HD
ATOM     45  H   SGN d 802       5.199  54.502 -15.840  0.00  0.00     0.080 H 
ATOM     46  H   SGN d 802       5.094  54.480 -14.106  0.00  0.00     0.080 H 
ATOM     47  H   SGN d 802       4.952  59.424 -15.101  0.00  0.00     0.076 H 
ATOM     48  H   SGN d 802       2.966  62.993 -15.703  0.00  0.00     0.231 HD
ATOM     49  H   SGN d 802       5.538  57.371 -16.360  0.00  0.00     0.091 H 
ATOM     50  H   SGN d 802       3.309  55.892 -14.985  0.00  0.00     0.090 H 
ATOM     51  H   SGN d 802       4.012  58.831 -12.920  0.00  0.00     0.131 H 
ATOM     52  H   SGN d 802       5.172  62.026 -15.707  0.00  0.00     0.231 HD
ATOM     53  H   SGN d 802       2.579  57.968 -16.250  0.00  0.00     0.089 H 
ATOM     54  O1  SGN d 804      -4.420  55.388  -8.637  0.00  0.00    -0.369 OA
ATOM     55  C5  SGN d 804      -3.839  57.425 -10.603  0.00  0.00     0.091 C 
ATOM     56  O6  SGN d 804      -4.763  58.675 -12.456  0.00  0.00    -0.254 OA
ATOM     57  O6S SGN d 804      -6.092  59.743 -14.491  0.00  0.00    -0.572 OA
ATOM     58  C1  SGN d 804      -4.753  55.269 -10.021  0.00  0.00     0.147 C 
ATOM     59  N   SGN d 804      -3.327  53.291 -10.140  0.00  0.00    -0.210 NA
ATOM     60  C4  SGN d 804      -2.706  56.776 -11.397  0.00  0.00     0.095 C 
ATOM     61  O5S SGN d 804      -4.080  60.867 -13.787  0.00  0.00    -0.572 OA
ATOM     62  O3S SGN d 804      -5.688  52.377 -10.937  0.00  0.00    -0.296 OA
ATOM     63  S1  SGN d 804      -4.491  51.960 -10.179  0.00  0.00     0.156 S 
ATOM     64  S2  SGN d 804      -5.272  60.129 -13.327  0.00  0.00     0.251 S 
ATOM     65  O3  SGN d 804      -1.360  54.783 -11.512  0.00  0.00    -0.391 OA
ATOM     66  O1S SGN d 804      -4.878  51.609  -8.800  0.00  0.00    -0.296 OA
ATOM     67  O5  SGN d 804      -4.985  56.557 -10.613  0.00  0.00    -0.350 OA
ATOM     68  C3  SGN d 804      -2.379  55.422 -10.775  0.00  0.00     0.083 C 
ATOM     69  C6  SGN d 804      -4.206  58.801 -11.149  0.00  0.00     0.067 C 
ATOM     70  O2S SGN d 804      -3.881  50.786 -10.831  0.00  0.00    -0.296 OA
ATOM     71  C2  SGN d 804      -3.631  54.557 -10.778  0.00  0.00     0.081 C 
ATOM     72  O4S SGN d 804      -6.064  60.990 -12.430  0.00  0.00    -0.572 OA
ATOM     73  O4  SGN d 804      -1.545  57.609 -11.347  0.00  0.00    -0.348 OA
ATOM     74  H   SGN d 804      -4.268  54.505  -8.263  0.00  0.00     0.212 HD
ATOM     75  H   SGN d 804      -3.503  57.567  -9.597  0.00  0.00     0.090 H 
ATOM     76  H   SGN d 804      -5.653  54.694 -10.090  0.00  0.00     0.131 H 
ATOM     77  H   SGN d 804      -3.150  53.495  -9.156  0.00  0.00     0.140 HD
ATOM     78  H   SGN d 804      -3.007  56.649 -12.416  0.00  0.00     0.091 H 
ATOM     79  H   SGN d 804      -6.089  53.149 -10.508  0.00  0.00     0.231 HD
ATOM     80  H   SGN d 804      -0.563  55.336 -11.508  0.00  0.00     0.210 HD
ATOM     81  H   SGN d 804      -5.279  52.380  -8.370  0.00  0.00     0.231 HD
ATOM     82  H   SGN d 804      -2.040  55.567  -9.770  0.00  0.00     0.089 H 
ATOM     83  H   SGN d 804      -3.327  59.409 -11.196  0.00  0.00     0.080 H 
ATOM     84  H   SGN d 804      -4.927  59.255 -10.502  0.00  0.00     0.080 H 
ATOM     85  H   SGN d 804      -3.626  51.016 -11.738  0.00  0.00     0.231 HD
ATOM     86  H   SGN d 804      -3.953  54.383 -11.784  0.00  0.00     0.076 H 
ATOM     87  O5  UAP d 801       6.093  56.787 -18.739  0.00  0.00    -0.311 OA
ATOM     88  O2  UAP d 801       5.968  54.175 -19.854  0.00  0.00    -0.244 OA
ATOM     89  O1S UAP d 801       7.266  52.016 -20.682  0.00  0.00    -0.572 OA
ATOM     90  O3S UAP d 801       5.692  51.723 -18.883  0.00  0.00    -0.572 OA
ATOM     91  C1  UAP d 801       5.320  55.743 -18.144  0.00  0.00     0.167 C 
ATOM     92  O2S UAP d 801       4.902  52.100 -21.125  0.00  0.00    -0.572 OA
ATOM     93  C4  UAP d 801       4.574  56.860 -20.549  0.00  0.00    -0.034 C 
ATOM     94  C3  UAP d 801       4.033  55.542 -20.292  0.00  0.00     0.086 C 
ATOM     95  O62 UAP d 801       6.911  59.151 -19.447  0.00  0.00    -0.642 OA
ATOM     96  S   UAP d 801       5.956  52.432 -20.149  0.00  0.00     0.252 S 
ATOM     97  C6  UAP d 801       5.997  58.631 -20.128  0.00  0.00     0.233 C 
ATOM     98  C2  UAP d 801       4.843  54.798 -19.236  0.00  0.00     0.135 C 
ATOM     99  C5  UAP d 801       5.547  57.419 -19.799  0.00  0.00     0.147 C 
ATOM    100  O61 UAP d 801       5.508  59.223 -21.118  0.00  0.00    -0.642 OA
ATOM    101  O3  UAP d 801       2.685  55.649 -19.892  0.00  0.00    -0.389 OA
ATOM    102  H   UAP d 801       5.941  55.227 -17.442  0.00  0.00     0.134 H 
ATOM    103  H   UAP d 801       4.198  57.398 -21.345  0.00  0.00     0.085 H 
ATOM    104  H   UAP d 801       4.091  54.977 -21.199  0.00  0.00     0.093 H 
ATOM    105  H   UAP d 801       4.216  54.057 -18.787  0.00  0.00     0.097 H 
ATOM    106  H   UAP d 801       2.631  56.161 -19.069  0.00  0.00     0.210 HD
ENDROOT
TORSDOF 33
ENDMDL
MODEL 23
REMARK VINA RESULT:      -5.9      4.538      9.746
REMARK  0 active torsions:
REMARK  status: ('A' for Active; 'I' for Inactive)
REMARK       I    between atoms: C2_1  and  O2_62 
REMARK       I    between atoms: O3_2  and  C3_65 
REMARK       I    between atoms: O1_3  and  C1_15 
REMARK       I    between atoms: C5_5  and  C6_58 
REMARK       I    between atoms: C1_6  and  O4_70 
REMARK       I    between atoms: S_7  and  O2_62 
REMARK       I    between atoms: O2_9  and  C2_55 
REMARK       I    between atoms: O2_9  and  S_49 
REMARK       I    between atoms: O4_11  and  C1_28 
REMARK       I    between atoms: O4_11  and  C4_41 
REMARK       I    between atoms: O6_12  and  C6_58 
REMARK       I    between atoms: O6_12  and  S2_38 
REMARK       I    between atoms: S1_16  and  N_21 
REMARK       I    between atoms: S1_16  and  O1S_32 
REMARK       I    between atoms: S1_16  and  O2S_53 
REMARK       I    between atoms: S1_16  and  O3S_24 
REMARK       I    between atoms: N_18  and  C2_66 
REMARK       I    between atoms: N_18  and  S1_37 
REMARK       I    between atoms: C3_19  and  O3_27 
REMARK       I    between atoms: N_21  and  C2_31 
REMARK       I    between atoms: C4_22  and  O4_70 
REMARK       I    between atoms: C6_25  and  C5_46 
REMARK       I    between atoms: C6_25  and  O6_45 
REMARK       I    between atoms: O1_33  and  C1_51 
REMARK       I    between atoms: O1_33  and  C4_34 
REMARK       I    between atoms: O3S_35  and  S1_37 
REMARK       I    between atoms: S1_37  and  O1S_42 
REMARK       I    between atoms: S1_37  and  O2S_63 
REMARK       I    between atoms: O3_39  and  C3_54 
REMARK       I    between atoms: C6_40  and  C5_60 
REMARK       I    between atoms: C3_44  and  O3_64 
REMARK       I    between atoms: O6_45  and  S2_59 
REMARK       I    between atoms: C6_50  and  C5_56 
ROOT
ATOM      1  C2  IDS d 803       4.986  56.755 -17.739  0.00  0.00     0.134 C 
ATOM      2  C1  IDS d 803       4.493  55.386 -17.271  0.00  0.00     0.161 C 
ATOM      3  S   IDS d 803       7.298  57.869 -16.720  0.00  0.00     0.252 S 
ATOM      4  O3S IDS d 803       8.092  56.726 -16.227  0.00  0.00    -0.572 OA
ATOM      5  O5  IDS d 803       3.378  55.547 -16.380  0.00  0.00    -0.340 OA
ATOM      6  C3  IDS d 803       3.835  57.551 -18.356  0.00  0.00     0.094 C 
ATOM      7  O2S IDS d 803       7.683  58.165 -18.113  0.00  0.00    -0.572 OA
ATOM      8  O3  IDS d 803       3.396  56.954 -19.558  0.00  0.00    -0.390 OA
ATOM      9  C4  IDS d 803       2.687  57.655 -17.353  0.00  0.00     0.103 C 
ATOM     10  C6  IDS d 803       1.167  56.313 -15.896  0.00  0.00     0.206 C 
ATOM     11  O61 IDS d 803      -0.025  56.370 -16.269  0.00  0.00    -0.646 OA
ATOM     12  C5  IDS d 803       2.259  56.242 -16.952  0.00  0.00     0.152 C 
ATOM     13  O2  IDS d 803       5.578  57.468 -16.655  0.00  0.00    -0.244 OA
ATOM     14  O62 IDS d 803       1.496  56.283 -14.690  0.00  0.00    -0.646 OA
ATOM     15  O1S IDS d 803       7.560  59.049 -15.875  0.00  0.00    -0.572 OA
ATOM     16  H   IDS d 803       5.734  56.614 -18.491  0.00  0.00     0.097 H 
ATOM     17  H   IDS d 803       5.278  54.899 -16.731  0.00  0.00     0.133 H 
ATOM     18  H   IDS d 803       4.183  58.535 -18.591  0.00  0.00     0.091 H 
ATOM     19  H   IDS d 803       3.074  56.058 -19.375  0.00  0.00     0.210 HD
ATOM     20  H   IDS d 803       1.866  58.176 -17.797  0.00  0.00     0.092 H 
ATOM     21  H   IDS d 803       1.901  55.732 -17.822  0.00  0.00     0.104 H 
ATOM     22  O3  SGN d 802       4.562  60.855 -13.107  0.00  0.00    -0.391 OA
ATOM     23  O4  SGN d 802       2.242  59.726 -11.970  0.00  0.00    -0.348 OA
ATOM     24  S1  SGN d 802       5.482  61.665 -17.092  0.00  0.00     0.156 S 
ATOM     25  O5S SGN d 802      -2.190  62.975 -13.853  0.00  0.00    -0.572 OA
ATOM     26  N   SGN d 802       4.989  60.476 -15.881  0.00  0.00    -0.210 NA
ATOM     27  O3S SGN d 802       4.888  61.310 -18.394  0.00  0.00    -0.296 OA
ATOM     28  C6  SGN d 802      -0.138  59.591 -13.698  0.00  0.00     0.067 C 
ATOM     29  O5  SGN d 802       1.374  59.840 -15.538  0.00  0.00    -0.349 OA
ATOM     30  C2  SGN d 802       3.659  60.564 -15.316  0.00  0.00     0.081 C 
ATOM     31  O1S SGN d 802       6.952  61.669 -17.205  0.00  0.00    -0.296 OA
ATOM     32  O1  SGN d 802       3.115  58.373 -16.192  0.00  0.00    -0.348 OA
ATOM     33  C4  SGN d 802       2.255  60.211 -13.314  0.00  0.00     0.095 C 
ATOM     34  O6  SGN d 802      -0.486  60.956 -13.919  0.00  0.00    -0.254 OA
ATOM     35  C5  SGN d 802       1.292  59.388 -14.176  0.00  0.00     0.091 C 
ATOM     36  O4S SGN d 802      -2.328  61.366 -12.059  0.00  0.00    -0.572 OA
ATOM     37  C1  SGN d 802       2.674  59.733 -16.136  0.00  0.00     0.150 C 
ATOM     38  O6S SGN d 802      -3.103  60.784 -14.271  0.00  0.00    -0.572 OA
ATOM     39  O2S SGN d 802       5.013  63.005 -16.688  0.00  0.00    -0.296 OA
ATOM     40  S2  SGN d 802      -2.096  61.544 -13.507  0.00  0.00     0.251 S 
ATOM     41  C3  SGN d 802       3.666  60.081 -13.872  0.00  0.00     0.083 C 
ATOM     42  H   SGN d 802       5.458  60.766 -13.470  0.00  0.00     0.210 HD
ATOM     43  H   SGN d 802       5.648  60.546 -15.107  0.00  0.00     0.140 HD
ATOM     44  H   SGN d 802       5.196  60.429 -18.660  0.00  0.00     0.231 HD
ATOM     45  H   SGN d 802      -0.209  59.362 -12.656  0.00  0.00     0.080 H 
ATOM     46  H   SGN d 802      -0.804  58.947 -14.234  0.00  0.00     0.080 H 
ATOM     47  H   SGN d 802       3.350  61.588 -15.340  0.00  0.00     0.076 H 
ATOM     48  H   SGN d 802       7.341  61.903 -16.347  0.00  0.00     0.231 HD
ATOM     49  H   SGN d 802       1.948  61.236 -13.326  0.00  0.00     0.091 H 
ATOM     50  H   SGN d 802       1.560  58.355 -14.101  0.00  0.00     0.090 H 
ATOM     51  H   SGN d 802       2.622  60.097 -17.141  0.00  0.00     0.131 H 
ATOM     52  H   SGN d 802       5.404  63.239 -15.832  0.00  0.00     0.231 HD
ATOM     53  H   SGN d 802       3.983  59.060 -13.830  0.00  0.00     0.089 H 
ATOM     54  O1  SGN d 804       3.103  50.492 -20.108  0.00  0.00    -0.369 OA
ATOM     55  C5  SGN d 804       5.034  52.397 -19.110  0.00  0.00     0.091 C 
ATOM     56  O6  SGN d 804       7.159  52.616 -17.977  0.00  0.00    -0.254 OA
ATOM     57  O6S SGN d 804       9.438  52.438 -16.625  0.00  0.00    -0.572 OA
ATOM     58  C1  SGN d 804       3.705  50.405 -18.815  0.00  0.00     0.147 C 
ATOM     59  N   SGN d 804       1.479  50.584 -17.827  0.00  0.00    -0.210 NA
ATOM     60  C4  SGN d 804       4.215  53.148 -18.060  0.00  0.00     0.095 C 
ATOM     61  O5S SGN d 804       8.918  54.572 -17.615  0.00  0.00    -0.572 OA
ATOM     62  O3S SGN d 804       2.384  48.284 -16.857  0.00  0.00    -0.296 OA
ATOM     63  S1  SGN d 804       1.135  48.927 -17.314  0.00  0.00     0.156 S 
ATOM     64  S2  SGN d 804       8.849  53.110 -17.799  0.00  0.00     0.251 S 
ATOM     65  O3  SGN d 804       2.021  53.251 -17.074  0.00  0.00    -0.391 OA
ATOM     66  O1S SGN d 804       0.578  48.169 -18.450  0.00  0.00    -0.296 OA
ATOM     67  O5  SGN d 804       5.016  50.991 -18.811  0.00  0.00    -0.350 OA
ATOM     68  C3  SGN d 804       2.791  52.601 -18.061  0.00  0.00     0.083 C 
ATOM     69  C6  SGN d 804       6.469  52.908 -19.190  0.00  0.00     0.067 C 
ATOM     70  O2S SGN d 804       0.157  48.942 -16.209  0.00  0.00    -0.296 OA
ATOM     71  C2  SGN d 804       2.831  51.106 -17.774  0.00  0.00     0.081 C 
ATOM     72  O4S SGN d 804       9.602  52.735 -19.010  0.00  0.00    -0.572 OA
ATOM     73  O4  SGN d 804       4.183  54.540 -18.381  0.00  0.00    -0.348 OA
ATOM     74  H   SGN d 804       2.221  50.090 -20.082  0.00  0.00     0.212 HD
ATOM     75  H   SGN d 804       4.587  52.568 -20.067  0.00  0.00     0.090 H 
ATOM     76  H   SGN d 804       3.793  49.367 -18.568  0.00  0.00     0.131 H 
ATOM     77  H   SGN d 804       1.175  50.658 -18.797  0.00  0.00     0.140 HD
ATOM     78  H   SGN d 804       4.659  53.017 -17.095  0.00  0.00     0.091 H 
ATOM     79  H   SGN d 804       3.026  48.274 -17.583  0.00  0.00     0.231 HD
ATOM     80  H   SGN d 804       1.996  54.204 -17.258  0.00  0.00     0.210 HD
ATOM     81  H   SGN d 804       1.220  48.159 -19.178  0.00  0.00     0.231 HD
ATOM     82  H   SGN d 804       2.345  52.776 -19.018  0.00  0.00     0.089 H 
ATOM     83  H   SGN d 804       6.459  53.966 -19.346  0.00  0.00     0.080 H 
ATOM     84  H   SGN d 804       6.968  52.426 -20.003  0.00  0.00     0.080 H 
ATOM     85  H   SGN d 804       0.522  49.440 -15.461  0.00  0.00     0.231 HD
ATOM     86  H   SGN d 804       3.246  50.931 -16.804  0.00  0.00     0.076 H 
ATOM     87  O5  UAP d 801       2.077  61.828 -10.890  0.00  0.00    -0.311 OA
ATOM     88  O2  UAP d 801       0.594  60.565  -8.819  0.00  0.00    -0.244 OA
ATOM     89  O1S UAP d 801      -1.436  60.672  -7.116  0.00  0.00    -0.572 OA
ATOM     90  O3S UAP d 801      -1.451  58.879  -8.724  0.00  0.00    -0.572 OA
ATOM     91  C1  UAP d 801       1.500  60.530 -11.050  0.00  0.00     0.167 C 
ATOM     92  O2S UAP d 801       0.089  58.826  -6.875  0.00  0.00    -0.572 OA
ATOM     93  C4  UAP d 801       3.630  60.930  -9.349  0.00  0.00    -0.034 C 
ATOM     94  C3  UAP d 801       2.844  59.745  -9.079  0.00  0.00     0.086 C 
ATOM     95  O62 UAP d 801       3.661  63.871 -11.159  0.00  0.00    -0.642 OA
ATOM     96  S   UAP d 801      -0.600  59.700  -7.843  0.00  0.00     0.252 S 
ATOM     97  C6  UAP d 801       4.023  62.962 -10.376  0.00  0.00     0.233 C 
ATOM     98  C2  UAP d 801       1.453  59.839  -9.696  0.00  0.00     0.135 C 
ATOM     99  C5  UAP d 801       3.240  61.895 -10.208  0.00  0.00     0.147 C 
ATOM    100  O61 UAP d 801       5.100  63.044  -9.739  0.00  0.00    -0.642 OA
ATOM    101  O3  UAP d 801       3.519  58.603  -9.560  0.00  0.00    -0.389 OA
ATOM    102  H   UAP d 801       0.514  60.651 -11.447  0.00  0.00     0.134 H 
ATOM    103  H   UAP d 801       4.533  61.042  -8.862  0.00  0.00     0.085 H 
ATOM    104  H   UAP d 801       2.721  59.664  -8.019  0.00  0.00     0.093 H 
ATOM    105  H   UAP d 801       1.078  58.848  -9.839  0.00  0.00     0.097 H 
ATOM    106  H   UAP d 801       3.631  58.676 -10.521  0.00  0.00     0.210 HD
ENDROOT
TORSDOF 33
ENDMDL
MODEL 24
REMARK VINA RESULT:      -5.8      2.054      2.502
REMARK  0 active torsions:
REMARK  status: ('A' for Active; 'I' for Inactive)
REMARK       I    between atoms: C2_1  and  O2_62 
REMARK       I    between atoms: O3_2  and  C3_65 
REMARK       I    between atoms: O1_3  and  C1_15 
REMARK       I    between atoms: C5_5  and  C6_58 
REMARK       I    between atoms: C1_6  and  O4_70 
REMARK       I    between atoms: S_7  and  O2_62 
REMARK       I    between atoms: O2_9  and  C2_55 
REMARK       I    between atoms: O2_9  and  S_49 
REMARK       I    between atoms: O4_11  and  C1_28 
REMARK       I    between atoms: O4_11  and  C4_41 
REMARK       I    between atoms: O6_12  and  C6_58 
REMARK       I    between atoms: O6_12  and  S2_38 
REMARK       I    between atoms: S1_16  and  N_21 
REMARK       I    between atoms: S1_16  and  O1S_32 
REMARK       I    between atoms: S1_16  and  O2S_53 
REMARK       I    between atoms: S1_16  and  O3S_24 
REMARK       I    between atoms: N_18  and  C2_66 
REMARK       I    between atoms: N_18  and  S1_37 
REMARK       I    between atoms: C3_19  and  O3_27 
REMARK       I    between atoms: N_21  and  C2_31 
REMARK       I    between atoms: C4_22  and  O4_70 
REMARK       I    between atoms: C6_25  and  C5_46 
REMARK       I    between atoms: C6_25  and  O6_45 
REMARK       I    between atoms: O1_33  and  C1_51 
REMARK       I    between atoms: O1_33  and  C4_34 
REMARK       I    between atoms: O3S_35  and  S1_37 
REMARK       I    between atoms: S1_37  and  O1S_42 
REMARK       I    between atoms: S1_37  and  O2S_63 
REMARK       I    between atoms: O3_39  and  C3_54 
REMARK       I    between atoms: C6_40  and  C5_60 
REMARK       I    between atoms: C3_44  and  O3_64 
REMARK       I    between atoms: O6_45  and  S2_59 
REMARK       I    between atoms: C6_50  and  C5_56 
ROOT
ATOM      1  C2  IDS d 803       5.404  51.919 -14.952  0.00  0.00     0.134 C 
ATOM      2  C1  IDS d 803       5.826  52.971 -15.976  0.00  0.00     0.161 C 
ATOM      3  S   IDS d 803       4.212  49.555 -15.737  0.00  0.00     0.252 S 
ATOM      4  O3S IDS d 803       4.635  49.356 -17.137  0.00  0.00    -0.572 OA
ATOM      5  O5  IDS d 803       4.896  54.066 -15.963  0.00  0.00    -0.340 OA
ATOM      6  C3  IDS d 803       5.247  52.556 -13.571  0.00  0.00     0.094 C 
ATOM      7  O2S IDS d 803       5.158  48.865 -14.840  0.00  0.00    -0.572 OA
ATOM      8  O3  IDS d 803       6.494  52.990 -13.070  0.00  0.00    -0.390 OA
ATOM      9  C4  IDS d 803       4.261  53.721 -13.651  0.00  0.00     0.103 C 
ATOM     10  C6  IDS d 803       3.771  55.856 -14.849  0.00  0.00     0.206 C 
ATOM     11  O61 IDS d 803       3.876  56.855 -14.105  0.00  0.00    -0.646 OA
ATOM     12  C5  IDS d 803       4.770  54.721 -14.691  0.00  0.00     0.152 C 
ATOM     13  O2  IDS d 803       4.195  51.282 -15.362  0.00  0.00    -0.244 OA
ATOM     14  O62 IDS d 803       2.895  55.764 -15.736  0.00  0.00    -0.646 OA
ATOM     15  O1S IDS d 803       2.859  48.998 -15.549  0.00  0.00    -0.572 OA
ATOM     16  H   IDS d 803       6.167  51.172 -14.889  0.00  0.00     0.097 H 
ATOM     17  H   IDS d 803       5.805  52.535 -16.953  0.00  0.00     0.133 H 
ATOM     18  H   IDS d 803       4.863  51.821 -12.894  0.00  0.00     0.091 H 
ATOM     19  H   IDS d 803       6.866  53.659 -13.666  0.00  0.00     0.210 HD
ATOM     20  H   IDS d 803       4.181  54.192 -12.695  0.00  0.00     0.092 H 
ATOM     21  H   IDS d 803       5.716  55.102 -14.366  0.00  0.00     0.104 H 
ATOM     22  O3  SGN d 802      -0.779  51.470 -14.801  0.00  0.00    -0.391 OA
ATOM     23  O4  SGN d 802      -1.252  54.198 -15.337  0.00  0.00    -0.348 OA
ATOM     24  S1  SGN d 802       1.927  49.675 -12.185  0.00  0.00     0.156 S 
ATOM     25  O5S SGN d 802      -2.352  56.659 -10.192  0.00  0.00    -0.572 OA
ATOM     26  N   SGN d 802       1.662  50.779 -13.540  0.00  0.00    -0.210 NA
ATOM     27  O3S SGN d 802       3.083  50.140 -11.397  0.00  0.00    -0.296 OA
ATOM     28  C6  SGN d 802      -0.124  56.130 -13.423  0.00  0.00     0.067 C 
ATOM     29  O5  SGN d 802       1.338  54.363 -12.736  0.00  0.00    -0.349 OA
ATOM     30  C2  SGN d 802       1.003  52.044 -13.291  0.00  0.00     0.081 C 
ATOM     31  O1S SGN d 802       2.195  48.321 -12.703  0.00  0.00    -0.296 OA
ATOM     32  O1  SGN d 802       2.969  53.243 -14.039  0.00  0.00    -0.348 OA
ATOM     33  C4  SGN d 802      -0.507  53.780 -14.192  0.00  0.00     0.095 C 
ATOM     34  O6  SGN d 802      -0.840  55.883 -12.215  0.00  0.00    -0.254 OA
ATOM     35  C5  SGN d 802       0.550  54.833 -13.843  0.00  0.00     0.091 C 
ATOM     36  O4S SGN d 802      -2.766  57.698 -12.330  0.00  0.00    -0.572 OA
ATOM     37  C1  SGN d 802       2.030  53.127 -12.966  0.00  0.00     0.150 C 
ATOM     38  O6S SGN d 802      -0.786  58.268 -11.070  0.00  0.00    -0.572 OA
ATOM     39  O2S SGN d 802       0.726  49.648 -11.328  0.00  0.00    -0.296 OA
ATOM     40  S2  SGN d 802      -1.724  57.184 -11.419  0.00  0.00     0.251 S 
ATOM     41  C3  SGN d 802       0.182  52.459 -14.505  0.00  0.00     0.083 C 
ATOM     42  H   SGN d 802      -0.331  50.633 -14.999  0.00  0.00     0.210 HD
ATOM     43  H   SGN d 802       1.099  50.279 -14.228  0.00  0.00     0.140 HD
ATOM     44  H   SGN d 802       3.872  50.158 -11.961  0.00  0.00     0.231 HD
ATOM     45  H   SGN d 802      -0.801  56.453 -14.186  0.00  0.00     0.080 H 
ATOM     46  H   SGN d 802       0.607  56.897 -13.270  0.00  0.00     0.080 H 
ATOM     47  H   SGN d 802       0.349  51.925 -12.453  0.00  0.00     0.076 H 
ATOM     48  H   SGN d 802       1.434  48.016 -13.221  0.00  0.00     0.231 HD
ATOM     49  H   SGN d 802      -1.170  53.661 -13.360  0.00  0.00     0.091 H 
ATOM     50  H   SGN d 802       1.164  55.001 -14.702  0.00  0.00     0.090 H 
ATOM     51  H   SGN d 802       2.578  52.869 -12.083  0.00  0.00     0.131 H 
ATOM     52  H   SGN d 802      -0.034  49.342 -11.846  0.00  0.00     0.231 HD
ATOM     53  H   SGN d 802       0.820  52.573 -15.356  0.00  0.00     0.089 H 
ATOM     54  O1  SGN d 804      10.880  55.665 -17.038  0.00  0.00    -0.369 OA
ATOM     55  C5  SGN d 804       9.168  53.338 -17.117  0.00  0.00     0.091 C 
ATOM     56  O6  SGN d 804       8.418  51.508 -18.509  0.00  0.00    -0.254 OA
ATOM     57  O6S SGN d 804       7.764  49.728 -20.367  0.00  0.00    -0.572 OA
ATOM     58  C1  SGN d 804      10.006  55.363 -18.127  0.00  0.00     0.147 C 
ATOM     59  N   SGN d 804       8.851  57.474 -17.716  0.00  0.00    -0.210 NA
ATOM     60  C4  SGN d 804       7.787  53.961 -16.915  0.00  0.00     0.095 C 
ATOM     61  O5S SGN d 804       7.147  49.214 -18.096  0.00  0.00    -0.572 OA
ATOM     62  O3S SGN d 804       9.633  57.700 -20.243  0.00  0.00    -0.296 OA
ATOM     63  S1  SGN d 804       9.435  58.511 -19.025  0.00  0.00     0.156 S 
ATOM     64  S2  SGN d 804       8.186  49.812 -18.956  0.00  0.00     0.251 S 
ATOM     65  O3  SGN d 804       6.685  56.073 -16.567  0.00  0.00    -0.391 OA
ATOM     66  O1S SGN d 804      10.716  59.125 -18.627  0.00  0.00    -0.296 OA
ATOM     67  O5  SGN d 804       9.803  53.946 -18.254  0.00  0.00    -0.350 OA
ATOM     68  C3  SGN d 804       7.948  55.465 -16.718  0.00  0.00     0.083 C 
ATOM     69  C6  SGN d 804       9.093  51.825 -17.293  0.00  0.00     0.067 C 
ATOM     70  O2S SGN d 804       8.446  59.572 -19.296  0.00  0.00    -0.296 OA
ATOM     71  C2  SGN d 804       8.655  56.054 -17.932  0.00  0.00     0.081 C 
ATOM     72  O4S SGN d 804       9.451  49.076 -18.776  0.00  0.00    -0.572 OA
ATOM     73  O4  SGN d 804       7.171  53.400 -15.754  0.00  0.00    -0.348 OA
ATOM     74  H   SGN d 804      10.999  56.626 -16.976  0.00  0.00     0.212 HD
ATOM     75  H   SGN d 804       9.749  53.522 -16.237  0.00  0.00     0.090 H 
ATOM     76  H   SGN d 804      10.466  55.724 -19.023  0.00  0.00     0.131 H 
ATOM     77  H   SGN d 804       9.520  57.564 -16.952  0.00  0.00     0.140 HD
ATOM     78  H   SGN d 804       7.175  53.766 -17.771  0.00  0.00     0.091 H 
ATOM     79  H   SGN d 804      10.283  57.003 -20.065  0.00  0.00     0.231 HD
ATOM     80  H   SGN d 804       6.235  55.697 -15.793  0.00  0.00     0.210 HD
ATOM     81  H   SGN d 804      11.367  58.428 -18.448  0.00  0.00     0.231 HD
ATOM     82  H   SGN d 804       8.527  55.647 -15.836  0.00  0.00     0.089 H 
ATOM     83  H   SGN d 804       8.558  51.399 -16.470  0.00  0.00     0.080 H 
ATOM     84  H   SGN d 804      10.085  51.426 -17.327  0.00  0.00     0.080 H 
ATOM     85  H   SGN d 804       7.604  59.170 -19.558  0.00  0.00     0.231 HD
ATOM     86  H   SGN d 804       8.062  55.902 -18.809  0.00  0.00     0.076 H 
ATOM     87  O5  UAP d 801      -3.411  53.711 -14.492  0.00  0.00    -0.311 OA
ATOM     88  O2  UAP d 801      -4.421  55.881 -16.024  0.00  0.00    -0.244 OA
ATOM     89  O1S UAP d 801      -6.061  57.960 -16.175  0.00  0.00    -0.572 OA
ATOM     90  O3S UAP d 801      -3.707  58.405 -16.417  0.00  0.00    -0.572 OA
ATOM     91  C1  UAP d 801      -2.555  54.710 -15.050  0.00  0.00     0.167 C 
ATOM     92  O2S UAP d 801      -4.917  57.328 -18.197  0.00  0.00    -0.572 OA
ATOM     93  C4  UAP d 801      -3.857  52.898 -16.667  0.00  0.00    -0.034 C 
ATOM     94  C3  UAP d 801      -3.432  54.114 -17.328  0.00  0.00     0.086 C 
ATOM     95  O62 UAP d 801      -4.268  51.439 -13.564  0.00  0.00    -0.642 OA
ATOM     96  S   UAP d 801      -4.792  57.458 -16.733  0.00  0.00     0.252 S 
ATOM     97  C6  UAP d 801      -4.268  51.589 -14.808  0.00  0.00     0.233 C 
ATOM     98  C2  UAP d 801      -3.184  55.240 -16.330  0.00  0.00     0.135 C 
ATOM     99  C5  UAP d 801      -3.837  52.740 -15.327  0.00  0.00     0.147 C 
ATOM    100  O61 UAP d 801      -4.679  50.683 -15.572  0.00  0.00    -0.642 OA
ATOM    101  O3  UAP d 801      -2.268  53.864 -18.085  0.00  0.00    -0.389 OA
ATOM    102  H   UAP d 801      -2.444  55.494 -14.331  0.00  0.00     0.134 H 
ATOM    103  H   UAP d 801      -4.192  52.114 -17.249  0.00  0.00     0.085 H 
ATOM    104  H   UAP d 801      -4.219  54.429 -17.980  0.00  0.00     0.093 H 
ATOM    105  H   UAP d 801      -2.507  55.941 -16.771  0.00  0.00     0.097 H 
ATOM    106  H   UAP d 801      -1.554  53.579 -17.495  0.00  0.00     0.210 HD
ENDROOT
TORSDOF 33
ENDMDL
MODEL 25
REMARK VINA RESULT:      -5.8      5.805      8.724
REMARK  0 active torsions:
REMARK  status: ('A' for Active; 'I' for Inactive)
REMARK       I    between atoms: C2_1  and  O2_62 
REMARK       I    between atoms: O3_2  and  C3_65 
REMARK       I    between atoms: O1_3  and  C1_15 
REMARK       I    between atoms: C5_5  and  C6_58 
REMARK       I    between atoms: C1_6  and  O4_70 
REMARK       I    between atoms: S_7  and  O2_62 
REMARK       I    between atoms: O2_9  and  C2_55 
REMARK       I    between atoms: O2_9  and  S_49 
REMARK       I    between atoms: O4_11  and  C1_28 
REMARK       I    between atoms: O4_11  and  C4_41 
REMARK       I    between atoms: O6_12  and  C6_58 
REMARK       I    between atoms: O6_12  and  S2_38 
REMARK       I    between atoms: S1_16  and  N_21 
REMARK       I    between atoms: S1_16  and  O1S_32 
REMARK       I    between atoms: S1_16  and  O2S_53 
REMARK       I    between atoms: S1_16  and  O3S_24 
REMARK       I    between atoms: N_18  and  C2_66 
REMARK       I    between atoms: N_18  and  S1_37 
REMARK       I    between atoms: C3_19  and  O3_27 
REMARK       I    between atoms: N_21  and  C2_31 
REMARK       I    between atoms: C4_22  and  O4_70 
REMARK       I    between atoms: C6_25  and  C5_46 
REMARK       I    between atoms: C6_25  and  O6_45 
REMARK       I    between atoms: O1_33  and  C1_51 
REMARK       I    between atoms: O1_33  and  C4_34 
REMARK       I    between atoms: O3S_35  and  S1_37 
REMARK       I    between atoms: S1_37  and  O1S_42 
REMARK       I    between atoms: S1_37  and  O2S_63 
REMARK       I    between atoms: O3_39  and  C3_54 
REMARK       I    between atoms: C6_40  and  C5_60 
REMARK       I    between atoms: C3_44  and  O3_64 
REMARK       I    between atoms: O6_45  and  S2_59 
REMARK       I    between atoms: C6_50  and  C5_56 
ROOT
ATOM      1  C2  IDS d 803      -1.682  57.384 -15.046  0.00  0.00     0.134 C 
ATOM      2  C1  IDS d 803      -1.667  58.239 -13.780  0.00  0.00     0.161 C 
ATOM      3  S   IDS d 803      -3.806  57.475 -16.809  0.00  0.00     0.252 S 
ATOM      4  O3S IDS d 803      -4.443  58.786 -16.578  0.00  0.00    -0.572 OA
ATOM      5  O5  IDS d 803      -1.951  57.420 -12.635  0.00  0.00    -0.340 OA
ATOM      6  C3  IDS d 803      -0.722  56.204 -14.901  0.00  0.00     0.094 C 
ATOM      7  O2S IDS d 803      -2.809  57.601 -17.889  0.00  0.00    -0.572 OA
ATOM      8  O3  IDS d 803       0.618  56.646 -14.844  0.00  0.00    -0.390 OA
ATOM      9  C4  IDS d 803      -1.080  55.402 -13.650  0.00  0.00     0.103 C 
ATOM     10  C6  IDS d 803      -1.456  55.583 -11.189  0.00  0.00     0.206 C 
ATOM     11  O61 IDS d 803      -0.585  54.978 -10.527  0.00  0.00    -0.646 OA
ATOM     12  C5  IDS d 803      -1.030  56.335 -12.439  0.00  0.00     0.152 C 
ATOM     13  O2  IDS d 803      -3.006  56.935 -15.328  0.00  0.00    -0.244 OA
ATOM     14  O62 IDS d 803      -2.659  55.617 -10.849  0.00  0.00    -0.646 OA
ATOM     15  O1S IDS d 803      -4.834  56.492 -17.199  0.00  0.00    -0.572 OA
ATOM     16  H   IDS d 803      -1.352  57.982 -15.870  0.00  0.00     0.097 H 
ATOM     17  H   IDS d 803      -2.435  58.981 -13.851  0.00  0.00     0.133 H 
ATOM     18  H   IDS d 803      -0.819  55.572 -15.759  0.00  0.00     0.091 H 
ATOM     19  H   IDS d 803       0.736  57.222 -14.072  0.00  0.00     0.210 HD
ATOM     20  H   IDS d 803      -0.384  54.599 -13.525  0.00  0.00     0.092 H 
ATOM     21  H   IDS d 803      -0.031  56.702 -12.330  0.00  0.00     0.104 H 
ATOM     22  O3  SGN d 802      -6.118  53.071 -14.638  0.00  0.00    -0.391 OA
ATOM     23  O4  SGN d 802      -5.873  52.706 -11.853  0.00  0.00    -0.348 OA
ATOM     24  S1  SGN d 802      -3.177  53.369 -17.579  0.00  0.00     0.156 S 
ATOM     25  O5S SGN d 802      -2.630  47.938 -11.154  0.00  0.00    -0.572 OA
ATOM     26  N   SGN d 802      -3.837  53.973 -16.055  0.00  0.00    -0.210 NA
ATOM     27  O3S SGN d 802      -1.713  53.541 -17.578  0.00  0.00    -0.296 OA
ATOM     28  C6  SGN d 802      -3.237  51.841 -10.866  0.00  0.00     0.067 C 
ATOM     29  O5  SGN d 802      -2.367  52.636 -12.949  0.00  0.00    -0.349 OA
ATOM     30  C2  SGN d 802      -3.726  53.150 -14.869  0.00  0.00     0.081 C 
ATOM     31  O1S SGN d 802      -3.762  54.126 -18.700  0.00  0.00    -0.296 OA
ATOM     32  O1  SGN d 802      -2.396  54.854 -13.780  0.00  0.00    -0.348 OA
ATOM     33  C4  SGN d 802      -4.773  52.476 -12.735  0.00  0.00     0.095 C 
ATOM     34  O6  SGN d 802      -3.077  50.530 -11.404  0.00  0.00    -0.254 OA
ATOM     35  C5  SGN d 802      -3.455  52.801 -12.025  0.00  0.00     0.091 C 
ATOM     36  O4S SGN d 802      -3.905  49.003  -9.404  0.00  0.00    -0.572 OA
ATOM     37  C1  SGN d 802      -2.433  53.465 -14.119  0.00  0.00     0.150 C 
ATOM     38  O6S SGN d 802      -1.528  49.396  -9.583  0.00  0.00    -0.572 OA
ATOM     39  O2S SGN d 802      -3.503  51.937 -17.725  0.00  0.00    -0.296 OA
ATOM     40  S2  SGN d 802      -2.773  49.159 -10.339  0.00  0.00     0.251 S 
ATOM     41  C3  SGN d 802      -4.922  53.375 -13.955  0.00  0.00     0.083 C 
ATOM     42  H   SGN d 802      -6.204  53.648 -15.413  0.00  0.00     0.210 HD
ATOM     43  H   SGN d 802      -4.830  54.146 -16.207  0.00  0.00     0.140 HD
ATOM     44  H   SGN d 802      -1.498  54.481 -17.482  0.00  0.00     0.231 HD
ATOM     45  H   SGN d 802      -4.083  51.863 -10.211  0.00  0.00     0.080 H 
ATOM     46  H   SGN d 802      -2.368  52.122 -10.308  0.00  0.00     0.080 H 
ATOM     47  H   SGN d 802      -3.707  52.124 -15.173  0.00  0.00     0.076 H 
ATOM     48  H   SGN d 802      -4.726  54.012 -18.700  0.00  0.00     0.231 HD
ATOM     49  H   SGN d 802      -4.766  51.449 -13.035  0.00  0.00     0.091 H 
ATOM     50  H   SGN d 802      -3.498  53.807 -11.663  0.00  0.00     0.090 H 
ATOM     51  H   SGN d 802      -1.583  53.260 -14.735  0.00  0.00     0.131 H 
ATOM     52  H   SGN d 802      -4.467  51.824 -17.726  0.00  0.00     0.231 HD
ATOM     53  H   SGN d 802      -4.961  54.401 -13.650  0.00  0.00     0.089 H 
ATOM     54  O1  SGN d 804       2.154  62.074 -11.631  0.00  0.00    -0.369 OA
ATOM     55  C5  SGN d 804       0.114  61.300 -13.525  0.00  0.00     0.091 C 
ATOM     56  O6  SGN d 804      -1.895  62.043 -14.649  0.00  0.00    -0.254 OA
ATOM     57  O6S SGN d 804      -4.110  63.174 -15.580  0.00  0.00    -0.572 OA
ATOM     58  C1  SGN d 804       0.757  62.284 -11.418  0.00  0.00     0.147 C 
ATOM     59  N   SGN d 804       0.902  60.874  -9.431  0.00  0.00    -0.210 NA
ATOM     60  C4  SGN d 804      -0.530  60.107 -12.819  0.00  0.00     0.095 C 
ATOM     61  O5S SGN d 804      -3.307  61.222 -16.741  0.00  0.00    -0.572 OA
ATOM     62  O3S SGN d 804      -0.039  63.164  -8.474  0.00  0.00    -0.296 OA
ATOM     63  S1  SGN d 804       0.850  62.044  -8.105  0.00  0.00     0.156 S 
ATOM     64  S2  SGN d 804      -2.906  62.457 -16.041  0.00  0.00     0.251 S 
ATOM     65  O3  SGN d 804      -0.388  58.778 -10.817  0.00  0.00    -0.391 OA
ATOM     66  O1S SGN d 804       2.209  62.555  -7.851  0.00  0.00    -0.296 OA
ATOM     67  O5  SGN d 804       0.061  62.450 -12.664  0.00  0.00    -0.350 OA
ATOM     68  C3  SGN d 804       0.210  59.851 -11.510  0.00  0.00     0.083 C 
ATOM     69  C6  SGN d 804      -0.556  61.603 -14.862  0.00  0.00     0.067 C 
ATOM     70  O2S SGN d 804       0.336  61.390  -6.886  0.00  0.00    -0.296 OA
ATOM     71  C2  SGN d 804       0.153  61.108 -10.651  0.00  0.00     0.081 C 
ATOM     72  O4S SGN d 804      -2.144  63.317 -16.965  0.00  0.00    -0.572 OA
ATOM     73  O4  SGN d 804      -0.434  58.948 -13.648  0.00  0.00    -0.348 OA
ATOM     74  H   SGN d 804       2.599  61.966 -10.776  0.00  0.00     0.212 HD
ATOM     75  H   SGN d 804       1.134  61.053 -13.735  0.00  0.00     0.090 H 
ATOM     76  H   SGN d 804       0.648  63.181 -10.844  0.00  0.00     0.131 H 
ATOM     77  H   SGN d 804       1.881  60.783  -9.701  0.00  0.00     0.140 HD
ATOM     78  H   SGN d 804      -1.561  60.318 -12.623  0.00  0.00     0.091 H 
ATOM     79  H   SGN d 804       0.299  63.594  -9.275  0.00  0.00     0.231 HD
ATOM     80  H   SGN d 804      -0.351  57.978 -11.365  0.00  0.00     0.210 HD
ATOM     81  H   SGN d 804       2.548  62.985  -8.652  0.00  0.00     0.231 HD
ATOM     82  H   SGN d 804       1.229  59.601 -11.722  0.00  0.00     0.089 H 
ATOM     83  H   SGN d 804      -0.565  60.717 -15.462  0.00  0.00     0.080 H 
ATOM     84  H   SGN d 804      -0.008  62.374 -15.362  0.00  0.00     0.080 H 
ATOM     85  H   SGN d 804      -0.559  61.054  -7.052  0.00  0.00     0.231 HD
ATOM     86  H   SGN d 804      -0.862  61.340 -10.410  0.00  0.00     0.076 H 
ATOM     87  O5  UAP d 801      -7.039  50.691 -12.286  0.00  0.00    -0.311 OA
ATOM     88  O2  UAP d 801      -7.981  50.744  -9.605  0.00  0.00    -0.244 OA
ATOM     89  O1S UAP d 801      -8.540  49.400  -7.388  0.00  0.00    -0.572 OA
ATOM     90  O3S UAP d 801      -6.873  51.131  -7.226  0.00  0.00    -0.572 OA
ATOM     91  C1  UAP d 801      -6.446  51.525 -11.289  0.00  0.00     0.167 C 
ATOM     92  O2S UAP d 801      -9.197  51.715  -7.452  0.00  0.00    -0.572 OA
ATOM     93  C4  UAP d 801      -8.979  52.042 -12.241  0.00  0.00    -0.034 C 
ATOM     94  C3  UAP d 801      -8.682  52.618 -10.946  0.00  0.00     0.086 C 
ATOM     95  O62 UAP d 801      -7.831  49.790 -14.592  0.00  0.00    -0.642 OA
ATOM     96  S   UAP d 801      -8.156  50.748  -7.845  0.00  0.00     0.252 S 
ATOM     97  C6  UAP d 801      -8.554  50.645 -14.031  0.00  0.00     0.233 C 
ATOM     98  C2  UAP d 801      -7.510  51.913 -10.273  0.00  0.00     0.135 C 
ATOM     99  C5  UAP d 801      -8.185  51.134 -12.846  0.00  0.00     0.147 C 
ATOM    100  O61 UAP d 801      -9.622  51.038 -14.555  0.00  0.00    -0.642 OA
ATOM    101  O3  UAP d 801      -8.412  53.995 -11.086  0.00  0.00    -0.389 OA
ATOM    102  H   UAP d 801      -5.658  50.974 -10.820  0.00  0.00     0.134 H 
ATOM    103  H   UAP d 801      -9.841  52.341 -12.724  0.00  0.00     0.085 H 
ATOM    104  H   UAP d 801      -9.540  52.486 -10.320  0.00  0.00     0.093 H 
ATOM    105  H   UAP d 801      -7.069  52.585  -9.567  0.00  0.00     0.097 H 
ATOM    106  H   UAP d 801      -7.635  54.116 -11.653  0.00  0.00     0.210 HD
ENDROOT
TORSDOF 33
ENDMDL
MODEL 26
REMARK VINA RESULT:      -5.8      3.317      6.380
REMARK  0 active torsions:
REMARK  status: ('A' for Active; 'I' for Inactive)
REMARK       I    between atoms: C2_1  and  O2_62 
REMARK       I    between atoms: O3_2  and  C3_65 
REMARK       I    between atoms: O1_3  and  C1_15 
REMARK       I    between atoms: C5_5  and  C6_58 
REMARK       I    between atoms: C1_6  and  O4_70 
REMARK       I    between atoms: S_7  and  O2_62 
REMARK       I    between atoms: O2_9  and  C2_55 
REMARK       I    between atoms: O2_9  and  S_49 
REMARK       I    between atoms: O4_11  and  C1_28 
REMARK       I    between atoms: O4_11  and  C4_41 
REMARK       I    between atoms: O6_12  and  C6_58 
REMARK       I    between atoms: O6_12  and  S2_38 
REMARK       I    between atoms: S1_16  and  N_21 
REMARK       I    between atoms: S1_16  and  O1S_32 
REMARK       I    between atoms: S1_16  and  O2S_53 
REMARK       I    between atoms: S1_16  and  O3S_24 
REMARK       I    between atoms: N_18  and  C2_66 
REMARK       I    between atoms: N_18  and  S1_37 
REMARK       I    between atoms: C3_19  and  O3_27 
REMARK       I    between atoms: N_21  and  C2_31 
REMARK       I    between atoms: C4_22  and  O4_70 
REMARK       I    between atoms: C6_25  and  C5_46 
REMARK       I    between atoms: C6_25  and  O6_45 
REMARK       I    between atoms: O1_33  and  C1_51 
REMARK       I    between atoms: O1_33  and  C4_34 
REMARK       I    between atoms: O3S_35  and  S1_37 
REMARK       I    between atoms: S1_37  and  O1S_42 
REMARK       I    between atoms: S1_37  and  O2S_63 
REMARK       I    between atoms: O3_39  and  C3_54 
REMARK       I    between atoms: C6_40  and  C5_60 
REMARK       I    between atoms: C3_44  and  O3_64 
REMARK       I    between atoms: O6_45  and  S2_59 
REMARK       I    between atoms: C6_50  and  C5_56 
ROOT
ATOM      1  C2  IDS d 803       0.220  53.496 -11.485  0.00  0.00     0.134 C 
ATOM      2  C1  IDS d 803       1.116  52.993 -12.616  0.00  0.00     0.161 C 
ATOM      3  S   IDS d 803      -1.355  51.758 -10.026  0.00  0.00     0.252 S 
ATOM      4  O3S IDS d 803      -0.707  50.440 -10.168  0.00  0.00    -0.572 OA
ATOM      5  O5  IDS d 803       0.528  53.318 -13.886  0.00  0.00    -0.340 OA
ATOM      6  C3  IDS d 803      -0.058  54.990 -11.653  0.00  0.00     0.094 C 
ATOM      7  O2S IDS d 803      -0.842  52.425  -8.815  0.00  0.00    -0.572 OA
ATOM      8  O3  IDS d 803       1.120  55.746 -11.471  0.00  0.00    -0.390 OA
ATOM      9  C4  IDS d 803      -0.660  55.248 -13.034  0.00  0.00     0.103 C 
ATOM     10  C6  IDS d 803      -0.298  54.896 -15.479  0.00  0.00     0.206 C 
ATOM     11  O61 IDS d 803      -0.096  55.968 -16.091  0.00  0.00    -0.646 OA
ATOM     12  C5  IDS d 803       0.308  54.722 -14.095  0.00  0.00     0.152 C 
ATOM     13  O2  IDS d 803      -0.995  52.751 -11.444  0.00  0.00    -0.244 OA
ATOM     14  O62 IDS d 803      -0.954  53.952 -15.970  0.00  0.00    -0.646 OA
ATOM     15  O1S IDS d 803      -2.814  51.578  -9.910  0.00  0.00    -0.572 OA
ATOM     16  H   IDS d 803       0.727  53.354 -10.554  0.00  0.00     0.097 H 
ATOM     17  H   IDS d 803       1.193  51.927 -12.553  0.00  0.00     0.133 H 
ATOM     18  H   IDS d 803      -0.759  55.296 -10.904  0.00  0.00     0.091 H 
ATOM     19  H   IDS d 803       1.776  55.489 -12.139  0.00  0.00     0.210 HD
ATOM     20  H   IDS d 803      -0.817  56.298 -13.167  0.00  0.00     0.092 H 
ATOM     21  H   IDS d 803       1.227  55.264 -14.021  0.00  0.00     0.104 H 
ATOM     22  O3  SGN d 802      -5.743  52.809 -13.043  0.00  0.00    -0.391 OA
ATOM     23  O4  SGN d 802      -5.352  53.290 -15.793  0.00  0.00    -0.348 OA
ATOM     24  S1  SGN d 802      -4.239  54.830  -9.720  0.00  0.00     0.156 S 
ATOM     25  O5S SGN d 802      -6.848  58.835 -16.664  0.00  0.00    -0.572 OA
ATOM     26  N   SGN d 802      -3.904  53.970 -11.227  0.00  0.00    -0.210 NA
ATOM     27  O3S SGN d 802      -3.200  55.853  -9.502  0.00  0.00    -0.296 OA
ATOM     28  C6  SGN d 802      -4.195  55.898 -16.522  0.00  0.00     0.067 C 
ATOM     29  O5  SGN d 802      -3.436  56.022 -14.255  0.00  0.00    -0.349 OA
ATOM     30  C2  SGN d 802      -4.243  54.604 -12.484  0.00  0.00     0.081 C 
ATOM     31  O1S SGN d 802      -4.232  53.873  -8.599  0.00  0.00    -0.296 OA
ATOM     32  O1  SGN d 802      -1.916  54.575 -13.154  0.00  0.00    -0.348 OA
ATOM     33  C4  SGN d 802      -5.009  54.267 -14.808  0.00  0.00     0.095 C 
ATOM     34  O6  SGN d 802      -5.195  56.841 -16.142  0.00  0.00    -0.254 OA
ATOM     35  C5  SGN d 802      -3.813  55.095 -15.287  0.00  0.00     0.091 C 
ATOM     36  O4S SGN d 802      -6.501  57.212 -18.416  0.00  0.00    -0.572 OA
ATOM     37  C1  SGN d 802      -3.062  55.419 -13.007  0.00  0.00     0.150 C 
ATOM     38  O6S SGN d 802      -4.761  58.797 -17.871  0.00  0.00    -0.572 OA
ATOM     39  O2S SGN d 802      -5.560  55.482  -9.806  0.00  0.00    -0.296 OA
ATOM     40  S2  SGN d 802      -5.854  57.969 -17.325  0.00  0.00     0.251 S 
ATOM     41  C3  SGN d 802      -4.643  53.555 -13.513  0.00  0.00     0.083 C 
ATOM     42  H   SGN d 802      -5.499  52.360 -12.218  0.00  0.00     0.210 HD
ATOM     43  H   SGN d 802      -4.416  53.089 -11.189  0.00  0.00     0.140 HD
ATOM     44  H   SGN d 802      -2.332  55.425  -9.445  0.00  0.00     0.231 HD
ATOM     45  H   SGN d 802      -4.580  55.244 -17.276  0.00  0.00     0.080 H 
ATOM     46  H   SGN d 802      -3.338  56.404 -16.916  0.00  0.00     0.080 H 
ATOM     47  H   SGN d 802      -5.070  55.262 -12.317  0.00  0.00     0.076 H 
ATOM     48  H   SGN d 802      -4.916  53.201  -8.743  0.00  0.00     0.231 HD
ATOM     49  H   SGN d 802      -5.843  54.917 -14.647  0.00  0.00     0.091 H 
ATOM     50  H   SGN d 802      -3.005  54.433 -15.517  0.00  0.00     0.090 H 
ATOM     51  H   SGN d 802      -2.805  56.193 -12.313  0.00  0.00     0.131 H 
ATOM     52  H   SGN d 802      -6.244  54.809  -9.950  0.00  0.00     0.231 HD
ATOM     53  H   SGN d 802      -3.828  52.882 -13.684  0.00  0.00     0.089 H 
ATOM     54  O1  SGN d 804       6.808  53.564 -13.715  0.00  0.00    -0.369 OA
ATOM     55  C5  SGN d 804       4.601  52.435 -12.229  0.00  0.00     0.091 C 
ATOM     56  O6  SGN d 804       3.714  50.387 -11.299  0.00  0.00    -0.254 OA
ATOM     57  O6S SGN d 804       3.031  47.938 -10.534  0.00  0.00    -0.572 OA
ATOM     58  C1  SGN d 804       6.141  52.355 -14.084  0.00  0.00     0.147 C 
ATOM     59  N   SGN d 804       5.524  53.404 -16.201  0.00  0.00    -0.210 NA
ATOM     60  C4  SGN d 804       3.424  52.709 -13.165  0.00  0.00     0.095 C 
ATOM     61  O5S SGN d 804       1.824  49.770  -9.539  0.00  0.00    -0.572 OA
ATOM     62  O3S SGN d 804       6.865  51.246 -16.969  0.00  0.00    -0.296 OA
ATOM     63  S1  SGN d 804       6.630  52.651 -17.358  0.00  0.00     0.156 S 
ATOM     64  S2  SGN d 804       3.144  49.313 -10.013  0.00  0.00     0.251 S 
ATOM     65  O3  SGN d 804       2.870  53.705 -15.285  0.00  0.00    -0.391 OA
ATOM     66  O1S SGN d 804       7.910  53.383 -17.358  0.00  0.00    -0.296 OA
ATOM     67  O5  SGN d 804       5.605  51.684 -12.933  0.00  0.00    -0.350 OA
ATOM     68  C3  SGN d 804       3.930  53.472 -14.385  0.00  0.00     0.083 C 
ATOM     69  C6  SGN d 804       4.169  51.697 -10.966  0.00  0.00     0.067 C 
ATOM     70  O2S SGN d 804       6.040  52.695 -18.709  0.00  0.00    -0.296 OA
ATOM     71  C2  SGN d 804       5.012  52.651 -15.073  0.00  0.00     0.081 C 
ATOM     72  O4S SGN d 804       4.101  49.337  -8.891  0.00  0.00    -0.572 OA
ATOM     73  O4  SGN d 804       2.445  53.501 -12.488  0.00  0.00    -0.348 OA
ATOM     74  H   SGN d 804       7.160  53.995 -14.510  0.00  0.00     0.212 HD
ATOM     75  H   SGN d 804       5.006  53.376 -11.918  0.00  0.00     0.090 H 
ATOM     76  H   SGN d 804       6.863  51.715 -14.547  0.00  0.00     0.131 H 
ATOM     77  H   SGN d 804       6.012  54.212 -15.815  0.00  0.00     0.140 HD
ATOM     78  H   SGN d 804       2.981  51.783 -13.468  0.00  0.00     0.091 H 
ATOM     79  H   SGN d 804       7.254  51.217 -16.081  0.00  0.00     0.231 HD
ATOM     80  H   SGN d 804       2.181  54.229 -14.846  0.00  0.00     0.210 HD
ATOM     81  H   SGN d 804       8.299  53.356 -16.470  0.00  0.00     0.231 HD
ATOM     82  H   SGN d 804       4.332  54.414 -14.072  0.00  0.00     0.089 H 
ATOM     83  H   SGN d 804       3.376  52.238 -10.494  0.00  0.00     0.080 H 
ATOM     84  H   SGN d 804       5.003  51.621 -10.301  0.00  0.00     0.080 H 
ATOM     85  H   SGN d 804       5.198  52.213 -18.710  0.00  0.00     0.231 HD
ATOM     86  H   SGN d 804       4.605  51.723 -15.415  0.00  0.00     0.076 H 
ATOM     87  O5  UAP d 801      -7.692  53.656 -15.786  0.00  0.00    -0.311 OA
ATOM     88  O2  UAP d 801      -7.737  52.953 -18.540  0.00  0.00    -0.244 OA
ATOM     89  O1S UAP d 801      -8.697  53.421 -20.967  0.00  0.00    -0.572 OA
ATOM     90  O3S UAP d 801      -6.314  53.616 -20.678  0.00  0.00    -0.572 OA
ATOM     91  C1  UAP d 801      -6.503  53.608 -16.578  0.00  0.00     0.167 C 
ATOM     92  O2S UAP d 801      -7.351  51.444 -20.692  0.00  0.00    -0.572 OA
ATOM     93  C4  UAP d 801      -7.855  51.301 -15.915  0.00  0.00    -0.034 C 
ATOM     94  C3  UAP d 801      -6.992  51.194 -17.072  0.00  0.00     0.086 C 
ATOM     95  O62 UAP d 801      -9.298  53.565 -13.744  0.00  0.00    -0.642 OA
ATOM     96  S   UAP d 801      -7.516  52.854 -20.291  0.00  0.00     0.252 S 
ATOM     97  C6  UAP d 801      -8.990  52.476 -14.282  0.00  0.00     0.233 C 
ATOM     98  C2  UAP d 801      -6.678  52.562 -17.668  0.00  0.00     0.135 C 
ATOM     99  C5  UAP d 801      -8.168  52.477 -15.333  0.00  0.00     0.147 C 
ATOM    100  O61 UAP d 801      -9.450  51.390 -13.859  0.00  0.00    -0.642 OA
ATOM    101  O3  UAP d 801      -5.800  50.527 -16.720  0.00  0.00    -0.389 OA
ATOM    102  H   UAP d 801      -6.347  54.576 -17.005  0.00  0.00     0.134 H 
ATOM    103  H   UAP d 801      -8.251  50.435 -15.517  0.00  0.00     0.085 H 
ATOM    104  H   UAP d 801      -7.508  50.628 -17.820  0.00  0.00     0.093 H 
ATOM    105  H   UAP d 801      -5.761  52.491 -18.215  0.00  0.00     0.097 H 
ATOM    106  H   UAP d 801      -5.332  51.038 -16.042  0.00  0.00     0.210 HD
ENDROOT
TORSDOF 33
ENDMDL
MODEL 27
REMARK VINA RESULT:      -5.7      3.395      7.276
REMARK  0 active torsions:
REMARK  status: ('A' for Active; 'I' for Inactive)
REMARK       I    between atoms: C2_1  and  O2_62 
REMARK       I    between atoms: O3_2  and  C3_65 
REMARK       I    between atoms: O1_3  and  C1_15 
REMARK       I    between atoms: C5_5  and  C6_58 
REMARK       I    between atoms: C1_6  and  O4_70 
REMARK       I    between atoms: S_7  and  O2_62 
REMARK       I    between atoms: O2_9  and  C2_55 
REMARK       I    between atoms: O2_9  and  S_49 
REMARK       I    between atoms: O4_11  and  C1_28 
REMARK       I    between atoms: O4_11  and  C4_41 
REMARK       I    between atoms: O6_12  and  C6_58 
REMARK       I    between atoms: O6_12  and  S2_38 
REMARK       I    between atoms: S1_16  and  N_21 
REMARK       I    between atoms: S1_16  and  O1S_32 
REMARK       I    between atoms: S1_16  and  O2S_53 
REMARK       I    between atoms: S1_16  and  O3S_24 
REMARK       I    between atoms: N_18  and  C2_66 
REMARK       I    between atoms: N_18  and  S1_37 
REMARK       I    between atoms: C3_19  and  O3_27 
REMARK       I    between atoms: N_21  and  C2_31 
REMARK       I    between atoms: C4_22  and  O4_70 
REMARK       I    between atoms: C6_25  and  C5_46 
REMARK       I    between atoms: C6_25  and  O6_45 
REMARK       I    between atoms: O1_33  and  C1_51 
REMARK       I    between atoms: O1_33  and  C4_34 
REMARK       I    between atoms: O3S_35  and  S1_37 
REMARK       I    between atoms: S1_37  and  O1S_42 
REMARK       I    between atoms: S1_37  and  O2S_63 
REMARK       I    between atoms: O3_39  and  C3_54 
REMARK       I    between atoms: C6_40  and  C5_60 
REMARK       I    between atoms: C3_44  and  O3_64 
REMARK       I    between atoms: O6_45  and  S2_59 
REMARK       I    between atoms: C6_50  and  C5_56 
ROOT
ATOM      1  C2  IDS d 803       2.644  56.144 -15.843  0.00  0.00     0.134 C 
ATOM      2  C1  IDS d 803       3.389  54.835 -16.106  0.00  0.00     0.161 C 
ATOM      3  S   IDS d 803       3.259  57.728 -13.666  0.00  0.00     0.252 S 
ATOM      4  O3S IDS d 803       4.647  57.373 -13.312  0.00  0.00    -0.572 OA
ATOM      5  O5  IDS d 803       2.559  53.720 -15.745  0.00  0.00    -0.340 OA
ATOM      6  C3  IDS d 803       1.296  56.141 -16.565  0.00  0.00     0.094 C 
ATOM      7  O2S IDS d 803       3.270  58.873 -14.595  0.00  0.00    -0.572 OA
ATOM      8  O3  IDS d 803       1.473  56.164 -17.965  0.00  0.00    -0.390 OA
ATOM      9  C4  IDS d 803       0.490  54.914 -16.141  0.00  0.00     0.103 C 
ATOM     10  C6  IDS d 803       0.564  52.424 -15.969  0.00  0.00     0.206 C 
ATOM     11  O61 IDS d 803      -0.240  51.868 -16.749  0.00  0.00    -0.646 OA
ATOM     12  C5  IDS d 803       1.309  53.659 -16.450  0.00  0.00     0.152 C 
ATOM     13  O2  IDS d 803       2.474  56.346 -14.442  0.00  0.00    -0.244 OA
ATOM     14  O62 IDS d 803       0.800  51.990 -14.821  0.00  0.00    -0.646 OA
ATOM     15  O1S IDS d 803       2.517  58.091 -12.444  0.00  0.00    -0.572 OA
ATOM     16  H   IDS d 803       3.226  56.955 -16.228  0.00  0.00     0.097 H 
ATOM     17  H   IDS d 803       4.266  54.804 -15.494  0.00  0.00     0.133 H 
ATOM     18  H   IDS d 803       0.757  57.024 -16.291  0.00  0.00     0.091 H 
ATOM     19  H   IDS d 803       1.960  55.372 -18.243  0.00  0.00     0.210 HD
ATOM     20  H   IDS d 803      -0.437  54.889 -16.675  0.00  0.00     0.092 H 
ATOM     21  H   IDS d 803       1.471  53.607 -17.506  0.00  0.00     0.104 H 
ATOM     22  O3  SGN d 802      -0.772  55.637 -10.693  0.00  0.00    -0.391 OA
ATOM     23  O4  SGN d 802      -1.373  52.905 -11.046  0.00  0.00    -0.348 OA
ATOM     24  S1  SGN d 802      -0.827  58.777 -13.437  0.00  0.00     0.156 S 
ATOM     25  O5S SGN d 802      -6.705  52.734 -13.343  0.00  0.00    -0.572 OA
ATOM     26  N   SGN d 802      -0.219  57.173 -13.008  0.00  0.00    -0.210 NA
ATOM     27  O3S SGN d 802      -0.935  58.880 -14.904  0.00  0.00    -0.296 OA
ATOM     28  C6  SGN d 802      -2.788  52.177 -13.523  0.00  0.00     0.067 C 
ATOM     29  O5  SGN d 802      -2.026  54.273 -14.392  0.00  0.00    -0.349 OA
ATOM     30  C2  SGN d 802      -1.130  56.049 -13.035  0.00  0.00     0.081 C 
ATOM     31  O1S SGN d 802       0.104  59.803 -12.937  0.00  0.00    -0.296 OA
ATOM     32  O1  SGN d 802       0.211  54.972 -14.738  0.00  0.00    -0.348 OA
ATOM     33  C4  SGN d 802      -1.743  53.882 -12.020  0.00  0.00     0.095 C 
ATOM     34  O6  SGN d 802      -4.064  52.800 -13.391  0.00  0.00    -0.254 OA
ATOM     35  C5  SGN d 802      -1.724  53.259 -13.419  0.00  0.00     0.091 C 
ATOM     36  O4S SGN d 802      -5.545  50.832 -12.417  0.00  0.00    -0.572 OA
ATOM     37  C1  SGN d 802      -1.118  55.385 -14.411  0.00  0.00     0.150 C 
ATOM     38  O6S SGN d 802      -5.596  51.172 -14.807  0.00  0.00    -0.572 OA
ATOM     39  O2S SGN d 802      -2.158  58.978 -12.831  0.00  0.00    -0.296 OA
ATOM     40  S2  SGN d 802      -5.540  51.842 -13.494  0.00  0.00     0.251 S 
ATOM     41  C3  SGN d 802      -0.748  55.033 -11.967  0.00  0.00     0.083 C 
ATOM     42  H   SGN d 802      -0.135  56.368 -10.670  0.00  0.00     0.210 HD
ATOM     43  H   SGN d 802       0.149  57.237 -12.059  0.00  0.00     0.140 HD
ATOM     44  H   SGN d 802      -0.061  58.748 -15.302  0.00  0.00     0.231 HD
ATOM     45  H   SGN d 802      -2.653  51.458 -12.743  0.00  0.00     0.080 H 
ATOM     46  H   SGN d 802      -2.716  51.674 -14.465  0.00  0.00     0.080 H 
ATOM     47  H   SGN d 802      -2.117  56.411 -12.835  0.00  0.00     0.076 H 
ATOM     48  H   SGN d 802       0.174  59.735 -11.972  0.00  0.00     0.231 HD
ATOM     49  H   SGN d 802      -2.729  54.239 -11.809  0.00  0.00     0.091 H 
ATOM     50  H   SGN d 802      -0.756  52.839 -13.596  0.00  0.00     0.090 H 
ATOM     51  H   SGN d 802      -1.436  56.077 -15.163  0.00  0.00     0.131 H 
ATOM     52  H   SGN d 802      -2.087  58.910 -11.866  0.00  0.00     0.231 HD
ATOM     53  H   SGN d 802       0.242  54.669 -12.148  0.00  0.00     0.089 H 
ATOM     54  O1  SGN d 804       6.272  52.776 -20.730  0.00  0.00    -0.369 OA
ATOM     55  C5  SGN d 804       6.033  54.546 -18.459  0.00  0.00     0.091 C 
ATOM     56  O6  SGN d 804       7.219  55.466 -16.562  0.00  0.00    -0.254 OA
ATOM     57  O6S SGN d 804       8.811  56.155 -14.552  0.00  0.00    -0.572 OA
ATOM     58  C1  SGN d 804       6.726  52.444 -19.417  0.00  0.00     0.147 C 
ATOM     59  N   SGN d 804       5.176  50.557 -19.416  0.00  0.00    -0.210 NA
ATOM     60  C4  SGN d 804       4.936  53.861 -17.644  0.00  0.00     0.095 C 
ATOM     61  O5S SGN d 804       6.830  57.485 -14.884  0.00  0.00    -0.572 OA
ATOM     62  O3S SGN d 804       7.530  49.401 -19.001  0.00  0.00    -0.296 OA
ATOM     63  S1  SGN d 804       6.238  49.167 -19.678  0.00  0.00     0.156 S 
ATOM     64  S2  SGN d 804       7.914  56.749 -15.561  0.00  0.00     0.251 S 
ATOM     65  O3  SGN d 804       3.465  51.955 -17.658  0.00  0.00    -0.391 OA
ATOM     66  O1S SGN d 804       6.465  48.991 -21.125  0.00  0.00    -0.296 OA
ATOM     67  O5  SGN d 804       7.108  53.620 -18.686  0.00  0.00    -0.350 OA
ATOM     68  C3  SGN d 804       4.453  52.630 -18.405  0.00  0.00     0.083 C 
ATOM     69  C6  SGN d 804       6.550  55.808 -17.774  0.00  0.00     0.067 C 
ATOM     70  O2S SGN d 804       5.609  47.951 -19.129  0.00  0.00    -0.296 OA
ATOM     71  C2  SGN d 804       5.633  51.700 -18.649  0.00  0.00     0.081 C 
ATOM     72  O4S SGN d 804       8.678  57.679 -16.413  0.00  0.00    -0.572 OA
ATOM     73  O4  SGN d 804       3.841  54.760 -17.460  0.00  0.00    -0.348 OA
ATOM     74  H   SGN d 804       6.021  51.966 -21.201  0.00  0.00     0.212 HD
ATOM     75  H   SGN d 804       5.613  54.849 -19.395  0.00  0.00     0.090 H 
ATOM     76  H   SGN d 804       7.584  51.812 -19.521  0.00  0.00     0.131 H 
ATOM     77  H   SGN d 804       4.922  50.908 -20.339  0.00  0.00     0.140 HD
ATOM     78  H   SGN d 804       5.323  53.574 -16.688  0.00  0.00     0.091 H 
ATOM     79  H   SGN d 804       7.944  50.200 -19.362  0.00  0.00     0.231 HD
ATOM     80  H   SGN d 804       2.714  52.549 -17.503  0.00  0.00     0.210 HD
ATOM     81  H   SGN d 804       6.878  49.790 -21.488  0.00  0.00     0.231 HD
ATOM     82  H   SGN d 804       4.030  52.935 -19.340  0.00  0.00     0.089 H 
ATOM     83  H   SGN d 804       5.727  56.454 -17.554  0.00  0.00     0.080 H 
ATOM     84  H   SGN d 804       7.238  56.304 -18.426  0.00  0.00     0.080 H 
ATOM     85  H   SGN d 804       5.460  48.065 -18.178  0.00  0.00     0.231 HD
ATOM     86  H   SGN d 804       6.036  51.367 -17.715  0.00  0.00     0.076 H 
ATOM     87  O5  UAP d 801      -3.096  53.360  -9.486  0.00  0.00    -0.311 OA
ATOM     88  O2  UAP d 801      -3.056  50.614  -8.750  0.00  0.00    -0.244 OA
ATOM     89  O1S UAP d 801      -4.424  48.441  -8.088  0.00  0.00    -0.572 OA
ATOM     90  O3S UAP d 801      -3.055  48.311 -10.065  0.00  0.00    -0.572 OA
ATOM     91  C1  UAP d 801      -2.462  52.366 -10.293  0.00  0.00     0.167 C 
ATOM     92  O2S UAP d 801      -2.028  48.321  -7.888  0.00  0.00    -0.572 OA
ATOM     93  C4  UAP d 801      -1.409  53.086  -7.851  0.00  0.00    -0.034 C 
ATOM     94  C3  UAP d 801      -0.993  51.788  -8.338  0.00  0.00     0.086 C 
ATOM     95  O62 UAP d 801      -3.666  55.645  -8.385  0.00  0.00    -0.642 OA
ATOM     96  S   UAP d 801      -3.144  48.849  -8.695  0.00  0.00     0.252 S 
ATOM     97  C6  UAP d 801      -2.731  54.981  -7.879  0.00  0.00     0.233 C 
ATOM     98  C2  UAP d 801      -1.953  51.249  -9.394  0.00  0.00     0.135 C 
ATOM     99  C5  UAP d 801      -2.406  53.802  -8.413  0.00  0.00     0.147 C 
ATOM    100  O61 UAP d 801      -2.108  55.397  -6.875  0.00  0.00    -0.642 OA
ATOM    101  O3  UAP d 801       0.315  51.870  -8.860  0.00  0.00    -0.389 OA
ATOM    102  H   UAP d 801      -3.183  51.992 -10.989  0.00  0.00     0.134 H 
ATOM    103  H   UAP d 801      -0.920  53.484  -7.034  0.00  0.00     0.085 H 
ATOM    104  H   UAP d 801      -1.005  51.105  -7.514  0.00  0.00     0.093 H 
ATOM    105  H   UAP d 801      -1.427  50.544 -10.001  0.00  0.00     0.097 H 
ATOM    106  H   UAP d 801       0.327  52.488  -9.607  0.00  0.00     0.210 HD
ENDROOT
TORSDOF 33
ENDMDL
MODEL 28
REMARK VINA RESULT:      -5.7      2.438      3.152
REMARK  0 active torsions:
REMARK  status: ('A' for Active; 'I' for Inactive)
REMARK       I    between atoms: C2_1  and  O2_62 
REMARK       I    between atoms: O3_2  and  C3_65 
REMARK       I    between atoms: O1_3  and  C1_15 
REMARK       I    between atoms: C5_5  and  C6_58 
REMARK       I    between atoms: C1_6  and  O4_70 
REMARK       I    between atoms: S_7  and  O2_62 
REMARK       I    between atoms: O2_9  and  C2_55 
REMARK       I    between atoms: O2_9  and  S_49 
REMARK       I    between atoms: O4_11  and  C1_28 
REMARK       I    between atoms: O4_11  and  C4_41 
REMARK       I    between atoms: O6_12  and  C6_58 
REMARK       I    between atoms: O6_12  and  S2_38 
REMARK       I    between atoms: S1_16  and  N_21 
REMARK       I    between atoms: S1_16  and  O1S_32 
REMARK       I    between atoms: S1_16  and  O2S_53 
REMARK       I    between atoms: S1_16  and  O3S_24 
REMARK       I    between atoms: N_18  and  C2_66 
REMARK       I    between atoms: N_18  and  S1_37 
REMARK       I    between atoms: C3_19  and  O3_27 
REMARK       I    between atoms: N_21  and  C2_31 
REMARK       I    between atoms: C4_22  and  O4_70 
REMARK       I    between atoms: C6_25  and  C5_46 
REMARK       I    between atoms: C6_25  and  O6_45 
REMARK       I    between atoms: O1_33  and  C1_51 
REMARK       I    between atoms: O1_33  and  C4_34 
REMARK       I    between atoms: O3S_35  and  S1_37 
REMARK       I    between atoms: S1_37  and  O1S_42 
REMARK       I    between atoms: S1_37  and  O2S_63 
REMARK       I    between atoms: O3_39  and  C3_54 
REMARK       I    between atoms: C6_40  and  C5_60 
REMARK       I    between atoms: C3_44  and  O3_64 
REMARK       I    between atoms: O6_45  and  S2_59 
REMARK       I    between atoms: C6_50  and  C5_56 
ROOT
ATOM      1  C2  IDS d 803       5.485  55.573 -15.273  0.00  0.00     0.134 C 
ATOM      2  C1  IDS d 803       5.532  56.567 -16.433  0.00  0.00     0.161 C 
ATOM      3  S   IDS d 803       5.895  52.873 -15.685  0.00  0.00     0.252 S 
ATOM      4  O3S IDS d 803       6.671  52.788 -16.938  0.00  0.00    -0.572 OA
ATOM      5  O5  IDS d 803       4.198  56.970 -16.783  0.00  0.00    -0.340 OA
ATOM      6  C3  IDS d 803       4.709  56.166 -14.097  0.00  0.00     0.094 C 
ATOM      7  O2S IDS d 803       6.823  52.913 -14.539  0.00  0.00    -0.572 OA
ATOM      8  O3  IDS d 803       5.401  57.261 -13.535  0.00  0.00    -0.390 OA
ATOM      9  C4  IDS d 803       3.315  56.586 -14.561  0.00  0.00     0.103 C 
ATOM     10  C6  IDS d 803       2.092  57.963 -16.247  0.00  0.00     0.206 C 
ATOM     11  O61 IDS d 803       1.494  58.932 -15.729  0.00  0.00    -0.646 OA
ATOM     12  C5  IDS d 803       3.464  57.583 -15.712  0.00  0.00     0.152 C 
ATOM     13  O2  IDS d 803       4.908  54.340 -15.697  0.00  0.00    -0.244 OA
ATOM     14  O62 IDS d 803       1.620  57.313 -17.204  0.00  0.00    -0.646 OA
ATOM     15  O1S IDS d 803       5.019  51.692 -15.569  0.00  0.00    -0.572 OA
ATOM     16  H   IDS d 803       6.485  55.376 -14.947  0.00  0.00     0.097 H 
ATOM     17  H   IDS d 803       5.965  56.088 -17.286  0.00  0.00     0.133 H 
ATOM     18  H   IDS d 803       4.612  55.419 -13.336  0.00  0.00     0.091 H 
ATOM     19  H   IDS d 803       5.503  57.956 -14.205  0.00  0.00     0.210 HD
ATOM     20  H   IDS d 803       2.786  57.038 -13.749  0.00  0.00     0.092 H 
ATOM     21  H   IDS d 803       3.974  58.451 -15.351  0.00  0.00     0.104 H 
ATOM     22  O3  SGN d 802       0.571  51.841 -15.878  0.00  0.00    -0.391 OA
ATOM     23  O4  SGN d 802      -1.096  53.790 -17.049  0.00  0.00    -0.348 OA
ATOM     24  S1  SGN d 802       3.122  52.109 -12.591  0.00  0.00     0.156 S 
ATOM     25  O5S SGN d 802      -4.460  55.791 -12.757  0.00  0.00    -0.572 OA
ATOM     26  N   SGN d 802       2.650  52.736 -14.175  0.00  0.00    -0.210 NA
ATOM     27  O3S SGN d 802       3.656  53.212 -11.771  0.00  0.00    -0.296 OA
ATOM     28  C6  SGN d 802      -1.598  56.219 -15.461  0.00  0.00     0.067 C 
ATOM     29  O5  SGN d 802       0.358  55.623 -14.216  0.00  0.00    -0.349 OA
ATOM     30  C2  SGN d 802       1.399  53.453 -14.298  0.00  0.00     0.081 C 
ATOM     31  O1S SGN d 802       4.158  51.075 -12.762  0.00  0.00    -0.296 OA
ATOM     32  O1  SGN d 802       2.582  55.442 -15.009  0.00  0.00    -0.348 OA
ATOM     33  C4  SGN d 802      -0.531  53.974 -15.750  0.00  0.00     0.095 C 
ATOM     34  O6  SGN d 802      -2.343  55.752 -14.338  0.00  0.00    -0.254 OA
ATOM     35  C5  SGN d 802      -0.278  55.463 -15.495  0.00  0.00     0.091 C 
ATOM     36  O4S SGN d 802      -4.840  56.196 -15.105  0.00  0.00    -0.572 OA
ATOM     37  C1  SGN d 802       1.617  54.949 -14.076  0.00  0.00     0.150 C 
ATOM     38  O6S SGN d 802      -3.787  57.887 -13.739  0.00  0.00    -0.572 OA
ATOM     39  O2S SGN d 802       1.945  51.524 -11.920  0.00  0.00    -0.296 OA
ATOM     40  S2  SGN d 802      -3.925  56.436 -13.971  0.00  0.00     0.251 S 
ATOM     41  C3  SGN d 802       0.789  53.219 -15.673  0.00  0.00     0.083 C 
ATOM     42  H   SGN d 802       1.417  51.368 -15.827  0.00  0.00     0.210 HD
ATOM     43  H   SGN d 802       2.601  51.938 -14.809  0.00  0.00     0.140 HD
ATOM     44  H   SGN d 802       4.430  53.597 -12.211  0.00  0.00     0.231 HD
ATOM     45  H   SGN d 802      -2.146  56.034 -16.361  0.00  0.00     0.080 H 
ATOM     46  H   SGN d 802      -1.423  57.271 -15.379  0.00  0.00     0.080 H 
ATOM     47  H   SGN d 802       0.726  53.088 -13.551  0.00  0.00     0.076 H 
ATOM     48  H   SGN d 802       3.805  50.350 -13.302  0.00  0.00     0.231 HD
ATOM     49  H   SGN d 802      -1.210  53.603 -15.010  0.00  0.00     0.091 H 
ATOM     50  H   SGN d 802       0.342  55.846 -16.278  0.00  0.00     0.090 H 
ATOM     51  H   SGN d 802       1.998  55.130 -13.092  0.00  0.00     0.131 H 
ATOM     52  H   SGN d 802       1.594  50.798 -12.460  0.00  0.00     0.231 HD
ATOM     53  H   SGN d 802       1.455  53.570 -16.433  0.00  0.00     0.089 H 
ATOM     54  O1  SGN d 804       8.573  61.450 -17.348  0.00  0.00    -0.369 OA
ATOM     55  C5  SGN d 804       8.370  58.573 -17.157  0.00  0.00     0.091 C 
ATOM     56  O6  SGN d 804       9.012  56.493 -18.210  0.00  0.00    -0.254 OA
ATOM     57  O6S SGN d 804       9.815  54.456 -19.712  0.00  0.00    -0.572 OA
ATOM     58  C1  SGN d 804       8.258  60.603 -18.456  0.00  0.00     0.147 C 
ATOM     59  N   SGN d 804       6.124  61.772 -18.672  0.00  0.00    -0.210 NA
ATOM     60  C4  SGN d 804       6.862  58.359 -17.285  0.00  0.00     0.095 C 
ATOM     61  O5S SGN d 804       9.042  53.938 -17.490  0.00  0.00    -0.572 OA
ATOM     62  O3S SGN d 804       7.241  62.113 -21.056  0.00  0.00    -0.296 OA
ATOM     63  S1  SGN d 804       6.379  62.810 -20.081  0.00  0.00     0.156 S 
ATOM     64  S2  SGN d 804       9.794  54.908 -18.308  0.00  0.00     0.251 S 
ATOM     65  O3  SGN d 804       4.787  59.549 -17.556  0.00  0.00    -0.391 OA
ATOM     66  O1S SGN d 804       7.030  64.062 -19.653  0.00  0.00    -0.296 OA
ATOM     67  O5  SGN d 804       8.847  59.303 -18.300  0.00  0.00    -0.350 OA
ATOM     68  C3  SGN d 804       6.178  59.718 -17.398  0.00  0.00     0.083 C 
ATOM     69  C6  SGN d 804       9.125  57.256 -17.010  0.00  0.00     0.067 C 
ATOM     70  O2S SGN d 804       5.080  63.123 -20.708  0.00  0.00    -0.296 OA
ATOM     71  C2  SGN d 804       6.742  60.461 -18.601  0.00  0.00     0.081 C 
ATOM     72  O4S SGN d 804      11.175  55.008 -17.802  0.00  0.00    -0.572 OA
ATOM     73  O4  SGN d 804       6.372  57.681 -16.126  0.00  0.00    -0.348 OA
ATOM     74  H   SGN d 804       8.164  62.320 -17.479  0.00  0.00     0.212 HD
ATOM     75  H   SGN d 804       8.552  59.139 -16.267  0.00  0.00     0.090 H 
ATOM     76  H   SGN d 804       8.661  61.058 -19.337  0.00  0.00     0.131 H 
ATOM     77  H   SGN d 804       6.454  62.294 -17.861  0.00  0.00     0.140 HD
ATOM     78  H   SGN d 804       6.655  57.769 -18.154  0.00  0.00     0.091 H 
ATOM     79  H   SGN d 804       8.094  61.908 -20.644  0.00  0.00     0.231 HD
ATOM     80  H   SGN d 804       4.429  59.075 -16.788  0.00  0.00     0.210 HD
ATOM     81  H   SGN d 804       7.884  63.858 -19.241  0.00  0.00     0.231 HD
ATOM     82  H   SGN d 804       6.359  60.280 -16.505  0.00  0.00     0.089 H 
ATOM     83  H   SGN d 804       8.711  56.699 -16.196  0.00  0.00     0.080 H 
ATOM     84  H   SGN d 804      10.158  57.462 -16.822  0.00  0.00     0.080 H 
ATOM     85  H   SGN d 804       4.651  62.300 -20.989  0.00  0.00     0.231 HD
ATOM     86  H   SGN d 804       6.533  59.917 -19.498  0.00  0.00     0.076 H 
ATOM     87  O5  UAP d 801      -2.826  52.299 -16.423  0.00  0.00    -0.311 OA
ATOM     88  O2  UAP d 801      -4.419  53.384 -18.511  0.00  0.00    -0.244 OA
ATOM     89  O1S UAP d 801      -6.806  54.199 -19.331  0.00  0.00    -0.572 OA
ATOM     90  O3S UAP d 801      -5.033  55.829 -19.337  0.00  0.00    -0.572 OA
ATOM     91  C1  UAP d 801      -2.502  53.535 -17.061  0.00  0.00     0.167 C 
ATOM     92  O2S UAP d 801      -5.068  54.081 -20.991  0.00  0.00    -0.572 OA
ATOM     93  C4  UAP d 801      -2.273  51.144 -18.411  0.00  0.00    -0.034 C 
ATOM     94  C3  UAP d 801      -2.393  52.315 -19.255  0.00  0.00     0.086 C 
ATOM     95  O62 UAP d 801      -2.583  50.043 -15.153  0.00  0.00    -0.642 OA
ATOM     96  S   UAP d 801      -5.371  54.415 -19.587  0.00  0.00     0.252 S 
ATOM     97  C6  UAP d 801      -2.372  50.033 -16.388  0.00  0.00     0.233 C 
ATOM     98  C2  UAP d 801      -2.997  53.494 -18.499  0.00  0.00     0.135 C 
ATOM     99  C5  UAP d 801      -2.486  51.169 -17.079  0.00  0.00     0.147 C 
ATOM    100  O61 UAP d 801      -2.070  48.974 -16.987  0.00  0.00    -0.642 OA
ATOM    101  O3  UAP d 801      -1.128  52.661 -19.773  0.00  0.00    -0.389 OA
ATOM    102  H   UAP d 801      -2.979  54.325 -16.520  0.00  0.00     0.134 H 
ATOM    103  H   UAP d 801      -2.013  50.248 -18.850  0.00  0.00     0.085 H 
ATOM    104  H   UAP d 801      -3.054  52.077 -20.061  0.00  0.00     0.093 H 
ATOM    105  H   UAP d 801      -2.695  54.398 -18.984  0.00  0.00     0.097 H 
ATOM    106  H   UAP d 801      -0.527  52.878 -19.043  0.00  0.00     0.210 HD
ENDROOT
TORSDOF 33
ENDMDL
MODEL 29
REMARK VINA RESULT:      -5.7      3.392      7.758
REMARK  0 active torsions:
REMARK  status: ('A' for Active; 'I' for Inactive)
REMARK       I    between atoms: C2_1  and  O2_62 
REMARK       I    between atoms: O3_2  and  C3_65 
REMARK       I    between atoms: O1_3  and  C1_15 
REMARK       I    between atoms: C5_5  and  C6_58 
REMARK       I    between atoms: C1_6  and  O4_70 
REMARK       I    between atoms: S_7  and  O2_62 
REMARK       I    between atoms: O2_9  and  C2_55 
REMARK       I    between atoms: O2_9  and  S_49 
REMARK       I    between atoms: O4_11  and  C1_28 
REMARK       I    between atoms: O4_11  and  C4_41 
REMARK       I    between atoms: O6_12  and  C6_58 
REMARK       I    between atoms: O6_12  and  S2_38 
REMARK       I    between atoms: S1_16  and  N_21 
REMARK       I    between atoms: S1_16  and  O1S_32 
REMARK       I    between atoms: S1_16  and  O2S_53 
REMARK       I    between atoms: S1_16  and  O3S_24 
REMARK       I    between atoms: N_18  and  C2_66 
REMARK       I    between atoms: N_18  and  S1_37 
REMARK       I    between atoms: C3_19  and  O3_27 
REMARK       I    between atoms: N_21  and  C2_31 
REMARK       I    between atoms: C4_22  and  O4_70 
REMARK       I    between atoms: C6_25  and  C5_46 
REMARK       I    between atoms: C6_25  and  O6_45 
REMARK       I    between atoms: O1_33  and  C1_51 
REMARK       I    between atoms: O1_33  and  C4_34 
REMARK       I    between atoms: O3S_35  and  S1_37 
REMARK       I    between atoms: S1_37  and  O1S_42 
REMARK       I    between atoms: S1_37  and  O2S_63 
REMARK       I    between atoms: O3_39  and  C3_54 
REMARK       I    between atoms: C6_40  and  C5_60 
REMARK       I    between atoms: C3_44  and  O3_64 
REMARK       I    between atoms: O6_45  and  S2_59 
REMARK       I    between atoms: C6_50  and  C5_56 
ROOT
ATOM      1  C2  IDS d 803       3.119  56.199 -17.897  0.00  0.00     0.134 C 
ATOM      2  C1  IDS d 803       4.085  55.136 -17.375  0.00  0.00     0.161 C 
ATOM      3  S   IDS d 803       3.249  58.811 -17.009  0.00  0.00     0.252 S 
ATOM      4  O3S IDS d 803       4.633  58.985 -16.526  0.00  0.00    -0.572 OA
ATOM      5  O5  IDS d 803       3.411  54.281 -16.438  0.00  0.00    -0.340 OA
ATOM      6  C3  IDS d 803       1.869  55.539 -18.480  0.00  0.00     0.094 C 
ATOM      7  O2S IDS d 803       3.173  59.219 -18.425  0.00  0.00    -0.572 OA
ATOM      8  O3  IDS d 803       2.181  54.808 -19.646  0.00  0.00    -0.390 OA
ATOM      9  C4  IDS d 803       1.229  54.633 -17.428  0.00  0.00     0.103 C 
ATOM     10  C6  IDS d 803       1.680  52.733 -15.873  0.00  0.00     0.206 C 
ATOM     11  O61 IDS d 803       1.059  51.696 -16.193  0.00  0.00    -0.646 OA
ATOM     12  C5  IDS d 803       2.264  53.602 -16.975  0.00  0.00     0.152 C 
ATOM     13  O2  IDS d 803       2.777  57.114 -16.858  0.00  0.00    -0.244 OA
ATOM     14  O62 IDS d 803       1.864  53.069 -14.683  0.00  0.00    -0.646 OA
ATOM     15  O1S IDS d 803       2.339  59.647 -16.205  0.00  0.00    -0.572 OA
ATOM     16  H   IDS d 803       3.600  56.749 -18.678  0.00  0.00     0.097 H 
ATOM     17  H   IDS d 803       4.889  55.618 -16.859  0.00  0.00     0.133 H 
ATOM     18  H   IDS d 803       1.171  56.303 -18.753  0.00  0.00     0.091 H 
ATOM     19  H   IDS d 803       2.814  54.105 -19.428  0.00  0.00     0.210 HD
ATOM     20  H   IDS d 803       0.377  54.140 -17.848  0.00  0.00     0.092 H 
ATOM     21  H   IDS d 803       2.540  53.000 -17.816  0.00  0.00     0.104 H 
ATOM     22  O3  SGN d 802      -0.679  58.024 -13.348  0.00  0.00    -0.391 OA
ATOM     23  O4  SGN d 802      -0.799  55.508 -12.082  0.00  0.00    -0.348 OA
ATOM     24  S1  SGN d 802      -0.953  59.015 -17.389  0.00  0.00     0.156 S 
ATOM     25  O5S SGN d 802      -5.775  53.080 -13.840  0.00  0.00    -0.572 OA
ATOM     26  N   SGN d 802      -0.145  58.075 -16.129  0.00  0.00    -0.210 NA
ATOM     27  O3S SGN d 802      -0.927  58.258 -18.654  0.00  0.00    -0.296 OA
ATOM     28  C6  SGN d 802      -1.822  53.268 -13.698  0.00  0.00     0.067 C 
ATOM     29  O5  SGN d 802      -1.317  54.619 -15.609  0.00  0.00    -0.349 OA
ATOM     30  C2  SGN d 802      -0.858  56.980 -15.507  0.00  0.00     0.081 C 
ATOM     31  O1S SGN d 802      -0.253  60.299 -17.568  0.00  0.00    -0.296 OA
ATOM     32  O1  SGN d 802       0.804  55.411 -16.305  0.00  0.00    -0.348 OA
ATOM     33  C4  SGN d 802      -1.219  55.683 -13.436  0.00  0.00     0.095 C 
ATOM     34  O6  SGN d 802      -3.187  53.605 -13.934  0.00  0.00    -0.254 OA
ATOM     35  C5  SGN d 802      -0.959  54.401 -14.234  0.00  0.00     0.091 C 
ATOM     36  O4S SGN d 802      -4.427  52.281 -12.004  0.00  0.00    -0.572 OA
ATOM     37  C1  SGN d 802      -0.601  55.678 -16.262  0.00  0.00     0.150 C 
ATOM     38  O6S SGN d 802      -4.289  51.210 -14.165  0.00  0.00    -0.572 OA
ATOM     39  O2S SGN d 802      -2.354  59.266 -16.996  0.00  0.00    -0.296 OA
ATOM     40  S2  SGN d 802      -4.473  52.496 -13.464  0.00  0.00     0.251 S 
ATOM     41  C3  SGN d 802      -0.430  56.829 -14.054  0.00  0.00     0.083 C 
ATOM     42  H   SGN d 802      -0.173  58.748 -13.749  0.00  0.00     0.210 HD
ATOM     43  H   SGN d 802       0.110  58.727 -15.387  0.00  0.00     0.140 HD
ATOM     44  H   SGN d 802      -0.007  58.094 -18.913  0.00  0.00     0.231 HD
ATOM     45  H   SGN d 802      -1.654  53.150 -12.648  0.00  0.00     0.080 H 
ATOM     46  H   SGN d 802      -1.575  52.349 -14.187  0.00  0.00     0.080 H 
ATOM     47  H   SGN d 802      -1.905  57.198 -15.541  0.00  0.00     0.076 H 
ATOM     48  H   SGN d 802      -0.271  60.797 -16.734  0.00  0.00     0.231 HD
ATOM     49  H   SGN d 802      -2.266  55.903 -13.459  0.00  0.00     0.091 H 
ATOM     50  H   SGN d 802       0.076  54.145 -14.147  0.00  0.00     0.090 H 
ATOM     51  H   SGN d 802      -0.946  55.756 -17.272  0.00  0.00     0.131 H 
ATOM     52  H   SGN d 802      -2.371  59.764 -16.164  0.00  0.00     0.231 HD
ATOM     53  H   SGN d 802       0.618  56.620 -14.002  0.00  0.00     0.089 H 
ATOM     54  O1  SGN d 804       7.714  51.432 -20.029  0.00  0.00    -0.369 OA
ATOM     55  C5  SGN d 804       6.967  54.086 -19.164  0.00  0.00     0.091 C 
ATOM     56  O6  SGN d 804       7.793  56.113 -18.133  0.00  0.00    -0.254 OA
ATOM     57  O6S SGN d 804       9.042  58.093 -16.882  0.00  0.00    -0.572 OA
ATOM     58  C1  SGN d 804       8.079  51.983 -18.763  0.00  0.00     0.147 C 
ATOM     59  N   SGN d 804       6.857  50.168 -17.680  0.00  0.00    -0.210 NA
ATOM     60  C4  SGN d 804       5.916  53.781 -18.097  0.00  0.00     0.095 C 
ATOM     61  O5S SGN d 804       6.919  58.608 -17.897  0.00  0.00    -0.572 OA
ATOM     62  O3S SGN d 804       9.310  49.911 -16.697  0.00  0.00    -0.296 OA
ATOM     63  S1  SGN d 804       8.148  49.100 -17.113  0.00  0.00     0.156 S 
ATOM     64  S2  SGN d 804       8.169  57.839 -18.044  0.00  0.00     0.251 S 
ATOM     65  O3  SGN d 804       4.776  51.958 -17.016  0.00  0.00    -0.391 OA
ATOM     66  O1S SGN d 804       8.545  48.192 -18.205  0.00  0.00    -0.296 OA
ATOM     67  O5  SGN d 804       8.193  53.414 -18.831  0.00  0.00    -0.350 OA
ATOM     68  C3  SGN d 804       5.714  52.271 -18.020  0.00  0.00     0.083 C 
ATOM     69  C6  SGN d 804       7.205  55.585 -19.321  0.00  0.00     0.067 C 
ATOM     70  O2S SGN d 804       7.667  48.306 -15.966  0.00  0.00    -0.296 OA
ATOM     71  C2  SGN d 804       7.046  51.606 -17.701  0.00  0.00     0.081 C 
ATOM     72  O4S SGN d 804       8.858  58.258 -19.278  0.00  0.00    -0.572 OA
ATOM     73  O4  SGN d 804       4.678  54.403 -18.449  0.00  0.00    -0.348 OA
ATOM     74  H   SGN d 804       7.644  50.467 -19.954  0.00  0.00     0.212 HD
ATOM     75  H   SGN d 804       6.602  53.728 -20.104  0.00  0.00     0.090 H 
ATOM     76  H   SGN d 804       9.033  51.577 -18.495  0.00  0.00     0.131 H 
ATOM     77  H   SGN d 804       6.646  49.888 -18.637  0.00  0.00     0.140 HD
ATOM     78  H   SGN d 804       6.244  54.157 -17.150  0.00  0.00     0.091 H 
ATOM     79  H   SGN d 804       9.626  50.432 -17.451  0.00  0.00     0.231 HD
ATOM     80  H   SGN d 804       3.927  52.382 -17.221  0.00  0.00     0.210 HD
ATOM     81  H   SGN d 804       8.861  48.712 -18.960  0.00  0.00     0.231 HD
ATOM     82  H   SGN d 804       5.346  51.915 -18.961  0.00  0.00     0.089 H 
ATOM     83  H   SGN d 804       6.271  56.075 -19.501  0.00  0.00     0.080 H 
ATOM     84  H   SGN d 804       7.867  55.751 -20.144  0.00  0.00     0.080 H 
ATOM     85  H   SGN d 804       7.405  48.902 -15.247  0.00  0.00     0.231 HD
ATOM     86  H   SGN d 804       7.399  51.935 -16.746  0.00  0.00     0.076 H 
ATOM     87  O5  UAP d 801      -2.722  56.423 -11.045  0.00  0.00    -0.311 OA
ATOM     88  O2  UAP d 801      -2.322  54.624  -8.880  0.00  0.00    -0.244 OA
ATOM     89  O1S UAP d 801      -3.387  52.982  -7.091  0.00  0.00    -0.572 OA
ATOM     90  O3S UAP d 801      -1.821  52.030  -8.654  0.00  0.00    -0.572 OA
ATOM     91  C1  UAP d 801      -1.859  55.289 -11.149  0.00  0.00     0.167 C 
ATOM     92  O2S UAP d 801      -1.036  53.448  -6.875  0.00  0.00    -0.572 OA
ATOM     93  C4  UAP d 801      -1.189  57.434  -9.556  0.00  0.00    -0.034 C 
ATOM     94  C3  UAP d 801      -0.524  56.191  -9.222  0.00  0.00     0.086 C 
ATOM     95  O62 UAP d 801      -3.757  58.776 -11.433  0.00  0.00    -0.642 OA
ATOM     96  S   UAP d 801      -2.133  53.213  -7.832  0.00  0.00     0.252 S 
ATOM     97  C6  UAP d 801      -2.786  58.698 -10.647  0.00  0.00     0.233 C 
ATOM     98  C2  UAP d 801      -1.274  54.985  -9.778  0.00  0.00     0.135 C 
ATOM     99  C5  UAP d 801      -2.224  57.509 -10.418  0.00  0.00     0.147 C 
ATOM    100  O61 UAP d 801      -2.341  59.713 -10.061  0.00  0.00    -0.642 OA
ATOM    101  O3  UAP d 801       0.800  56.213  -9.706  0.00  0.00    -0.389 OA
ATOM    102  H   UAP d 801      -2.437  54.461 -11.504  0.00  0.00     0.134 H 
ATOM    103  H   UAP d 801      -0.854  58.303  -9.112  0.00  0.00     0.085 H 
ATOM    104  H   UAP d 801      -0.512  56.098  -8.156  0.00  0.00     0.093 H 
ATOM    105  H   UAP d 801      -0.584  54.175  -9.880  0.00  0.00     0.097 H 
ATOM    106  H   UAP d 801       0.790  56.297 -10.672  0.00  0.00     0.210 HD
ENDROOT
TORSDOF 33
ENDMDL
MODEL 30
REMARK VINA RESULT:      -5.7      4.677     11.792
REMARK  0 active torsions:
REMARK  status: ('A' for Active; 'I' for Inactive)
REMARK       I    between atoms: C2_1  and  O2_62 
REMARK       I    between atoms: O3_2  and  C3_65 
REMARK       I    between atoms: O1_3  and  C1_15 
REMARK       I    between atoms: C5_5  and  C6_58 
REMARK       I    between atoms: C1_6  and  O4_70 
REMARK       I    between atoms: S_7  and  O2_62 
REMARK       I    between atoms: O2_9  and  C2_55 
REMARK       I    between atoms: O2_9  and  S_49 
REMARK       I    between atoms: O4_11  and  C1_28 
REMARK       I    between atoms: O4_11  and  C4_41 
REMARK       I    between atoms: O6_12  and  C6_58 
REMARK       I    between atoms: O6_12  and  S2_38 
REMARK       I    between atoms: S1_16  and  N_21 
REMARK       I    between atoms: S1_16  and  O1S_32 
REMARK       I    between atoms: S1_16  and  O2S_53 
REMARK       I    between atoms: S1_16  and  O3S_24 
REMARK       I    between atoms: N_18  and  C2_66 
REMARK       I    between atoms: N_18  and  S1_37 
REMARK       I    between atoms: C3_19  and  O3_27 
REMARK       I    between atoms: N_21  and  C2_31 
REMARK       I    between atoms: C4_22  and  O4_70 
REMARK       I    between atoms: C6_25  and  C5_46 
REMARK       I    between atoms: C6_25  and  O6_45 
REMARK       I    between atoms: O1_33  and  C1_51 
REMARK       I    between atoms: O1_33  and  C4_34 
REMARK       I    between atoms: O3S_35  and  S1_37 
REMARK       I    between atoms: S1_37  and  O1S_42 
REMARK       I    between atoms: S1_37  and  O2S_63 
REMARK       I    between atoms: O3_39  and  C3_54 
REMARK       I    between atoms: C6_40  and  C5_60 
REMARK       I    between atoms: C3_44  and  O3_64 
REMARK       I    between atoms: O6_45  and  S2_59 
REMARK       I    between atoms: C6_50  and  C5_56 
ROOT
ATOM      1  C2  IDS d 803      -3.559  53.667 -12.348  0.00  0.00     0.134 C 
ATOM      2  C1  IDS d 803      -4.319  53.566 -13.670  0.00  0.00     0.161 C 
ATOM      3  S   IDS d 803      -4.452  55.298 -10.306  0.00  0.00     0.252 S 
ATOM      4  O3S IDS d 803      -5.898  55.465 -10.550  0.00  0.00    -0.572 OA
ATOM      5  O5  IDS d 803      -3.626  54.306 -14.688  0.00  0.00    -0.340 OA
ATOM      6  C3  IDS d 803      -2.110  53.219 -12.533  0.00  0.00     0.094 C 
ATOM      7  O2S IDS d 803      -4.240  54.154  -9.398  0.00  0.00    -0.572 OA
ATOM      8  O3  IDS d 803      -2.041  51.839 -12.823  0.00  0.00    -0.390 OA
ATOM      9  C4  IDS d 803      -1.457  54.039 -13.645  0.00  0.00     0.103 C 
ATOM     10  C6  IDS d 803      -1.696  54.734 -16.031  0.00  0.00     0.206 C 
ATOM     11  O61 IDS d 803      -0.802  54.253 -16.761  0.00  0.00    -0.646 OA
ATOM     12  C5  IDS d 803      -2.278  53.869 -14.925  0.00  0.00     0.152 C 
ATOM     13  O2  IDS d 803      -3.623  54.997 -11.838  0.00  0.00    -0.244 OA
ATOM     14  O62 IDS d 803      -2.150  55.887 -16.193  0.00  0.00    -0.646 OA
ATOM     15  O1S IDS d 803      -3.913  56.524  -9.688  0.00  0.00    -0.572 OA
ATOM     16  H   IDS d 803      -4.021  53.016 -11.635  0.00  0.00     0.097 H 
ATOM     17  H   IDS d 803      -5.288  54.003 -13.550  0.00  0.00     0.133 H 
ATOM     18  H   IDS d 803      -1.578  53.385 -11.620  0.00  0.00     0.091 H 
ATOM     19  H   IDS d 803      -2.516  51.658 -13.650  0.00  0.00     0.210 HD
ATOM     20  H   IDS d 803      -0.455  53.699 -13.803  0.00  0.00     0.092 H 
ATOM     21  H   IDS d 803      -2.259  52.838 -15.211  0.00  0.00     0.104 H 
ATOM     22  O3  SGN d 802      -1.115  59.332 -11.735  0.00  0.00    -0.391 OA
ATOM     23  O4  SGN d 802      -0.613  59.700 -14.485  0.00  0.00    -0.348 OA
ATOM     24  S1  SGN d 802      -0.415  56.025  -9.294  0.00  0.00     0.156 S 
ATOM     25  O5S SGN d 802       5.017  58.495 -15.248  0.00  0.00    -0.572 OA
ATOM     26  N   SGN d 802      -1.176  56.677 -10.750  0.00  0.00    -0.210 NA
ATOM     27  O3S SGN d 802      -0.050  54.615  -9.525  0.00  0.00    -0.296 OA
ATOM     28  C6  SGN d 802       1.166  57.738 -15.773  0.00  0.00     0.067 C 
ATOM     29  O5  SGN d 802       0.681  56.309 -13.914  0.00  0.00    -0.349 OA
ATOM     30  C2  SGN d 802      -0.336  57.061 -11.865  0.00  0.00     0.081 C 
ATOM     31  O1S SGN d 802      -1.361  56.112  -8.167  0.00  0.00    -0.296 OA
ATOM     32  O1  SGN d 802      -1.421  55.421 -13.278  0.00  0.00    -0.348 OA
ATOM     33  C4  SGN d 802      -0.028  58.619 -13.757  0.00  0.00     0.095 C 
ATOM     34  O6  SGN d 802       2.432  57.958 -15.155  0.00  0.00    -0.254 OA
ATOM     35  C5  SGN d 802       0.160  57.409 -14.679  0.00  0.00     0.091 C 
ATOM     36  O4S SGN d 802       3.612  59.590 -16.876  0.00  0.00    -0.572 OA
ATOM     37  C1  SGN d 802      -0.148  55.885 -12.821  0.00  0.00     0.150 C 
ATOM     38  O6S SGN d 802       4.093  57.232 -17.082  0.00  0.00    -0.572 OA
ATOM     39  O2S SGN d 802       0.800  56.802  -8.981  0.00  0.00    -0.296 OA
ATOM     40  S2  SGN d 802       3.849  58.336 -16.133  0.00  0.00     0.251 S 
ATOM     41  C3  SGN d 802      -0.952  58.238 -12.609  0.00  0.00     0.083 C 
ATOM     42  H   SGN d 802      -1.705  59.080 -11.007  0.00  0.00     0.210 HD
ATOM     43  H   SGN d 802      -1.697  57.507 -10.469  0.00  0.00     0.140 HD
ATOM     44  H   SGN d 802      -0.849  54.104  -9.730  0.00  0.00     0.231 HD
ATOM     45  H   SGN d 802       0.859  58.619 -16.295  0.00  0.00     0.080 H 
ATOM     46  H   SGN d 802       1.230  56.932 -16.473  0.00  0.00     0.080 H 
ATOM     47  H   SGN d 802       0.620  57.351 -11.482  0.00  0.00     0.076 H 
ATOM     48  H   SGN d 802      -1.600  57.040  -8.016  0.00  0.00     0.231 HD
ATOM     49  H   SGN d 802       0.926  58.921 -13.377  0.00  0.00     0.091 H 
ATOM     50  H   SGN d 802      -0.784  57.157 -15.114  0.00  0.00     0.090 H 
ATOM     51  H   SGN d 802       0.333  55.069 -12.321  0.00  0.00     0.131 H 
ATOM     52  H   SGN d 802       0.560  57.729  -8.829  0.00  0.00     0.231 HD
ATOM     53  H   SGN d 802      -1.915  57.966 -12.990  0.00  0.00     0.089 H 
ATOM     54  O1  SGN d 804      -6.470  49.062 -16.673  0.00  0.00    -0.369 OA
ATOM     55  C5  SGN d 804      -6.529  50.897 -14.441  0.00  0.00     0.091 C 
ATOM     56  O6  SGN d 804      -7.973  52.301 -13.101  0.00  0.00    -0.254 OA
ATOM     57  O6S SGN d 804      -9.847  53.791 -11.953  0.00  0.00    -0.572 OA
ATOM     58  C1  SGN d 804      -7.162  50.313 -16.695  0.00  0.00     0.147 C 
ATOM     59  N   SGN d 804      -5.741  51.005 -18.556  0.00  0.00    -0.210 NA
ATOM     60  C4  SGN d 804      -5.629  52.026 -14.942  0.00  0.00     0.095 C 
ATOM     61  O5S SGN d 804      -7.768  53.540 -10.762  0.00  0.00    -0.572 OA
ATOM     62  O3S SGN d 804      -8.191  51.232 -19.554  0.00  0.00    -0.296 OA
ATOM     63  S1  SGN d 804      -6.817  50.866 -19.953  0.00  0.00     0.156 S 
ATOM     64  S2  SGN d 804      -8.758  52.855 -11.615  0.00  0.00     0.251 S 
ATOM     65  O3  SGN d 804      -4.285  52.694 -16.824  0.00  0.00    -0.391 OA
ATOM     66  O1S SGN d 804      -6.800  49.477 -20.447  0.00  0.00    -0.296 OA
ATOM     67  O5  SGN d 804      -7.599  50.688 -15.379  0.00  0.00    -0.350 OA
ATOM     68  C3  SGN d 804      -5.090  51.653 -16.320  0.00  0.00     0.083 C 
ATOM     69  C6  SGN d 804      -7.087  51.185 -13.051  0.00  0.00     0.067 C 
ATOM     70  O2S SGN d 804      -6.359  51.772 -21.024  0.00  0.00    -0.296 OA
ATOM     71  C2  SGN d 804      -6.260  51.409 -17.264  0.00  0.00     0.081 C 
ATOM     72  O4S SGN d 804      -9.311  51.698 -10.889  0.00  0.00    -0.572 OA
ATOM     73  O4  SGN d 804      -4.534  52.203 -14.042  0.00  0.00    -0.348 OA
ATOM     74  H   SGN d 804      -6.187  48.834 -17.573  0.00  0.00     0.212 HD
ATOM     75  H   SGN d 804      -5.938  50.008 -14.364  0.00  0.00     0.090 H 
ATOM     76  H   SGN d 804      -8.022  50.196 -17.321  0.00  0.00     0.131 H 
ATOM     77  H   SGN d 804      -5.313  50.089 -18.426  0.00  0.00     0.140 HD
ATOM     78  H   SGN d 804      -6.190  52.935 -15.001  0.00  0.00     0.091 H 
ATOM     79  H   SGN d 804      -8.492  50.636 -18.850  0.00  0.00     0.231 HD
ATOM     80  H   SGN d 804      -3.539  52.848 -16.222  0.00  0.00     0.210 HD
ATOM     81  H   SGN d 804      -7.101  48.880 -19.743  0.00  0.00     0.231 HD
ATOM     82  H   SGN d 804      -4.497  50.765 -16.239  0.00  0.00     0.089 H 
ATOM     83  H   SGN d 804      -6.280  51.403 -12.384  0.00  0.00     0.080 H 
ATOM     84  H   SGN d 804      -7.623  50.327 -12.703  0.00  0.00     0.080 H 
ATOM     85  H   SGN d 804      -6.370  52.687 -20.701  0.00  0.00     0.231 HD
ATOM     86  H   SGN d 804      -6.835  52.305 -17.371  0.00  0.00     0.076 H 
ATOM     87  O5  UAP d 801       0.837  61.407 -13.716  0.00  0.00    -0.311 OA
ATOM     88  O2  UAP d 801       0.521  62.705 -16.225  0.00  0.00    -0.244 OA
ATOM     89  O1S UAP d 801       1.633  64.062 -18.215  0.00  0.00    -0.572 OA
ATOM     90  O3S UAP d 801       0.620  61.948 -18.765  0.00  0.00    -0.572 OA
ATOM     91  C1  UAP d 801       0.298  60.736 -14.857  0.00  0.00     0.167 C 
ATOM     92  O2S UAP d 801      -0.764  63.848 -18.250  0.00  0.00    -0.572 OA
ATOM     93  C4  UAP d 801      -1.118  62.731 -13.590  0.00  0.00    -0.034 C 
ATOM     94  C3  UAP d 801      -1.515  62.472 -14.958  0.00  0.00     0.086 C 
ATOM     95  O62 UAP d 801       1.334  62.066 -11.251  0.00  0.00    -0.642 OA
ATOM     96  S   UAP d 801       0.501  63.160 -17.934  0.00  0.00     0.252 S 
ATOM     97  C6  UAP d 801       0.292  62.527 -11.771  0.00  0.00     0.233 C 
ATOM     98  C2  UAP d 801      -0.418  61.751 -15.735  0.00  0.00     0.135 C 
ATOM     99  C5  UAP d 801      -0.002  62.215 -13.034  0.00  0.00     0.147 C 
ATOM    100  O61 UAP d 801      -0.472  63.287 -11.130  0.00  0.00    -0.642 OA
ATOM    101  O3  UAP d 801      -2.707  61.718 -14.976  0.00  0.00    -0.389 OA
ATOM    102  H   UAP d 801       1.107  60.280 -15.389  0.00  0.00     0.134 H 
ATOM    103  H   UAP d 801      -1.718  63.339 -13.012  0.00  0.00     0.085 H 
ATOM    104  H   UAP d 801      -1.682  63.414 -15.438  0.00  0.00     0.093 H 
ATOM    105  H   UAP d 801      -0.870  61.228 -16.551  0.00  0.00     0.097 H 
ATOM    106  H   UAP d 801      -2.556  60.865 -14.541  0.00  0.00     0.210 HD
ENDROOT
TORSDOF 33
ENDMDL
MODEL 31
REMARK VINA RESULT:      -5.7      3.414     11.859
REMARK  0 active torsions:
REMARK  status: ('A' for Active; 'I' for Inactive)
REMARK       I    between atoms: C2_1  and  O2_62 
REMARK       I    between atoms: O3_2  and  C3_65 
REMARK       I    between atoms: O1_3  and  C1_15 
REMARK       I    between atoms: C5_5  and  C6_58 
REMARK       I    between atoms: C1_6  and  O4_70 
REMARK       I    between atoms: S_7  and  O2_62 
REMARK       I    between atoms: O2_9  and  C2_55 
REMARK       I    between atoms: O2_9  and  S_49 
REMARK       I    between atoms: O4_11  and  C1_28 
REMARK       I    between atoms: O4_11  and  C4_41 
REMARK       I    between atoms: O6_12  and  C6_58 
REMARK       I    between atoms: O6_12  and  S2_38 
REMARK       I    between atoms: S1_16  and  N_21 
REMARK       I    between atoms: S1_16  and  O1S_32 
REMARK       I    between atoms: S1_16  and  O2S_53 
REMARK       I    between atoms: S1_16  and  O3S_24 
REMARK       I    between atoms: N_18  and  C2_66 
REMARK       I    between atoms: N_18  and  S1_37 
REMARK       I    between atoms: C3_19  and  O3_27 
REMARK       I    between atoms: N_21  and  C2_31 
REMARK       I    between atoms: C4_22  and  O4_70 
REMARK       I    between atoms: C6_25  and  C5_46 
REMARK       I    between atoms: C6_25  and  O6_45 
REMARK       I    between atoms: O1_33  and  C1_51 
REMARK       I    between atoms: O1_33  and  C4_34 
REMARK       I    between atoms: O3S_35  and  S1_37 
REMARK       I    between atoms: S1_37  and  O1S_42 
REMARK       I    between atoms: S1_37  and  O2S_63 
REMARK       I    between atoms: O3_39  and  C3_54 
REMARK       I    between atoms: C6_40  and  C5_60 
REMARK       I    between atoms: C3_44  and  O3_64 
REMARK       I    between atoms: O6_45  and  S2_59 
REMARK       I    between atoms: C6_50  and  C5_56 
ROOT
ATOM      1  C2  IDS d 803      -3.826  50.474 -11.654  0.00  0.00     0.134 C 
ATOM      2  C1  IDS d 803      -4.546  50.720 -12.980  0.00  0.00     0.161 C 
ATOM      3  S   IDS d 803      -3.639  52.456  -9.739  0.00  0.00     0.252 S 
ATOM      4  O3S IDS d 803      -4.765  53.369 -10.019  0.00  0.00    -0.572 OA
ATOM      5  O5  IDS d 803      -3.584  50.894 -14.032  0.00  0.00    -0.340 OA
ATOM      6  C3  IDS d 803      -2.860  49.297 -11.785  0.00  0.00     0.094 C 
ATOM      7  O2S IDS d 803      -4.066  51.443  -8.755  0.00  0.00    -0.572 OA
ATOM      8  O3  IDS d 803      -3.562  48.088 -11.982  0.00  0.00    -0.390 OA
ATOM      9  C4  IDS d 803      -1.890  49.554 -12.938  0.00  0.00     0.103 C 
ATOM     10  C6  IDS d 803      -1.764  50.112 -15.368  0.00  0.00     0.206 C 
ATOM     11  O61 IDS d 803      -1.293  49.175 -16.049  0.00  0.00    -0.646 OA
ATOM     12  C5  IDS d 803      -2.699  49.778 -14.217  0.00  0.00     0.152 C 
ATOM     13  O2  IDS d 803      -3.142  51.653 -11.234  0.00  0.00    -0.244 OA
ATOM     14  O62 IDS d 803      -1.518  51.313 -15.613  0.00  0.00    -0.646 OA
ATOM     15  O1S IDS d 803      -2.506  53.226  -9.195  0.00  0.00    -0.572 OA
ATOM     16  H   IDS d 803      -4.552  50.228 -10.908  0.00  0.00     0.097 H 
ATOM     17  H   IDS d 803      -5.118  51.621 -12.905  0.00  0.00     0.133 H 
ATOM     18  H   IDS d 803      -2.304  49.204 -10.876  0.00  0.00     0.091 H 
ATOM     19  H   IDS d 803      -4.077  48.143 -12.803  0.00  0.00     0.210 HD
ATOM     20  H   IDS d 803      -1.240  48.713 -13.056  0.00  0.00     0.092 H 
ATOM     21  H   IDS d 803      -3.252  48.888 -14.434  0.00  0.00     0.104 H 
ATOM     22  O3  SGN d 802       1.326  53.913 -11.375  0.00  0.00    -0.391 OA
ATOM     23  O4  SGN d 802       1.886  53.769 -14.135  0.00  0.00    -0.348 OA
ATOM     24  S1  SGN d 802       0.161  50.925  -8.710  0.00  0.00     0.156 S 
ATOM     25  O5S SGN d 802       5.929  49.640 -14.721  0.00  0.00    -0.572 OA
ATOM     26  N   SGN d 802      -0.152  51.791 -10.218  0.00  0.00    -0.210 NA
ATOM     27  O3S SGN d 802      -0.308  49.533  -8.841  0.00  0.00    -0.296 OA
ATOM     28  C6  SGN d 802       2.278  51.076 -15.259  0.00  0.00     0.067 C 
ATOM     29  O5  SGN d 802       1.133  50.267 -13.319  0.00  0.00    -0.349 OA
ATOM     30  C2  SGN d 802       0.736  51.582 -11.342  0.00  0.00     0.081 C 
ATOM     31  O1S SGN d 802      -0.559  51.587  -7.607  0.00  0.00    -0.296 OA
ATOM     32  O1  SGN d 802      -1.099  50.713 -12.662  0.00  0.00    -0.348 OA
ATOM     33  C4  SGN d 802       1.803  52.593 -13.327  0.00  0.00     0.095 C 
ATOM     34  O6  SGN d 802       3.473  50.609 -14.637  0.00  0.00    -0.254 OA
ATOM     35  C5  SGN d 802       1.281  51.421 -14.164  0.00  0.00     0.091 C 
ATOM     36  O4S SGN d 802       5.314  51.217 -16.441  0.00  0.00    -0.572 OA
ATOM     37  C1  SGN d 802       0.231  50.435 -12.215  0.00  0.00     0.150 C 
ATOM     38  O6S SGN d 802       4.426  48.971 -16.483  0.00  0.00    -0.572 OA
ATOM     39  O2S SGN d 802       1.610  50.931  -8.428  0.00  0.00    -0.296 OA
ATOM     40  S2  SGN d 802       4.844  50.088 -15.614  0.00  0.00     0.251 S 
ATOM     41  C3  SGN d 802       0.846  52.854 -12.172  0.00  0.00     0.083 C 
ATOM     42  H   SGN d 802       0.710  54.071 -10.642  0.00  0.00     0.210 HD
ATOM     43  H   SGN d 802      -0.130  52.787 -10.001  0.00  0.00     0.140 HD
ATOM     44  H   SGN d 802      -1.260  49.529  -9.025  0.00  0.00     0.231 HD
ATOM     45  H   SGN d 802       2.491  51.946 -15.845  0.00  0.00     0.080 H 
ATOM     46  H   SGN d 802       1.877  50.323 -15.904  0.00  0.00     0.080 H 
ATOM     47  H   SGN d 802       1.704  51.328 -10.963  0.00  0.00     0.076 H 
ATOM     48  H   SGN d 802      -0.250  52.502  -7.522  0.00  0.00     0.231 HD
ATOM     49  H   SGN d 802       2.775  52.350 -12.951  0.00  0.00     0.091 H 
ATOM     50  H   SGN d 802       0.343  51.697 -14.597  0.00  0.00     0.090 H 
ATOM     51  H   SGN d 802       0.200  49.523 -11.655  0.00  0.00     0.131 H 
ATOM     52  H   SGN d 802       1.918  51.847  -8.342  0.00  0.00     0.231 HD
ATOM     53  H   SGN d 802      -0.117  53.127 -12.551  0.00  0.00     0.089 H 
ATOM     54  O1  SGN d 804      -8.872  47.938 -15.715  0.00  0.00    -0.369 OA
ATOM     55  C5  SGN d 804      -7.872  49.646 -13.610  0.00  0.00     0.091 C 
ATOM     56  O6  SGN d 804      -8.285  51.694 -12.390  0.00  0.00    -0.254 OA
ATOM     57  O6S SGN d 804      -9.017  54.035 -11.375  0.00  0.00    -0.572 OA
ATOM     58  C1  SGN d 804      -8.769  49.358 -15.831  0.00  0.00     0.147 C 
ATOM     59  N   SGN d 804      -7.242  49.041 -17.710  0.00  0.00    -0.210 NA
ATOM     60  C4  SGN d 804      -6.512  50.066 -14.169  0.00  0.00     0.095 C 
ATOM     61  O5S SGN d 804      -7.387  52.767 -10.135  0.00  0.00    -0.572 OA
ATOM     62  O3S SGN d 804      -9.193  50.503 -18.761  0.00  0.00    -0.296 OA
ATOM     63  S1  SGN d 804      -8.250  49.422 -19.112  0.00  0.00     0.156 S 
ATOM     64  S2  SGN d 804      -8.608  52.681 -10.958  0.00  0.00     0.251 S 
ATOM     65  O3  SGN d 804      -5.062  49.769 -16.068  0.00  0.00    -0.391 OA
ATOM     66  O1S SGN d 804      -9.005  48.220 -19.513  0.00  0.00    -0.296 OA
ATOM     67  O5  SGN d 804      -8.902  49.995 -14.550  0.00  0.00    -0.350 OA
ATOM     68  C3  SGN d 804      -6.294  49.371 -15.510  0.00  0.00     0.083 C 
ATOM     69  C6  SGN d 804      -8.151  50.281 -12.251  0.00  0.00     0.067 C 
ATOM     70  O2S SGN d 804      -7.396  49.860 -20.233  0.00  0.00    -0.296 OA
ATOM     71  C2  SGN d 804      -7.428  49.745 -16.455  0.00  0.00     0.081 C 
ATOM     72  O4S SGN d 804      -9.687  52.062 -10.166  0.00  0.00    -0.572 OA
ATOM     73  O4  SGN d 804      -5.478  49.674 -13.264  0.00  0.00    -0.348 OA
ATOM     74  H   SGN d 804      -8.779  47.534 -16.592  0.00  0.00     0.212 HD
ATOM     75  H   SGN d 804      -7.860  48.586 -13.464  0.00  0.00     0.090 H 
ATOM     76  H   SGN d 804      -9.567  49.690 -16.462  0.00  0.00     0.131 H 
ATOM     77  H   SGN d 804      -7.380  48.051 -17.512  0.00  0.00     0.140 HD
ATOM     78  H   SGN d 804      -6.487  51.128 -14.297  0.00  0.00     0.091 H 
ATOM     79  H   SGN d 804      -9.755  50.215 -18.025  0.00  0.00     0.231 HD
ATOM     80  H   SGN d 804      -4.341  49.530 -15.465  0.00  0.00     0.210 HD
ATOM     81  H   SGN d 804      -9.567  47.931 -18.777  0.00  0.00     0.231 HD
ATOM     82  H   SGN d 804      -6.280  48.311 -15.361  0.00  0.00     0.089 H 
ATOM     83  H   SGN d 804      -7.341  50.065 -11.587  0.00  0.00     0.080 H 
ATOM     84  H   SGN d 804      -9.061  49.879 -11.857  0.00  0.00     0.080 H 
ATOM     85  H   SGN d 804      -6.899  50.651 -19.971  0.00  0.00     0.231 HD
ATOM     86  H   SGN d 804      -7.424  50.800 -16.631  0.00  0.00     0.076 H 
ATOM     87  O5  UAP d 801       4.050  54.453 -13.456  0.00  0.00    -0.311 OA
ATOM     88  O2  UAP d 801       4.439  55.549 -16.050  0.00  0.00    -0.244 OA
ATOM     89  O1S UAP d 801       6.067  55.947 -18.105  0.00  0.00    -0.572 OA
ATOM     90  O3S UAP d 801       4.052  54.698 -18.532  0.00  0.00    -0.572 OA
ATOM     91  C1  UAP d 801       3.207  54.113 -14.558  0.00  0.00     0.167 C 
ATOM     92  O2S UAP d 801       3.941  57.074 -18.167  0.00  0.00    -0.572 OA
ATOM     93  C4  UAP d 801       3.137  56.634 -13.450  0.00  0.00    -0.034 C 
ATOM     94  C3  UAP d 801       2.634  56.547 -14.804  0.00  0.00     0.086 C 
ATOM     95  O62 UAP d 801       4.880  54.892 -11.031  0.00  0.00    -0.642 OA
ATOM     96  S   UAP d 801       4.632  55.829 -17.785  0.00  0.00     0.252 S 
ATOM     97  C6  UAP d 801       4.247  55.813 -11.597  0.00  0.00     0.233 C 
ATOM     98  C2  UAP d 801       3.141  55.295 -15.513  0.00  0.00     0.135 C 
ATOM     99  C5  UAP d 801       3.803  55.630 -12.842  0.00  0.00     0.147 C 
ATOM    100  O61 UAP d 801       4.035  56.905 -11.021  0.00  0.00    -0.642 OA
ATOM    101  O3  UAP d 801       1.223  56.566 -14.793  0.00  0.00    -0.389 OA
ATOM    102  H   UAP d 801       3.625  53.257 -15.045  0.00  0.00     0.134 H 
ATOM    103  H   UAP d 801       2.979  57.508 -12.923  0.00  0.00     0.085 H 
ATOM    104  H   UAP d 801       2.997  57.394 -15.348  0.00  0.00     0.093 H 
ATOM    105  H   UAP d 801       2.460  55.052 -16.301  0.00  0.00     0.097 H 
ATOM    106  H   UAP d 801       0.894  55.799 -14.300  0.00  0.00     0.210 HD
ENDROOT
TORSDOF 33
ENDMDL
MODEL 32
REMARK VINA RESULT:      -5.7      3.091      4.184
REMARK  0 active torsions:
REMARK  status: ('A' for Active; 'I' for Inactive)
REMARK       I    between atoms: C2_1  and  O2_62 
REMARK       I    between atoms: O3_2  and  C3_65 
REMARK       I    between atoms: O1_3  and  C1_15 
REMARK       I    between atoms: C5_5  and  C6_58 
REMARK       I    between atoms: C1_6  and  O4_70 
REMARK       I    between atoms: S_7  and  O2_62 
REMARK       I    between atoms: O2_9  and  C2_55 
REMARK       I    between atoms: O2_9  and  S_49 
REMARK       I    between atoms: O4_11  and  C1_28 
REMARK       I    between atoms: O4_11  and  C4_41 
REMARK       I    between atoms: O6_12  and  C6_58 
REMARK       I    between atoms: O6_12  and  S2_38 
REMARK       I    between atoms: S1_16  and  N_21 
REMARK       I    between atoms: S1_16  and  O1S_32 
REMARK       I    between atoms: S1_16  and  O2S_53 
REMARK       I    between atoms: S1_16  and  O3S_24 
REMARK       I    between atoms: N_18  and  C2_66 
REMARK       I    between atoms: N_18  and  S1_37 
REMARK       I    between atoms: C3_19  and  O3_27 
REMARK       I    between atoms: N_21  and  C2_31 
REMARK       I    between atoms: C4_22  and  O4_70 
REMARK       I    between atoms: C6_25  and  C5_46 
REMARK       I    between atoms: C6_25  and  O6_45 
REMARK       I    between atoms: O1_33  and  C1_51 
REMARK       I    between atoms: O1_33  and  C4_34 
REMARK       I    between atoms: O3S_35  and  S1_37 
REMARK       I    between atoms: S1_37  and  O1S_42 
REMARK       I    between atoms: S1_37  and  O2S_63 
REMARK       I    between atoms: O3_39  and  C3_54 
REMARK       I    between atoms: C6_40  and  C5_60 
REMARK       I    between atoms: C3_44  and  O3_64 
REMARK       I    between atoms: O6_45  and  S2_59 
REMARK       I    between atoms: C6_50  and  C5_56 
ROOT
ATOM      1  C2  IDS d 803       2.998  54.608 -14.455  0.00  0.00     0.134 C 
ATOM      2  C1  IDS d 803       3.708  55.554 -15.424  0.00  0.00     0.161 C 
ATOM      3  S   IDS d 803       1.956  52.199 -15.314  0.00  0.00     0.252 S 
ATOM      4  O3S IDS d 803       2.714  51.864 -16.535  0.00  0.00    -0.572 OA
ATOM      5  O5  IDS d 803       2.848  56.659 -15.745  0.00  0.00    -0.340 OA
ATOM      6  C3  IDS d 803       2.518  55.373 -13.222  0.00  0.00     0.094 C 
ATOM      7  O2S IDS d 803       2.614  51.582 -14.147  0.00  0.00    -0.572 OA
ATOM      8  O3  IDS d 803       3.611  55.833 -12.456  0.00  0.00    -0.390 OA
ATOM      9  C4  IDS d 803       1.631  56.540 -13.654  0.00  0.00     0.103 C 
ATOM     10  C6  IDS d 803       1.545  58.562 -15.118  0.00  0.00     0.206 C 
ATOM     11  O61 IDS d 803       1.496  59.624 -14.461  0.00  0.00    -0.646 OA
ATOM     12  C5  IDS d 803       2.427  57.432 -14.610  0.00  0.00     0.152 C 
ATOM     13  O2  IDS d 803       1.910  53.954 -15.106  0.00  0.00    -0.244 OA
ATOM     14  O62 IDS d 803       0.922  58.401 -16.189  0.00  0.00    -0.646 OA
ATOM     15  O1S IDS d 803       0.579  51.683 -15.434  0.00  0.00    -0.572 OA
ATOM     16  H   IDS d 803       3.691  53.859 -14.134  0.00  0.00     0.097 H 
ATOM     17  H   IDS d 803       3.920  55.029 -16.331  0.00  0.00     0.133 H 
ATOM     18  H   IDS d 803       1.947  54.711 -12.606  0.00  0.00     0.091 H 
ATOM     19  H   IDS d 803       4.149  56.438 -12.991  0.00  0.00     0.210 HD
ATOM     20  H   IDS d 803       1.328  57.100 -12.795  0.00  0.00     0.092 H 
ATOM     21  H   IDS d 803       3.272  57.827 -14.086  0.00  0.00     0.104 H 
ATOM     22  O3  SGN d 802      -3.031  54.268 -15.865  0.00  0.00    -0.391 OA
ATOM     23  O4  SGN d 802      -3.247  56.941 -16.739  0.00  0.00    -0.348 OA
ATOM     24  S1  SGN d 802      -1.154  52.685 -12.496  0.00  0.00     0.156 S 
ATOM     25  O5S SGN d 802      -5.528  59.888 -12.283  0.00  0.00    -0.572 OA
ATOM     26  N   SGN d 802      -1.022  53.662 -13.963  0.00  0.00    -0.210 NA
ATOM     27  O3S SGN d 802      -0.220  53.204 -11.479  0.00  0.00    -0.296 OA
ATOM     28  C6  SGN d 802      -2.571  59.026 -14.772  0.00  0.00     0.067 C 
ATOM     29  O5  SGN d 802      -1.402  57.309 -13.583  0.00  0.00    -0.349 OA
ATOM     30  C2  SGN d 802      -1.673  54.954 -14.003  0.00  0.00     0.081 C 
ATOM     31  O1S SGN d 802      -0.815  51.285 -12.808  0.00  0.00    -0.296 OA
ATOM     32  O1  SGN d 802       0.464  56.048 -14.319  0.00  0.00    -0.348 OA
ATOM     33  C4  SGN d 802      -2.835  56.621 -15.408  0.00  0.00     0.095 C 
ATOM     34  O6  SGN d 802      -3.581  58.903 -13.774  0.00  0.00    -0.254 OA
ATOM     35  C5  SGN d 802      -1.862  57.685 -14.891  0.00  0.00     0.091 C 
ATOM     36  O4S SGN d 802      -5.342  60.729 -14.538  0.00  0.00    -0.572 OA
ATOM     37  C1  SGN d 802      -0.722  56.046 -13.519  0.00  0.00     0.150 C 
ATOM     38  O6S SGN d 802      -3.729  61.384 -12.864  0.00  0.00    -0.572 OA
ATOM     39  O2S SGN d 802      -2.534  52.756 -11.977  0.00  0.00    -0.296 OA
ATOM     40  S2  SGN d 802      -4.588  60.286 -13.348  0.00  0.00     0.251 S 
ATOM     41  C3  SGN d 802      -2.141  55.266 -15.418  0.00  0.00     0.083 C 
ATOM     42  H   SGN d 802      -2.580  53.409 -15.868  0.00  0.00     0.210 HD
ATOM     43  H   SGN d 802      -1.409  53.108 -14.726  0.00  0.00     0.140 HD
ATOM     44  H   SGN d 802       0.686  53.157 -11.820  0.00  0.00     0.231 HD
ATOM     45  H   SGN d 802      -3.017  59.286 -15.710  0.00  0.00     0.080 H 
ATOM     46  H   SGN d 802      -1.874  59.792 -14.504  0.00  0.00     0.080 H 
ATOM     47  H   SGN d 802      -2.523  54.923 -13.354  0.00  0.00     0.076 H 
ATOM     48  H   SGN d 802      -1.430  50.944 -13.476  0.00  0.00     0.231 HD
ATOM     49  H   SGN d 802      -3.692  56.589 -14.768  0.00  0.00     0.091 H 
ATOM     50  H   SGN d 802      -1.043  57.764 -15.575  0.00  0.00     0.090 H 
ATOM     51  H   SGN d 802      -0.428  55.865 -12.506  0.00  0.00     0.131 H 
ATOM     52  H   SGN d 802      -3.148  52.414 -12.646  0.00  0.00     0.231 HD
ATOM     53  H   SGN d 802      -1.302  55.291 -16.083  0.00  0.00     0.089 H 
ATOM     54  O1  SGN d 804       8.965  58.061 -15.376  0.00  0.00    -0.369 OA
ATOM     55  C5  SGN d 804       7.242  55.762 -15.692  0.00  0.00     0.091 C 
ATOM     56  O6  SGN d 804       6.802  53.821 -17.066  0.00  0.00    -0.254 OA
ATOM     57  O6S SGN d 804       6.576  51.886 -18.870  0.00  0.00    -0.572 OA
ATOM     58  C1  SGN d 804       8.387  57.671 -16.623  0.00  0.00     0.147 C 
ATOM     59  N   SGN d 804       7.247  59.829 -16.707  0.00  0.00    -0.210 NA
ATOM     60  C4  SGN d 804       5.880  56.422 -15.907  0.00  0.00     0.095 C 
ATOM     61  O5S SGN d 804       5.380  51.596 -16.798  0.00  0.00    -0.572 OA
ATOM     62  O3S SGN d 804       8.657  59.806 -18.957  0.00  0.00    -0.296 OA
ATOM     63  S1  SGN d 804       8.186  60.730 -17.906  0.00  0.00     0.156 S 
ATOM     64  S2  SGN d 804       6.626  52.095 -17.410  0.00  0.00     0.251 S 
ATOM     65  O3  SGN d 804       4.808  58.574 -16.039  0.00  0.00    -0.391 OA
ATOM     66  O1S SGN d 804       9.345  61.359 -17.246  0.00  0.00    -0.296 OA
ATOM     67  O5  SGN d 804       8.169  56.252 -16.675  0.00  0.00    -0.350 OA
ATOM     68  C3  SGN d 804       6.043  57.936 -15.806  0.00  0.00     0.083 C 
ATOM     69  C6  SGN d 804       7.156  54.240 -15.750  0.00  0.00     0.067 C 
ATOM     70  O2S SGN d 804       7.341  61.776 -18.513  0.00  0.00    -0.296 OA
ATOM     71  C2  SGN d 804       7.059  58.397 -16.843  0.00  0.00     0.081 C 
ATOM     72  O4S SGN d 804       7.775  51.361 -16.847  0.00  0.00    -0.572 OA
ATOM     73  O4  SGN d 804       4.967  55.981 -14.900  0.00  0.00    -0.348 OA
ATOM     74  H   SGN d 804       9.101  59.021 -15.368  0.00  0.00     0.212 HD
ATOM     75  H   SGN d 804       7.586  56.019 -14.711  0.00  0.00     0.090 H 
ATOM     76  H   SGN d 804       9.075  57.940 -17.398  0.00  0.00     0.131 H 
ATOM     77  H   SGN d 804       7.702  59.980 -15.807  0.00  0.00     0.140 HD
ATOM     78  H   SGN d 804       5.499  56.157 -16.871  0.00  0.00     0.091 H 
ATOM     79  H   SGN d 804       9.212  59.118 -18.558  0.00  0.00     0.231 HD
ATOM     80  H   SGN d 804       4.162  58.279 -15.378  0.00  0.00     0.210 HD
ATOM     81  H   SGN d 804       9.902  60.672 -16.846  0.00  0.00     0.231 HD
ATOM     82  H   SGN d 804       6.385  58.190 -14.824  0.00  0.00     0.089 H 
ATOM     83  H   SGN d 804       6.413  53.901 -15.059  0.00  0.00     0.080 H 
ATOM     84  H   SGN d 804       8.108  53.825 -15.493  0.00  0.00     0.080 H 
ATOM     85  H   SGN d 804       6.578  61.363 -18.948  0.00  0.00     0.231 HD
ATOM     86  H   SGN d 804       6.704  58.173 -17.827  0.00  0.00     0.076 H 
ATOM     87  O5  UAP d 801      -5.566  56.567 -16.439  0.00  0.00    -0.311 OA
ATOM     88  O2  UAP d 801      -6.068  58.600 -18.362  0.00  0.00    -0.244 OA
ATOM     89  O1S UAP d 801      -7.534  60.680 -19.110  0.00  0.00    -0.572 OA
ATOM     90  O3S UAP d 801      -5.180  61.065 -18.774  0.00  0.00    -0.572 OA
ATOM     91  C1  UAP d 801      -4.559  57.497 -16.843  0.00  0.00     0.167 C 
ATOM     92  O2S UAP d 801      -5.936  59.845 -20.705  0.00  0.00    -0.572 OA
ATOM     93  C4  UAP d 801      -5.473  55.561 -18.577  0.00  0.00    -0.034 C 
ATOM     94  C3  UAP d 801      -4.847  56.703 -19.209  0.00  0.00     0.086 C 
ATOM     95  O62 UAP d 801      -6.719  54.405 -15.572  0.00  0.00    -0.642 OA
ATOM     96  S   UAP d 801      -6.184  60.109 -19.276  0.00  0.00     0.252 S 
ATOM     97  C6  UAP d 801      -6.396  54.438 -16.781  0.00  0.00     0.233 C 
ATOM     98  C2  UAP d 801      -4.820  57.914 -18.282  0.00  0.00     0.135 C 
ATOM     99  C5  UAP d 801      -5.802  55.529 -17.269  0.00  0.00     0.147 C 
ATOM    100  O61 UAP d 801      -6.632  53.471 -17.544  0.00  0.00    -0.642 OA
ATOM    101  O3  UAP d 801      -3.539  56.367 -19.616  0.00  0.00    -0.389 OA
ATOM    102  H   UAP d 801      -4.605  58.343 -16.190  0.00  0.00     0.134 H 
ATOM    103  H   UAP d 801      -5.678  54.732 -19.156  0.00  0.00     0.085 H 
ATOM    104  H   UAP d 801      -5.430  56.969 -20.067  0.00  0.00     0.093 H 
ATOM    105  H   UAP d 801      -4.026  58.560 -18.593  0.00  0.00     0.097 H 
ATOM    106  H   UAP d 801      -3.010  56.127 -18.840  0.00  0.00     0.210 HD
ENDROOT
TORSDOF 33
ENDMDL
MODEL 33
REMARK VINA RESULT:      -5.7      4.548      9.315
REMARK  0 active torsions:
REMARK  status: ('A' for Active; 'I' for Inactive)
REMARK       I    between atoms: C2_1  and  O2_62 
REMARK       I    between atoms: O3_2  and  C3_65 
REMARK       I    between atoms: O1_3  and  C1_15 
REMARK       I    between atoms: C5_5  and  C6_58 
REMARK       I    between atoms: C1_6  and  O4_70 
REMARK       I    between atoms: S_7  and  O2_62 
REMARK       I    between atoms: O2_9  and  C2_55 
REMARK       I    between atoms: O2_9  and  S_49 
REMARK       I    between atoms: O4_11  and  C1_28 
REMARK       I    between atoms: O4_11  and  C4_41 
REMARK       I    between atoms: O6_12  and  C6_58 
REMARK       I    between atoms: O6_12  and  S2_38 
REMARK       I    between atoms: S1_16  and  N_21 
REMARK       I    between atoms: S1_16  and  O1S_32 
REMARK       I    between atoms: S1_16  and  O2S_53 
REMARK       I    between atoms: S1_16  and  O3S_24 
REMARK       I    between atoms: N_18  and  C2_66 
REMARK       I    between atoms: N_18  and  S1_37 
REMARK       I    between atoms: C3_19  and  O3_27 
REMARK       I    between atoms: N_21  and  C2_31 
REMARK       I    between atoms: C4_22  and  O4_70 
REMARK       I    between atoms: C6_25  and  C5_46 
REMARK       I    between atoms: C6_25  and  O6_45 
REMARK       I    between atoms: O1_33  and  C1_51 
REMARK       I    between atoms: O1_33  and  C4_34 
REMARK       I    between atoms: O3S_35  and  S1_37 
REMARK       I    between atoms: S1_37  and  O1S_42 
REMARK       I    between atoms: S1_37  and  O2S_63 
REMARK       I    between atoms: O3_39  and  C3_54 
REMARK       I    between atoms: C6_40  and  C5_60 
REMARK       I    between atoms: C3_44  and  O3_64 
REMARK       I    between atoms: O6_45  and  S2_59 
REMARK       I    between atoms: C6_50  and  C5_56 
ROOT
ATOM      1  C2  IDS d 803       3.421  60.503 -17.974  0.00  0.00     0.134 C 
ATOM      2  C1  IDS d 803       4.554  59.602 -17.484  0.00  0.00     0.161 C 
ATOM      3  S   IDS d 803       3.142  63.087 -17.039  0.00  0.00     0.252 S 
ATOM      4  O3S IDS d 803       4.487  63.474 -16.570  0.00  0.00    -0.572 OA
ATOM      5  O5  IDS d 803       4.041  58.634 -16.555  0.00  0.00    -0.340 OA
ATOM      6  C3  IDS d 803       2.285  59.660 -18.553  0.00  0.00     0.094 C 
ATOM      7  O2S IDS d 803       2.979  63.500 -18.446  0.00  0.00    -0.572 OA
ATOM      8  O3  IDS d 803       2.692  59.008 -19.737  0.00  0.00    -0.390 OA
ATOM      9  C4  IDS d 803       1.815  58.646 -17.510  0.00  0.00     0.103 C 
ATOM     10  C6  IDS d 803       2.592  56.818 -15.997  0.00  0.00     0.206 C 
ATOM     11  O61 IDS d 803       2.140  55.700 -16.328  0.00  0.00    -0.646 OA
ATOM     12  C5  IDS d 803       3.010  57.788 -17.090  0.00  0.00     0.152 C 
ATOM     13  O2  IDS d 803       2.952  61.334 -16.913  0.00  0.00    -0.244 OA
ATOM     14  O62 IDS d 803       2.738  57.159 -14.804  0.00  0.00    -0.646 OA
ATOM     15  O1S IDS d 803       2.122  63.753 -16.208  0.00  0.00    -0.572 OA
ATOM     16  H   IDS d 803       3.795  61.137 -18.751  0.00  0.00     0.097 H 
ATOM     17  H   IDS d 803       5.277  60.200 -16.970  0.00  0.00     0.133 H 
ATOM     18  H   IDS d 803       1.469  60.306 -18.802  0.00  0.00     0.091 H 
ATOM     19  H   IDS d 803       3.433  58.414 -19.540  0.00  0.00     0.210 HD
ATOM     20  H   IDS d 803       1.048  58.029 -17.928  0.00  0.00     0.092 H 
ATOM     21  H   IDS d 803       3.366  57.252 -17.945  0.00  0.00     0.104 H 
ATOM     22  O3  SGN d 802      -0.550  61.616 -13.343  0.00  0.00    -0.391 OA
ATOM     23  O4  SGN d 802      -0.242  59.093 -12.122  0.00  0.00    -0.348 OA
ATOM     24  S1  SGN d 802      -1.044  62.616 -17.361  0.00  0.00     0.156 S 
ATOM     25  O5S SGN d 802      -4.788  55.923 -13.861  0.00  0.00    -0.572 OA
ATOM     26  N   SGN d 802      -0.074  61.799 -16.130  0.00  0.00    -0.210 NA
ATOM     27  O3S SGN d 802      -0.915  61.894 -18.640  0.00  0.00    -0.296 OA
ATOM     28  C6  SGN d 802      -0.916  56.745 -13.767  0.00  0.00     0.067 C 
ATOM     29  O5  SGN d 802      -0.666  58.191 -15.659  0.00  0.00    -0.349 OA
ATOM     30  C2  SGN d 802      -0.592  60.593 -15.519  0.00  0.00     0.081 C 
ATOM     31  O1S SGN d 802      -0.562  64.000 -17.524  0.00  0.00    -0.296 OA
ATOM     32  O1  SGN d 802       1.288  59.326 -16.368  0.00  0.00    -0.348 OA
ATOM     33  C4  SGN d 802      -0.706  59.220 -13.468  0.00  0.00     0.095 C 
ATOM     34  O6  SGN d 802      -2.321  56.860 -13.980  0.00  0.00    -0.254 OA
ATOM     35  C5  SGN d 802      -0.256  58.011 -14.293  0.00  0.00     0.091 C 
ATOM     36  O4S SGN d 802      -3.301  55.322 -12.058  0.00  0.00    -0.572 OA
ATOM     37  C1  SGN d 802      -0.140  59.362 -16.301  0.00  0.00     0.150 C 
ATOM     38  O6S SGN d 802      -3.026  54.323 -14.240  0.00  0.00    -0.572 OA
ATOM     39  O2S SGN d 802      -2.460  62.631 -16.945  0.00  0.00    -0.296 OA
ATOM     40  S2  SGN d 802      -3.404  55.550 -13.514  0.00  0.00     0.251 S 
ATOM     41  C3  SGN d 802      -0.122  60.489 -14.074  0.00  0.00     0.083 C 
ATOM     42  H   SGN d 802      -0.173  62.419 -13.737  0.00  0.00     0.210 HD
ATOM     43  H   SGN d 802       0.083  62.471 -15.379  0.00  0.00     0.140 HD
ATOM     44  H   SGN d 802       0.015  61.885 -18.913  0.00  0.00     0.231 HD
ATOM     45  H   SGN d 802      -0.715  56.638 -12.721  0.00  0.00     0.080 H 
ATOM     46  H   SGN d 802      -0.532  55.886 -14.276  0.00  0.00     0.080 H 
ATOM     47  H   SGN d 802      -1.661  60.640 -15.535  0.00  0.00     0.076 H 
ATOM     48  H   SGN d 802      -0.648  64.474 -16.682  0.00  0.00     0.231 HD
ATOM     49  H   SGN d 802      -1.775  59.269 -13.473  0.00  0.00     0.091 H 
ATOM     50  H   SGN d 802       0.808  57.924 -14.224  0.00  0.00     0.090 H 
ATOM     51  H   SGN d 802      -0.510  59.399 -17.305  0.00  0.00     0.131 H 
ATOM     52  H   SGN d 802      -2.544  63.106 -16.103  0.00  0.00     0.231 HD
ATOM     53  H   SGN d 802       0.947  60.451 -14.040  0.00  0.00     0.089 H 
ATOM     54  O1  SGN d 804       8.690  56.577 -20.254  0.00  0.00    -0.369 OA
ATOM     55  C5  SGN d 804       7.538  59.061 -19.330  0.00  0.00     0.091 C 
ATOM     56  O6  SGN d 804       8.043  61.177 -18.272  0.00  0.00    -0.254 OA
ATOM     57  O6S SGN d 804       8.976  63.312 -17.000  0.00  0.00    -0.572 OA
ATOM     58  C1  SGN d 804       8.982  57.159 -18.983  0.00  0.00     0.147 C 
ATOM     59  N   SGN d 804       8.085  55.153 -17.918  0.00  0.00    -0.210 NA
ATOM     60  C4  SGN d 804       6.567  58.573 -18.255  0.00  0.00     0.095 C 
ATOM     61  O5S SGN d 804       6.782  63.494 -17.978  0.00  0.00    -0.572 OA
ATOM     62  O3S SGN d 804      10.563  55.279 -16.972  0.00  0.00    -0.296 OA
ATOM     63  S1  SGN d 804       9.540  54.298 -17.388  0.00  0.00     0.156 S 
ATOM     64  S2  SGN d 804       8.137  62.940 -18.155  0.00  0.00     0.251 S 
ATOM     65  O3  SGN d 804       5.753  56.571 -17.194  0.00  0.00    -0.391 OA
ATOM     66  O1S SGN d 804      10.061  53.484 -18.502  0.00  0.00    -0.296 OA
ATOM     67  O5  SGN d 804       8.862  58.590 -19.026  0.00  0.00    -0.350 OA
ATOM     68  C3  SGN d 804       6.613  57.049 -18.204  0.00  0.00     0.083 C 
ATOM     69  C6  SGN d 804       7.529  60.581 -19.462  0.00  0.00     0.067 C 
ATOM     70  O2S SGN d 804       9.212  53.418 -16.250  0.00  0.00    -0.296 OA
ATOM     71  C2  SGN d 804       8.039  56.602 -17.914  0.00  0.00     0.081 C 
ATOM     72  O4S SGN d 804       8.730  63.485 -19.390  0.00  0.00    -0.572 OA
ATOM     73  O4  SGN d 804       5.240  58.993 -18.579  0.00  0.00    -0.348 OA
ATOM     74  H   SGN d 804       8.778  55.612 -20.197  0.00  0.00     0.212 HD
ATOM     75  H   SGN d 804       7.221  58.664 -20.272  0.00  0.00     0.090 H 
ATOM     76  H   SGN d 804       9.992  56.908 -18.735  0.00  0.00     0.131 H 
ATOM     77  H   SGN d 804       7.907  54.858 -18.878  0.00  0.00     0.140 HD
ATOM     78  H   SGN d 804       6.846  58.981 -17.306  0.00  0.00     0.091 H 
ATOM     79  H   SGN d 804      10.779  55.857 -17.720  0.00  0.00     0.231 HD
ATOM     80  H   SGN d 804       4.845  56.857 -17.380  0.00  0.00     0.210 HD
ATOM     81  H   SGN d 804      10.278  54.061 -19.251  0.00  0.00     0.231 HD
ATOM     82  H   SGN d 804       6.292  56.654 -19.146  0.00  0.00     0.089 H 
ATOM     83  H   SGN d 804       6.526  60.916 -19.621  0.00  0.00     0.080 H 
ATOM     84  H   SGN d 804       8.143  60.865 -20.290  0.00  0.00     0.080 H 
ATOM     85  H   SGN d 804       8.869  53.952 -15.517  0.00  0.00     0.231 HD
ATOM     86  H   SGN d 804       8.350  56.969 -16.959  0.00  0.00     0.076 H 
ATOM     87  O5  UAP d 801      -2.271  59.669 -11.044  0.00  0.00    -0.311 OA
ATOM     88  O2  UAP d 801      -1.552  57.923  -8.919  0.00  0.00    -0.244 OA
ATOM     89  O1S UAP d 801      -2.310  56.101  -7.147  0.00  0.00    -0.572 OA
ATOM     90  O3S UAP d 801      -0.636  55.440  -8.747  0.00  0.00    -0.572 OA
ATOM     91  C1  UAP d 801      -1.239  58.690 -11.180  0.00  0.00     0.167 C 
ATOM     92  O2S UAP d 801      -0.062  56.937  -6.953  0.00  0.00    -0.572 OA
ATOM     93  C4  UAP d 801      -0.898  60.889  -9.556  0.00  0.00    -0.034 C 
ATOM     94  C3  UAP d 801      -0.037  59.765  -9.254  0.00  0.00     0.086 C 
ATOM     95  O62 UAP d 801      -3.678  61.829 -11.375  0.00  0.00    -0.642 OA
ATOM     96  S   UAP d 801      -1.122  56.544  -7.899  0.00  0.00     0.252 S 
ATOM     97  C6  UAP d 801      -2.694  61.897 -10.602  0.00  0.00     0.233 C 
ATOM     98  C2  UAP d 801      -0.590  58.463  -9.823  0.00  0.00     0.135 C 
ATOM     99  C5  UAP d 801      -1.945  60.811 -10.403  0.00  0.00     0.147 C 
ATOM    100  O61 UAP d 801      -2.410  62.961 -10.003  0.00  0.00    -0.642 OA
ATOM    101  O3  UAP d 801       1.259  60.008  -9.755  0.00  0.00    -0.389 OA
ATOM    102  H   UAP d 801      -1.681  57.787 -11.543  0.00  0.00     0.134 H 
ATOM    103  H   UAP d 801      -0.701  61.794  -9.101  0.00  0.00     0.085 H 
ATOM    104  H   UAP d 801       0.008  59.658  -8.190  0.00  0.00     0.093 H 
ATOM    105  H   UAP d 801       0.220  57.777  -9.949  0.00  0.00     0.097 H 
ATOM    106  H   UAP d 801       1.220  60.105 -10.719  0.00  0.00     0.210 HD
ENDROOT
TORSDOF 33
ENDMDL
MODEL 34
REMARK VINA RESULT:      -5.6      1.398      1.579
REMARK  0 active torsions:
REMARK  status: ('A' for Active; 'I' for Inactive)
REMARK       I    between atoms: C2_1  and  O2_62 
REMARK       I    between atoms: O3_2  and  C3_65 
REMARK       I    between atoms: O1_3  and  C1_15 
REMARK       I    between atoms: C5_5  and  C6_58 
REMARK       I    between atoms: C1_6  and  O4_70 
REMARK       I    between atoms: S_7  and  O2_62 
REMARK       I    between atoms: O2_9  and  C2_55 
REMARK       I    between atoms: O2_9  and  S_49 
REMARK       I    between atoms: O4_11  and  C1_28 
REMARK       I    between atoms: O4_11  and  C4_41 
REMARK       I    between atoms: O6_12  and  C6_58 
REMARK       I    between atoms: O6_12  and  S2_38 
REMARK       I    between atoms: S1_16  and  N_21 
REMARK       I    between atoms: S1_16  and  O1S_32 
REMARK       I    between atoms: S1_16  and  O2S_53 
REMARK       I    between atoms: S1_16  and  O3S_24 
REMARK       I    between atoms: N_18  and  C2_66 
REMARK       I    between atoms: N_18  and  S1_37 
REMARK       I    between atoms: C3_19  and  O3_27 
REMARK       I    between atoms: N_21  and  C2_31 
REMARK       I    between atoms: C4_22  and  O4_70 
REMARK       I    between atoms: C6_25  and  C5_46 
REMARK       I    between atoms: C6_25  and  O6_45 
REMARK       I    between atoms: O1_33  and  C1_51 
REMARK       I    between atoms: O1_33  and  C4_34 
REMARK       I    between atoms: O3S_35  and  S1_37 
REMARK       I    between atoms: S1_37  and  O1S_42 
REMARK       I    between atoms: S1_37  and  O2S_63 
REMARK       I    between atoms: O3_39  and  C3_54 
REMARK       I    between atoms: C6_40  and  C5_60 
REMARK       I    between atoms: C3_44  and  O3_64 
REMARK       I    between atoms: O6_45  and  S2_59 
REMARK       I    between atoms: C6_50  and  C5_56 
ROOT
ATOM      1  C2  IDS d 803       5.035  52.801 -14.626  0.00  0.00     0.134 C 
ATOM      2  C1  IDS d 803       5.274  53.980 -15.568  0.00  0.00     0.161 C 
ATOM      3  S   IDS d 803       5.037  50.202 -15.558  0.00  0.00     0.252 S 
ATOM      4  O3S IDS d 803       5.832  50.238 -16.801  0.00  0.00    -0.572 OA
ATOM      5  O5  IDS d 803       4.031  54.649 -15.837  0.00  0.00    -0.340 OA
ATOM      6  C3  IDS d 803       4.320  53.271 -13.359  0.00  0.00     0.094 C 
ATOM      7  O2S IDS d 803       5.921  49.873 -14.424  0.00  0.00    -0.572 OA
ATOM      8  O3  IDS d 803       5.154  54.114 -12.592  0.00  0.00    -0.390 OA
ATOM      9  C4  IDS d 803       3.025  53.988 -13.736  0.00  0.00     0.103 C 
ATOM     10  C6  IDS d 803       2.087  55.841 -15.123  0.00  0.00     0.206 C 
ATOM     11  O61 IDS d 803       1.629  56.773 -14.427  0.00  0.00    -0.646 OA
ATOM     12  C5  IDS d 803       3.364  55.153 -14.669  0.00  0.00     0.152 C 
ATOM     13  O2  IDS d 803       4.289  51.780 -15.286  0.00  0.00    -0.244 OA
ATOM     14  O62 IDS d 803       1.553  55.471 -16.191  0.00  0.00    -0.646 OA
ATOM     15  O1S IDS d 803       3.985  49.174 -15.679  0.00  0.00    -0.572 OA
ATOM     16  H   IDS d 803       5.981  52.390 -14.342  0.00  0.00     0.097 H 
ATOM     17  H   IDS d 803       5.657  53.613 -16.498  0.00  0.00     0.133 H 
ATOM     18  H   IDS d 803       4.084  52.416 -12.760  0.00  0.00     0.091 H 
ATOM     19  H   IDS d 803       5.385  54.900 -13.111  0.00  0.00     0.210 HD
ATOM     20  H   IDS d 803       2.544  54.353 -12.853  0.00  0.00     0.092 H 
ATOM     21  H   IDS d 803       3.991  55.842 -14.143  0.00  0.00     0.104 H 
ATOM     22  O3  SGN d 802      -0.374  50.081 -15.966  0.00  0.00    -0.391 OA
ATOM     23  O4  SGN d 802      -1.678  52.459 -16.737  0.00  0.00    -0.348 OA
ATOM     24  S1  SGN d 802       2.076  49.303 -12.682  0.00  0.00     0.156 S 
ATOM     25  O5S SGN d 802      -4.836  54.099 -12.146  0.00  0.00    -0.572 OA
ATOM     26  N   SGN d 802       1.760  50.290 -14.114  0.00  0.00    -0.210 NA
ATOM     27  O3S SGN d 802       2.746  50.129 -11.660  0.00  0.00    -0.296 OA
ATOM     28  C6  SGN d 802      -1.853  54.583 -14.705  0.00  0.00     0.067 C 
ATOM     29  O5  SGN d 802      -0.056  53.456 -13.595  0.00  0.00    -0.349 OA
ATOM     30  C2  SGN d 802       0.640  51.207 -14.098  0.00  0.00     0.081 C 
ATOM     31  O1S SGN d 802       2.945  48.171 -13.050  0.00  0.00    -0.296 OA
ATOM     32  O1  SGN d 802       2.140  53.083 -14.402  0.00  0.00    -0.348 OA
ATOM     33  C4  SGN d 802      -1.136  52.297 -15.425  0.00  0.00     0.095 C 
ATOM     34  O6  SGN d 802      -2.699  54.033 -13.698  0.00  0.00    -0.254 OA
ATOM     35  C5  SGN d 802      -0.665  53.649 -14.883  0.00  0.00     0.091 C 
ATOM     36  O4S SGN d 802      -5.069  55.006 -14.371  0.00  0.00    -0.572 OA
ATOM     37  C1  SGN d 802       1.079  52.578 -13.587  0.00  0.00     0.150 C 
ATOM     38  O6S SGN d 802      -3.815  56.213 -12.696  0.00  0.00    -0.572 OA
ATOM     39  O2S SGN d 802       0.800  48.793 -12.143  0.00  0.00    -0.296 OA
ATOM     40  S2  SGN d 802      -4.168  54.874 -13.208  0.00  0.00     0.251 S 
ATOM     41  C3  SGN d 802       0.047  51.342 -15.494  0.00  0.00     0.083 C 
ATOM     42  H   SGN d 802       0.387  49.480 -16.006  0.00  0.00     0.210 HD
ATOM     43  H   SGN d 802       1.610  49.648 -14.892  0.00  0.00     0.140 HD
ATOM     44  H   SGN d 802       3.584  50.463 -12.014  0.00  0.00     0.231 HD
ATOM     45  H   SGN d 802      -2.392  54.665 -15.626  0.00  0.00     0.080 H 
ATOM     46  H   SGN d 802      -1.520  55.559 -14.418  0.00  0.00     0.080 H 
ATOM     47  H   SGN d 802      -0.107  50.815 -13.439  0.00  0.00     0.076 H 
ATOM     48  H   SGN d 802       2.503  47.629 -13.722  0.00  0.00     0.231 HD
ATOM     49  H   SGN d 802      -1.889  51.902 -14.775  0.00  0.00     0.091 H 
ATOM     50  H   SGN d 802       0.033  54.073 -15.574  0.00  0.00     0.090 H 
ATOM     51  H   SGN d 802       1.449  52.503 -12.585  0.00  0.00     0.131 H 
ATOM     52  H   SGN d 802       0.359  48.250 -12.815  0.00  0.00     0.231 HD
ATOM     53  H   SGN d 802       0.786  51.724 -16.169  0.00  0.00     0.089 H 
ATOM     54  O1  SGN d 804       9.063  58.405 -15.500  0.00  0.00    -0.369 OA
ATOM     55  C5  SGN d 804       8.411  55.614 -15.877  0.00  0.00     0.091 C 
ATOM     56  O6  SGN d 804       8.759  53.701 -17.315  0.00  0.00    -0.254 OA
ATOM     57  O6S SGN d 804       9.288  51.892 -19.185  0.00  0.00    -0.572 OA
ATOM     58  C1  SGN d 804       8.658  57.849 -16.753  0.00  0.00     0.147 C 
ATOM     59  N   SGN d 804       6.739  59.359 -16.742  0.00  0.00    -0.210 NA
ATOM     60  C4  SGN d 804       6.893  55.670 -16.049  0.00  0.00     0.095 C 
ATOM     61  O5S SGN d 804       8.370  51.083 -17.110  0.00  0.00    -0.572 OA
ATOM     62  O3S SGN d 804       7.975  59.973 -19.010  0.00  0.00    -0.296 OA
ATOM     63  S1  SGN d 804       7.199  60.597 -17.919  0.00  0.00     0.156 S 
ATOM     64  S2  SGN d 804       9.289  52.062 -17.720  0.00  0.00     0.251 S 
ATOM     65  O3  SGN d 804       5.038  57.203 -16.087  0.00  0.00    -0.391 OA
ATOM     66  O1S SGN d 804       8.021  61.624 -17.253  0.00  0.00    -0.296 OA
ATOM     67  O5  SGN d 804       9.033  56.466 -16.854  0.00  0.00    -0.350 OA
ATOM     68  C3  SGN d 804       6.432  57.115 -15.895  0.00  0.00     0.083 C 
ATOM     69  C6  SGN d 804       8.948  54.191 -15.989  0.00  0.00     0.067 C 
ATOM     70  O2S SGN d 804       5.986  61.226 -18.477  0.00  0.00    -0.296 OA
ATOM     71  C2  SGN d 804       7.144  57.979 -16.928  0.00  0.00     0.081 C 
ATOM     72  O4S SGN d 804      10.652  51.843 -17.200  0.00  0.00    -0.572 OA
ATOM     73  O4  SGN d 804       6.266  54.867 -15.047  0.00  0.00    -0.348 OA
ATOM     74  H   SGN d 804       8.797  59.337 -15.459  0.00  0.00     0.212 HD
ATOM     75  H   SGN d 804       8.648  55.961 -14.892  0.00  0.00     0.090 H 
ATOM     76  H   SGN d 804       9.156  58.395 -17.526  0.00  0.00     0.131 H 
ATOM     77  H   SGN d 804       7.119  59.656 -15.844  0.00  0.00     0.140 HD
ATOM     78  H   SGN d 804       6.627  55.300 -17.017  0.00  0.00     0.091 H 
ATOM     79  H   SGN d 804       8.772  59.560 -18.644  0.00  0.00     0.231 HD
ATOM     80  H   SGN d 804       4.585  56.652 -15.429  0.00  0.00     0.210 HD
ATOM     81  H   SGN d 804       8.819  61.211 -16.886  0.00  0.00     0.231 HD
ATOM     82  H   SGN d 804       6.667  57.459 -14.909  0.00  0.00     0.089 H 
ATOM     83  H   SGN d 804       8.426  53.560 -15.301  0.00  0.00     0.080 H 
ATOM     84  H   SGN d 804       9.993  54.191 -15.760  0.00  0.00     0.080 H 
ATOM     85  H   SGN d 804       5.444  60.551 -18.916  0.00  0.00     0.231 HD
ATOM     86  H   SGN d 804       6.884  57.658 -17.914  0.00  0.00     0.076 H 
ATOM     87  O5  UAP d 801      -3.638  51.167 -16.420  0.00  0.00    -0.311 OA
ATOM     88  O2  UAP d 801      -4.973  52.874 -18.260  0.00  0.00    -0.244 OA
ATOM     89  O1S UAP d 801      -7.176  54.199 -18.912  0.00  0.00    -0.572 OA
ATOM     90  O3S UAP d 801      -5.173  55.497 -18.593  0.00  0.00    -0.572 OA
ATOM     91  C1  UAP d 801      -3.106  52.437 -16.803  0.00  0.00     0.167 C 
ATOM     92  O2S UAP d 801      -5.422  54.130 -20.558  0.00  0.00    -0.572 OA
ATOM     93  C4  UAP d 801      -3.203  50.346 -18.595  0.00  0.00    -0.034 C 
ATOM     94  C3  UAP d 801      -3.112  51.661 -19.193  0.00  0.00     0.086 C 
ATOM     95  O62 UAP d 801      -3.790  48.700 -15.617  0.00  0.00    -0.642 OA
ATOM     96  S   UAP d 801      -5.717  54.230 -19.116  0.00  0.00     0.252 S 
ATOM     97  C6  UAP d 801      -3.542  48.895 -16.829  0.00  0.00     0.233 C 
ATOM     98  C2  UAP d 801      -3.552  52.752 -18.223  0.00  0.00     0.135 C 
ATOM     99  C5  UAP d 801      -3.455  50.146 -17.284  0.00  0.00     0.147 C 
ATOM    100  O61 UAP d 801      -3.387  47.938 -17.623  0.00  0.00    -0.642 OA
ATOM    101  O3  UAP d 801      -1.792  51.897 -19.630  0.00  0.00    -0.389 OA
ATOM    102  H   UAP d 801      -3.473  53.173 -16.119  0.00  0.00     0.134 H 
ATOM    103  H   UAP d 801      -3.070  49.521 -19.201  0.00  0.00     0.085 H 
ATOM    104  H   UAP d 801      -3.775  51.691 -20.033  0.00  0.00     0.093 H 
ATOM    105  H   UAP d 801      -3.098  53.674 -18.520  0.00  0.00     0.097 H 
ATOM    106  H   UAP d 801      -1.190  51.871 -18.870  0.00  0.00     0.210 HD
ENDROOT
TORSDOF 33
ENDMDL
MODEL 35
REMARK VINA RESULT:      -5.6      3.416     11.588
REMARK  0 active torsions:
REMARK  status: ('A' for Active; 'I' for Inactive)
REMARK       I    between atoms: C2_1  and  O2_62 
REMARK       I    between atoms: O3_2  and  C3_65 
REMARK       I    between atoms: O1_3  and  C1_15 
REMARK       I    between atoms: C5_5  and  C6_58 
REMARK       I    between atoms: C1_6  and  O4_70 
REMARK       I    between atoms: S_7  and  O2_62 
REMARK       I    between atoms: O2_9  and  C2_55 
REMARK       I    between atoms: O2_9  and  S_49 
REMARK       I    between atoms: O4_11  and  C1_28 
REMARK       I    between atoms: O4_11  and  C4_41 
REMARK       I    between atoms: O6_12  and  C6_58 
REMARK       I    between atoms: O6_12  and  S2_38 
REMARK       I    between atoms: S1_16  and  N_21 
REMARK       I    between atoms: S1_16  and  O1S_32 
REMARK       I    between atoms: S1_16  and  O2S_53 
REMARK       I    between atoms: S1_16  and  O3S_24 
REMARK       I    between atoms: N_18  and  C2_66 
REMARK       I    between atoms: N_18  and  S1_37 
REMARK       I    between atoms: C3_19  and  O3_27 
REMARK       I    between atoms: N_21  and  C2_31 
REMARK       I    between atoms: C4_22  and  O4_70 
REMARK       I    between atoms: C6_25  and  C5_46 
REMARK       I    between atoms: C6_25  and  O6_45 
REMARK       I    between atoms: O1_33  and  C1_51 
REMARK       I    between atoms: O1_33  and  C4_34 
REMARK       I    between atoms: O3S_35  and  S1_37 
REMARK       I    between atoms: S1_37  and  O1S_42 
REMARK       I    between atoms: S1_37  and  O2S_63 
REMARK       I    between atoms: O3_39  and  C3_54 
REMARK       I    between atoms: C6_40  and  C5_60 
REMARK       I    between atoms: C3_44  and  O3_64 
REMARK       I    between atoms: O6_45  and  S2_59 
REMARK       I    between atoms: C6_50  and  C5_56 
ROOT
ATOM      1  C2  IDS d 803      -1.927  57.948 -15.004  0.00  0.00     0.134 C 
ATOM      2  C1  IDS d 803      -2.609  56.878 -15.856  0.00  0.00     0.161 C 
ATOM      3  S   IDS d 803      -0.630  60.091 -16.168  0.00  0.00     0.252 S 
ATOM      4  O3S IDS d 803      -1.241  60.231 -17.504  0.00  0.00    -0.572 OA
ATOM      5  O5  IDS d 803      -1.807  55.686 -15.876  0.00  0.00    -0.340 OA
ATOM      6  C3  IDS d 803      -1.626  57.403 -13.608  0.00  0.00     0.094 C 
ATOM      7  O2S IDS d 803      -1.350  60.952 -15.210  0.00  0.00    -0.572 OA
ATOM      8  O3  IDS d 803      -2.819  57.156 -12.894  0.00  0.00    -0.390 OA
ATOM      9  C4  IDS d 803      -0.791  56.128 -13.723  0.00  0.00     0.103 C 
ATOM     10  C6  IDS d 803      -0.717  53.866 -14.777  0.00  0.00     0.206 C 
ATOM     11  O61 IDS d 803      -0.810  52.945 -13.937  0.00  0.00    -0.646 OA
ATOM     12  C5  IDS d 803      -1.556  55.118 -14.581  0.00  0.00     0.152 C 
ATOM     13  O2  IDS d 803      -0.736  58.407 -15.642  0.00  0.00    -0.244 OA
ATOM     14  O62 IDS d 803       0.017  53.788 -15.786  0.00  0.00    -0.646 OA
ATOM     15  O1S IDS d 803       0.786  60.498 -16.230  0.00  0.00    -0.572 OA
ATOM     16  H   IDS d 803      -2.590  58.781 -14.901  0.00  0.00     0.097 H 
ATOM     17  H   IDS d 803      -2.694  57.234 -16.861  0.00  0.00     0.133 H 
ATOM     18  H   IDS d 803      -1.069  58.137 -13.064  0.00  0.00     0.091 H 
ATOM     19  H   IDS d 803      -3.347  56.492 -13.366  0.00  0.00     0.210 HD
ATOM     20  H   IDS d 803      -0.615  55.724 -12.749  0.00  0.00     0.092 H 
ATOM     21  H   IDS d 803      -2.475  54.876 -14.089  0.00  0.00     0.104 H 
ATOM     22  O3  SGN d 802       4.218  57.681 -15.792  0.00  0.00    -0.391 OA
ATOM     23  O4  SGN d 802       4.316  54.885 -16.137  0.00  0.00    -0.348 OA
ATOM     24  S1  SGN d 802       2.149  59.972 -12.988  0.00  0.00     0.156 S 
ATOM     25  O5S SGN d 802       5.933  52.706 -11.001  0.00  0.00    -0.572 OA
ATOM     26  N   SGN d 802       2.086  58.746 -14.260  0.00  0.00    -0.210 NA
ATOM     27  O3S SGN d 802       1.086  59.706 -12.002  0.00  0.00    -0.296 OA
ATOM     28  C6  SGN d 802       3.301  53.247 -13.910  0.00  0.00     0.067 C 
ATOM     29  O5  SGN d 802       2.155  55.220 -13.185  0.00  0.00    -0.349 OA
ATOM     30  C2  SGN d 802       2.640  57.435 -13.994  0.00  0.00     0.081 C 
ATOM     31  O1S SGN d 802       1.947  61.305 -13.584  0.00  0.00    -0.296 OA
ATOM     32  O1  SGN d 802       0.468  56.421 -14.335  0.00  0.00    -0.348 OA
ATOM     33  C4  SGN d 802       3.804  55.472 -14.939  0.00  0.00     0.095 C 
ATOM     34  O6  SGN d 802       4.217  53.499 -12.847  0.00  0.00    -0.254 OA
ATOM     35  C5  SGN d 802       2.710  54.579 -14.346  0.00  0.00     0.091 C 
ATOM     36  O4S SGN d 802       5.903  51.468 -13.072  0.00  0.00    -0.572 OA
ATOM     37  C1  SGN d 802       1.568  56.507 -13.425  0.00  0.00     0.150 C 
ATOM     38  O6S SGN d 802       4.092  51.230 -11.492  0.00  0.00    -0.572 OA
ATOM     39  O2S SGN d 802       3.464  59.923 -12.320  0.00  0.00    -0.296 OA
ATOM     40  S2  SGN d 802       5.073  52.168 -12.071  0.00  0.00     0.251 S 
ATOM     41  C3  SGN d 802       3.217  56.836 -15.270  0.00  0.00     0.083 C 
ATOM     42  H   SGN d 802       3.834  58.548 -15.999  0.00  0.00     0.210 HD
ATOM     43  H   SGN d 802       2.585  59.124 -15.065  0.00  0.00     0.140 HD
ATOM     44  H   SGN d 802       0.222  59.738 -12.441  0.00  0.00     0.231 HD
ATOM     45  H   SGN d 802       3.815  52.791 -14.731  0.00  0.00     0.080 H 
ATOM     46  H   SGN d 802       2.527  52.585 -13.584  0.00  0.00     0.080 H 
ATOM     47  H   SGN d 802       3.424  57.540 -13.273  0.00  0.00     0.076 H 
ATOM     48  H   SGN d 802       2.647  61.479 -14.233  0.00  0.00     0.231 HD
ATOM     49  H   SGN d 802       4.596  55.575 -14.227  0.00  0.00     0.091 H 
ATOM     50  H   SGN d 802       1.956  54.419 -15.089  0.00  0.00     0.090 H 
ATOM     51  H   SGN d 802       1.192  56.893 -12.500  0.00  0.00     0.131 H 
ATOM     52  H   SGN d 802       4.163  60.099 -12.969  0.00  0.00     0.231 HD
ATOM     53  H   SGN d 802       2.446  56.734 -16.006  0.00  0.00     0.089 H 
ATOM     54  O1  SGN d 804      -8.019  54.720 -15.923  0.00  0.00    -0.369 OA
ATOM     55  C5  SGN d 804      -6.107  56.819 -16.462  0.00  0.00     0.091 C 
ATOM     56  O6  SGN d 804      -5.394  58.439 -18.110  0.00  0.00    -0.254 OA
ATOM     57  O6S SGN d 804      -4.852  59.985 -20.200  0.00  0.00    -0.572 OA
ATOM     58  C1  SGN d 804      -7.296  54.836 -17.150  0.00  0.00     0.147 C 
ATOM     59  N   SGN d 804      -6.318  52.640 -16.718  0.00  0.00    -0.210 NA
ATOM     60  C4  SGN d 804      -4.783  56.056 -16.406  0.00  0.00     0.095 C 
ATOM     61  O5S SGN d 804      -3.842  60.593 -18.099  0.00  0.00    -0.572 OA
ATOM     62  O3S SGN d 804      -7.499  52.318 -19.073  0.00  0.00    -0.296 OA
ATOM     63  S1  SGN d 804      -7.202  51.584 -17.827  0.00  0.00     0.156 S 
ATOM     64  S2  SGN d 804      -5.058  60.058 -18.741  0.00  0.00     0.251 S 
ATOM     65  O3  SGN d 804      -3.867  53.862 -16.028  0.00  0.00    -0.391 OA
ATOM     66  O1S SGN d 804      -8.463  51.156 -17.194  0.00  0.00    -0.296 OA
ATOM     67  O5  SGN d 804      -6.970  56.205 -17.435  0.00  0.00    -0.350 OA
ATOM     68  C3  SGN d 804      -5.068  54.600 -16.050  0.00  0.00     0.083 C 
ATOM     69  C6  SGN d 804      -5.902  58.296 -16.786  0.00  0.00     0.067 C 
ATOM     70  O2S SGN d 804      -6.383  50.397 -18.140  0.00  0.00    -0.296 OA
ATOM     71  C2  SGN d 804      -6.012  54.008 -17.090  0.00  0.00     0.081 C 
ATOM     72  O4S SGN d 804      -6.197  60.947 -18.448  0.00  0.00    -0.572 OA
ATOM     73  O4  SGN d 804      -3.941  56.627 -15.403  0.00  0.00    -0.348 OA
ATOM     74  H   SGN d 804      -8.226  53.787 -15.756  0.00  0.00     0.212 HD
ATOM     75  H   SGN d 804      -6.562  56.770 -15.495  0.00  0.00     0.090 H 
ATOM     76  H   SGN d 804      -7.925  54.464 -17.933  0.00  0.00     0.131 H 
ATOM     77  H   SGN d 804      -6.867  52.687 -15.860  0.00  0.00     0.140 HD
ATOM     78  H   SGN d 804      -4.293  56.113 -17.355  0.00  0.00     0.091 H 
ATOM     79  H   SGN d 804      -8.038  53.098 -18.868  0.00  0.00     0.231 HD
ATOM     80  H   SGN d 804      -3.267  54.240 -15.366  0.00  0.00     0.210 HD
ATOM     81  H   SGN d 804      -9.002  51.935 -16.987  0.00  0.00     0.231 HD
ATOM     82  H   SGN d 804      -5.521  54.554 -15.081  0.00  0.00     0.089 H 
ATOM     83  H   SGN d 804      -5.206  58.717 -16.091  0.00  0.00     0.080 H 
ATOM     84  H   SGN d 804      -6.841  58.804 -16.713  0.00  0.00     0.080 H 
ATOM     85  H   SGN d 804      -5.553  50.677 -18.557  0.00  0.00     0.231 HD
ATOM     86  H   SGN d 804      -5.548  54.023 -18.054  0.00  0.00     0.076 H 
ATOM     87  O5  UAP d 801       6.618  55.179 -15.662  0.00  0.00    -0.311 OA
ATOM     88  O2  UAP d 801       7.149  52.796 -17.118  0.00  0.00    -0.244 OA
ATOM     89  O1S UAP d 801       8.521  50.534 -17.313  0.00  0.00    -0.572 OA
ATOM     90  O3S UAP d 801       6.123  50.350 -17.169  0.00  0.00    -0.572 OA
ATOM     91  C1  UAP d 801       5.588  54.247 -15.996  0.00  0.00     0.167 C 
ATOM     92  O2S UAP d 801       7.151  51.141 -19.197  0.00  0.00    -0.572 OA
ATOM     93  C4  UAP d 801       6.806  55.768 -17.944  0.00  0.00    -0.034 C 
ATOM     94  C3  UAP d 801       6.160  54.564 -18.422  0.00  0.00     0.086 C 
ATOM     95  O62 UAP d 801       7.840  57.398 -15.081  0.00  0.00    -0.642 OA
ATOM     96  S   UAP d 801       7.240  51.138 -17.725  0.00  0.00     0.252 S 
ATOM     97  C6  UAP d 801       7.633  57.156 -16.293  0.00  0.00     0.233 C 
ATOM     98  C2  UAP d 801       5.953  53.552 -17.299  0.00  0.00     0.135 C 
ATOM     99  C5  UAP d 801       7.009  56.028 -16.635  0.00  0.00     0.147 C 
ATOM    100  O61 UAP d 801       8.013  57.947 -17.187  0.00  0.00    -0.642 OA
ATOM    101  O3  UAP d 801       4.926  54.889 -19.023  0.00  0.00    -0.389 OA
ATOM    102  H   UAP d 801       5.508  53.537 -15.200  0.00  0.00     0.134 H 
ATOM    103  H   UAP d 801       7.127  56.461 -18.638  0.00  0.00     0.085 H 
ATOM    104  H   UAP d 801       6.801  54.110 -19.149  0.00  0.00     0.093 H 
ATOM    105  H   UAP d 801       5.147  52.904 -17.571  0.00  0.00     0.097 H 
ATOM    106  H   UAP d 801       4.344  55.300 -18.364  0.00  0.00     0.210 HD
ENDROOT
TORSDOF 33
ENDMDL
MODEL 36
REMARK VINA RESULT:      -5.6      4.476      9.116
REMARK  0 active torsions:
REMARK  status: ('A' for Active; 'I' for Inactive)
REMARK       I    between atoms: C2_1  and  O2_62 
REMARK       I    between atoms: O3_2  and  C3_65 
REMARK       I    between atoms: O1_3  and  C1_15 
REMARK       I    between atoms: C5_5  and  C6_58 
REMARK       I    between atoms: C1_6  and  O4_70 
REMARK       I    between atoms: S_7  and  O2_62 
REMARK       I    between atoms: O2_9  and  C2_55 
REMARK       I    between atoms: O2_9  and  S_49 
REMARK       I    between atoms: O4_11  and  C1_28 
REMARK       I    between atoms: O4_11  and  C4_41 
REMARK       I    between atoms: O6_12  and  C6_58 
REMARK       I    between atoms: O6_12  and  S2_38 
REMARK       I    between atoms: S1_16  and  N_21 
REMARK       I    between atoms: S1_16  and  O1S_32 
REMARK       I    between atoms: S1_16  and  O2S_53 
REMARK       I    between atoms: S1_16  and  O3S_24 
REMARK       I    between atoms: N_18  and  C2_66 
REMARK       I    between atoms: N_18  and  S1_37 
REMARK       I    between atoms: C3_19  and  O3_27 
REMARK       I    between atoms: N_21  and  C2_31 
REMARK       I    between atoms: C4_22  and  O4_70 
REMARK       I    between atoms: C6_25  and  C5_46 
REMARK       I    between atoms: C6_25  and  O6_45 
REMARK       I    between atoms: O1_33  and  C1_51 
REMARK       I    between atoms: O1_33  and  C4_34 
REMARK       I    between atoms: O3S_35  and  S1_37 
REMARK       I    between atoms: S1_37  and  O1S_42 
REMARK       I    between atoms: S1_37  and  O2S_63 
REMARK       I    between atoms: O3_39  and  C3_54 
REMARK       I    between atoms: C6_40  and  C5_60 
REMARK       I    between atoms: C3_44  and  O3_64 
REMARK       I    between atoms: O6_45  and  S2_59 
REMARK       I    between atoms: C6_50  and  C5_56 
ROOT
ATOM      1  C2  IDS d 803       4.619  56.497 -17.661  0.00  0.00     0.134 C 
ATOM      2  C1  IDS d 803       4.142  55.060 -17.453  0.00  0.00     0.161 C 
ATOM      3  S   IDS d 803       6.820  57.483 -16.315  0.00  0.00     0.252 S 
ATOM      4  O3S IDS d 803       7.617  56.293 -15.956  0.00  0.00    -0.572 OA
ATOM      5  O5  IDS d 803       2.966  55.051 -16.629  0.00  0.00    -0.340 OA
ATOM      6  C3  IDS d 803       3.486  57.356 -18.222  0.00  0.00     0.094 C 
ATOM      7  O2S IDS d 803       7.287  58.008 -17.613  0.00  0.00    -0.572 OA
ATOM      8  O3  IDS d 803       3.148  56.952 -19.532  0.00  0.00    -0.390 OA
ATOM      9  C4  IDS d 803       2.271  57.271 -17.299  0.00  0.00     0.103 C 
ATOM     10  C6  IDS d 803       0.703  55.679 -16.186  0.00  0.00     0.206 C 
ATOM     11  O61 IDS d 803      -0.463  55.769 -16.629  0.00  0.00    -0.646 OA
ATOM     12  C5  IDS d 803       1.864  55.803 -17.160  0.00  0.00     0.152 C 
ATOM     13  O2  IDS d 803       5.113  57.039 -16.437  0.00  0.00    -0.244 OA
ATOM     14  O62 IDS d 803       0.952  55.463 -14.981  0.00  0.00    -0.646 OA
ATOM     15  O1S IDS d 803       6.986  58.517 -15.277  0.00  0.00    -0.572 OA
ATOM     16  H   IDS d 803       5.420  56.496 -18.370  0.00  0.00     0.097 H 
ATOM     17  H   IDS d 803       4.905  54.510 -16.943  0.00  0.00     0.133 H 
ATOM     18  H   IDS d 803       3.816  58.373 -18.272  0.00  0.00     0.091 H 
ATOM     19  H   IDS d 803       2.844  56.031 -19.518  0.00  0.00     0.210 HD
ATOM     20  H   IDS d 803       1.464  57.840 -17.712  0.00  0.00     0.092 H 
ATOM     21  H   IDS d 803       1.582  55.433 -18.123  0.00  0.00     0.104 H 
ATOM     22  O3  SGN d 802       3.753  59.785 -12.475  0.00  0.00    -0.391 OA
ATOM     23  O4  SGN d 802       1.401  58.437 -11.700  0.00  0.00    -0.348 OA
ATOM     24  S1  SGN d 802       4.908  61.248 -16.205  0.00  0.00     0.156 S 
ATOM     25  O5S SGN d 802      -3.001  61.848 -13.350  0.00  0.00    -0.572 OA
ATOM     26  N   SGN d 802       4.375  59.869 -15.238  0.00  0.00    -0.210 NA
ATOM     27  O3S SGN d 802       4.413  61.094 -17.586  0.00  0.00    -0.296 OA
ATOM     28  C6  SGN d 802      -0.853  58.530 -13.592  0.00  0.00     0.067 C 
ATOM     29  O5  SGN d 802       0.768  59.106 -15.257  0.00  0.00    -0.349 OA
ATOM     30  C2  SGN d 802       3.008  59.835 -14.761  0.00  0.00     0.081 C 
ATOM     31  O1S SGN d 802       6.381  61.302 -16.211  0.00  0.00    -0.296 OA
ATOM     32  O1  SGN d 802       2.597  57.803 -16.011  0.00  0.00    -0.348 OA
ATOM     33  C4  SGN d 802       1.487  59.132 -12.946  0.00  0.00     0.095 C 
ATOM     34  O6  SGN d 802      -1.231  59.905 -13.616  0.00  0.00    -0.254 OA
ATOM     35  C5  SGN d 802       0.611  58.439 -13.993  0.00  0.00     0.091 C 
ATOM     36  O4S SGN d 802      -3.205  59.969 -11.850  0.00  0.00    -0.572 OA
ATOM     37  C1  SGN d 802       2.108  59.125 -15.771  0.00  0.00     0.150 C 
ATOM     38  O6S SGN d 802      -3.812  59.733 -14.177  0.00  0.00    -0.572 OA
ATOM     39  O2S SGN d 802       4.369  62.495 -15.627  0.00  0.00    -0.296 OA
ATOM     40  S2  SGN d 802      -2.883  60.383 -13.231  0.00  0.00     0.251 S 
ATOM     41  C3  SGN d 802       2.935  59.126 -13.416  0.00  0.00     0.083 C 
ATOM     42  H   SGN d 802       4.673  59.776 -12.783  0.00  0.00     0.210 HD
ATOM     43  H   SGN d 802       4.979  59.828 -14.417  0.00  0.00     0.140 HD
ATOM     44  H   SGN d 802       4.768  60.276 -17.966  0.00  0.00     0.231 HD
ATOM     45  H   SGN d 802      -0.986  58.135 -12.607  0.00  0.00     0.080 H 
ATOM     46  H   SGN d 802      -1.460  57.966 -14.269  0.00  0.00     0.080 H 
ATOM     47  H   SGN d 802       2.668  60.843 -14.643  0.00  0.00     0.076 H 
ATOM     48  H   SGN d 802       6.704  61.404 -15.302  0.00  0.00     0.231 HD
ATOM     49  H   SGN d 802       1.148  60.139 -12.816  0.00  0.00     0.091 H 
ATOM     50  H   SGN d 802       0.907  57.413 -14.066  0.00  0.00     0.090 H 
ATOM     51  H   SGN d 802       2.111  59.646 -16.706  0.00  0.00     0.131 H 
ATOM     52  H   SGN d 802       4.694  62.596 -14.718  0.00  0.00     0.231 HD
ATOM     53  H   SGN d 802       3.282  58.118 -13.515  0.00  0.00     0.089 H 
ATOM     54  O1  SGN d 804       3.106  50.658 -21.125  0.00  0.00    -0.369 OA
ATOM     55  C5  SGN d 804       4.902  52.419 -19.701  0.00  0.00     0.091 C 
ATOM     56  O6  SGN d 804       6.939  52.500 -18.400  0.00  0.00    -0.254 OA
ATOM     57  O6S SGN d 804       9.128  52.156 -16.936  0.00  0.00    -0.572 OA
ATOM     58  C1  SGN d 804       3.623  50.377 -19.823  0.00  0.00     0.147 C 
ATOM     59  N   SGN d 804       1.332  50.345 -18.979  0.00  0.00    -0.210 NA
ATOM     60  C4  SGN d 804       3.991  52.973 -18.606  0.00  0.00     0.095 C 
ATOM     61  O5S SGN d 804       8.604  54.410 -17.607  0.00  0.00    -0.572 OA
ATOM     62  O3S SGN d 804       2.246  47.940 -18.326  0.00  0.00    -0.296 OA
ATOM     63  S1  SGN d 804       1.010  48.619 -18.762  0.00  0.00     0.156 S 
ATOM     64  S2  SGN d 804       8.597  52.995 -18.027  0.00  0.00     0.251 S 
ATOM     65  O3  SGN d 804       1.735  52.867 -17.774  0.00  0.00    -0.391 OA
ATOM     66  O1S SGN d 804       0.556  48.043 -20.042  0.00  0.00    -0.296 OA
ATOM     67  O5  SGN d 804       4.912  50.983 -19.632  0.00  0.00    -0.350 OA
ATOM     68  C3  SGN d 804       2.589  52.402 -18.795  0.00  0.00     0.083 C 
ATOM     69  C6  SGN d 804       6.322  52.969 -19.597  0.00  0.00     0.067 C 
ATOM     70  O2S SGN d 804      -0.039  48.435 -17.741  0.00  0.00    -0.296 OA
ATOM     71  C2  SGN d 804       2.660  50.882 -18.748  0.00  0.00     0.081 C 
ATOM     72  O4S SGN d 804       9.440  52.837 -19.226  0.00  0.00    -0.572 OA
ATOM     73  O4  SGN d 804       3.935  54.398 -18.702  0.00  0.00    -0.348 OA
ATOM     74  H   SGN d 804       2.238  50.238 -21.226  0.00  0.00     0.212 HD
ATOM     75  H   SGN d 804       4.514  52.733 -20.648  0.00  0.00     0.090 H 
ATOM     76  H   SGN d 804       3.729  49.315 -19.738  0.00  0.00     0.131 H 
ATOM     77  H   SGN d 804       1.091  50.568 -19.944  0.00  0.00     0.140 HD
ATOM     78  H   SGN d 804       4.374  52.698 -17.645  0.00  0.00     0.091 H 
ATOM     79  H   SGN d 804       2.936  48.061 -18.997  0.00  0.00     0.231 HD
ATOM     80  H   SGN d 804       1.690  53.836 -17.805  0.00  0.00     0.210 HD
ATOM     81  H   SGN d 804       1.244  48.164 -20.714  0.00  0.00     0.231 HD
ATOM     82  H   SGN d 804       2.202  52.720 -19.741  0.00  0.00     0.089 H 
ATOM     83  H   SGN d 804       6.287  54.038 -19.583  0.00  0.00     0.080 H 
ATOM     84  H   SGN d 804       6.890  52.635 -20.440  0.00  0.00     0.080 H 
ATOM     85  H   SGN d 804       0.259  48.813 -16.899  0.00  0.00     0.231 HD
ATOM     86  H   SGN d 804       3.015  50.562 -17.791  0.00  0.00     0.076 H 
ATOM     87  O5  UAP d 801       1.095  60.333 -10.313  0.00  0.00    -0.311 OA
ATOM     88  O2  UAP d 801      -0.479  58.720  -8.581  0.00  0.00    -0.244 OA
ATOM     89  O1S UAP d 801      -2.621  58.506  -7.031  0.00  0.00    -0.572 OA
ATOM     90  O3S UAP d 801      -2.469  56.996  -8.901  0.00  0.00    -0.572 OA
ATOM     91  C1  UAP d 801       0.573  59.066 -10.719  0.00  0.00     0.167 C 
ATOM     92  O2S UAP d 801      -1.054  56.679  -6.980  0.00  0.00    -0.572 OA
ATOM     93  C4  UAP d 801       2.572  59.232  -8.830  0.00  0.00    -0.034 C 
ATOM     94  C3  UAP d 801       1.809  58.002  -8.808  0.00  0.00     0.086 C 
ATOM     95  O62 UAP d 801       2.625  62.427 -10.140  0.00  0.00    -0.642 OA
ATOM     96  S   UAP d 801      -1.706  57.682  -7.842  0.00  0.00     0.252 S 
ATOM     97  C6  UAP d 801       2.964  61.412  -9.489  0.00  0.00     0.233 C 
ATOM     98  C2  UAP d 801       0.460  58.164  -9.499  0.00  0.00     0.135 C 
ATOM     99  C5  UAP d 801       2.207  60.315  -9.549  0.00  0.00     0.147 C 
ATOM    100  O61 UAP d 801       3.993  61.414  -8.772  0.00  0.00    -0.642 OA
ATOM    101  O3  UAP d 801       2.552  56.969  -9.416  0.00  0.00    -0.389 OA
ATOM    102  H   UAP d 801      -0.388  59.227 -11.161  0.00  0.00     0.134 H 
ATOM    103  H   UAP d 801       3.436  59.284  -8.268  0.00  0.00     0.085 H 
ATOM    104  H   UAP d 801       1.618  57.748  -7.786  0.00  0.00     0.093 H 
ATOM    105  H   UAP d 801       0.128  57.201  -9.824  0.00  0.00     0.097 H 
ATOM    106  H   UAP d 801       2.725  57.197 -10.343  0.00  0.00     0.210 HD
ENDROOT
TORSDOF 33
ENDMDL
MODEL 37
REMARK VINA RESULT:      -5.6      4.426      9.126
REMARK  0 active torsions:
REMARK  status: ('A' for Active; 'I' for Inactive)
REMARK       I    between atoms: C2_1  and  O2_62 
REMARK       I    between atoms: O3_2  and  C3_65 
REMARK       I    between atoms: O1_3  and  C1_15 
REMARK       I    between atoms: C5_5  and  C6_58 
REMARK       I    between atoms: C1_6  and  O4_70 
REMARK       I    between atoms: S_7  and  O2_62 
REMARK       I    between atoms: O2_9  and  C2_55 
REMARK       I    between atoms: O2_9  and  S_49 
REMARK       I    between atoms: O4_11  and  C1_28 
REMARK       I    between atoms: O4_11  and  C4_41 
REMARK       I    between atoms: O6_12  and  C6_58 
REMARK       I    between atoms: O6_12  and  S2_38 
REMARK       I    between atoms: S1_16  and  N_21 
REMARK       I    between atoms: S1_16  and  O1S_32 
REMARK       I    between atoms: S1_16  and  O2S_53 
REMARK       I    between atoms: S1_16  and  O3S_24 
REMARK       I    between atoms: N_18  and  C2_66 
REMARK       I    between atoms: N_18  and  S1_37 
REMARK       I    between atoms: C3_19  and  O3_27 
REMARK       I    between atoms: N_21  and  C2_31 
REMARK       I    between atoms: C4_22  and  O4_70 
REMARK       I    between atoms: C6_25  and  C5_46 
REMARK       I    between atoms: C6_25  and  O6_45 
REMARK       I    between atoms: O1_33  and  C1_51 
REMARK       I    between atoms: O1_33  and  C4_34 
REMARK       I    between atoms: O3S_35  and  S1_37 
REMARK       I    between atoms: S1_37  and  O1S_42 
REMARK       I    between atoms: S1_37  and  O2S_63 
REMARK       I    between atoms: O3_39  and  C3_54 
REMARK       I    between atoms: C6_40  and  C5_60 
REMARK       I    between atoms: C3_44  and  O3_64 
REMARK       I    between atoms: O6_45  and  S2_59 
REMARK       I    between atoms: C6_50  and  C5_56 
ROOT
ATOM      1  C2  IDS d 803       2.582  60.660 -18.338  0.00  0.00     0.134 C 
ATOM      2  C1  IDS d 803       3.574  59.811 -17.544  0.00  0.00     0.161 C 
ATOM      3  S   IDS d 803       1.818  63.165 -17.461  0.00  0.00     0.252 S 
ATOM      4  O3S IDS d 803       2.914  63.615 -16.582  0.00  0.00    -0.572 OA
ATOM      5  O5  IDS d 803       2.877  58.762 -16.854  0.00  0.00    -0.340 OA
ATOM      6  C3  IDS d 803       1.754  59.775 -19.270  0.00  0.00     0.094 C 
ATOM      7  O2S IDS d 803       2.069  63.641 -18.835  0.00  0.00    -0.572 OA
ATOM      8  O3  IDS d 803       2.562  59.216 -20.285  0.00  0.00    -0.390 OA
ATOM      9  C4  IDS d 803       1.067  58.676 -18.460  0.00  0.00     0.103 C 
ATOM     10  C6  IDS d 803       1.477  56.826 -16.835  0.00  0.00     0.206 C 
ATOM     11  O61 IDS d 803       1.243  55.700 -17.325  0.00  0.00    -0.646 OA
ATOM     12  C5  IDS d 803       2.136  57.879 -17.711  0.00  0.00     0.152 C 
ATOM     13  O2  IDS d 803       1.741  61.399 -17.455  0.00  0.00    -0.244 OA
ATOM     14  O62 IDS d 803       1.216  57.112 -15.647  0.00  0.00    -0.646 OA
ATOM     15  O1S IDS d 803       0.540  63.715 -16.974  0.00  0.00    -0.572 OA
ATOM     16  H   IDS d 803       3.127  61.358 -18.938  0.00  0.00     0.097 H 
ATOM     17  H   IDS d 803       4.051  60.427 -16.810  0.00  0.00     0.133 H 
ATOM     18  H   IDS d 803       1.008  60.377 -19.745  0.00  0.00     0.091 H 
ATOM     19  H   IDS d 803       3.250  58.663 -19.883  0.00  0.00     0.210 HD
ATOM     20  H   IDS d 803       0.520  58.033 -19.116  0.00  0.00     0.092 H 
ATOM     21  H   IDS d 803       2.782  57.415 -18.426  0.00  0.00     0.104 H 
ATOM     22  O3  SGN d 802      -2.711  61.253 -15.162  0.00  0.00    -0.391 OA
ATOM     23  O4  SGN d 802      -2.597  58.695 -13.983  0.00  0.00    -0.348 OA
ATOM     24  S1  SGN d 802      -2.006  62.433 -19.099  0.00  0.00     0.156 S 
ATOM     25  O5S SGN d 802      -6.104  55.326 -17.160  0.00  0.00    -0.572 OA
ATOM     26  N   SGN d 802      -1.407  61.617 -17.650  0.00  0.00    -0.210 NA
ATOM     27  O3S SGN d 802      -1.428  61.791 -20.294  0.00  0.00    -0.296 OA
ATOM     28  C6  SGN d 802      -2.533  56.398 -15.826  0.00  0.00     0.067 C 
ATOM     29  O5  SGN d 802      -1.823  57.957 -17.499  0.00  0.00    -0.349 OA
ATOM     30  C2  SGN d 802      -1.990  60.348 -17.270  0.00  0.00     0.081 C 
ATOM     31  O1S SGN d 802      -1.611  63.852 -19.061  0.00  0.00    -0.296 OA
ATOM     32  O1  SGN d 802       0.157  59.258 -17.521  0.00  0.00    -0.348 OA
ATOM     33  C4  SGN d 802      -2.627  58.863 -15.402  0.00  0.00     0.095 C 
ATOM     34  O6  SGN d 802      -3.806  56.431 -16.467  0.00  0.00    -0.254 OA
ATOM     35  C5  SGN d 802      -1.846  57.732 -16.079  0.00  0.00     0.091 C 
ATOM     36  O4S SGN d 802      -5.210  54.729 -14.999  0.00  0.00    -0.572 OA
ATOM     37  C1  SGN d 802      -1.219  59.194 -17.907  0.00  0.00     0.150 C 
ATOM     38  O6S SGN d 802      -4.188  53.870 -17.013  0.00  0.00    -0.572 OA
ATOM     39  O2S SGN d 802      -3.478  62.330 -19.150  0.00  0.00    -0.296 OA
ATOM     40  S2  SGN d 802      -4.872  55.028 -16.406  0.00  0.00     0.251 S 
ATOM     41  C3  SGN d 802      -1.987  60.198 -15.755  0.00  0.00     0.083 C 
ATOM     42  H   SGN d 802      -2.296  62.100 -15.393  0.00  0.00     0.210 HD
ATOM     43  H   SGN d 802      -1.545  62.257 -16.868  0.00  0.00     0.140 HD
ATOM     44  H   SGN d 802      -0.461  61.859 -20.261  0.00  0.00     0.231 HD
ATOM     45  H   SGN d 802      -2.660  56.249 -14.774  0.00  0.00     0.080 H 
ATOM     46  H   SGN d 802      -1.942  55.596 -16.214  0.00  0.00     0.080 H 
ATOM     47  H   SGN d 802      -3.001  60.324 -17.621  0.00  0.00     0.076 H 
ATOM     48  H   SGN d 802      -1.992  64.273 -18.274  0.00  0.00     0.231 HD
ATOM     49  H   SGN d 802      -3.642  58.840 -15.742  0.00  0.00     0.091 H 
ATOM     50  H   SGN d 802      -0.853  57.713 -15.681  0.00  0.00     0.090 H 
ATOM     51  H   SGN d 802      -1.259  59.260 -18.974  0.00  0.00     0.131 H 
ATOM     52  H   SGN d 802      -3.858  62.753 -18.364  0.00  0.00     0.231 HD
ATOM     53  H   SGN d 802      -0.983  60.231 -15.387  0.00  0.00     0.089 H 
ATOM     54  O1  SGN d 804       8.597  57.223 -18.961  0.00  0.00    -0.369 OA
ATOM     55  C5  SGN d 804       7.019  59.571 -18.372  0.00  0.00     0.091 C 
ATOM     56  O6  SGN d 804       6.997  61.656 -17.145  0.00  0.00    -0.254 OA
ATOM     57  O6S SGN d 804       7.312  63.778 -15.580  0.00  0.00    -0.572 OA
ATOM     58  C1  SGN d 804       8.430  57.754 -17.645  0.00  0.00     0.147 C 
ATOM     59  N   SGN d 804       7.411  55.638 -16.978  0.00  0.00    -0.210 NA
ATOM     60  C4  SGN d 804       5.803  58.962 -17.672  0.00  0.00     0.095 C 
ATOM     61  O5S SGN d 804       5.524  63.864 -17.194  0.00  0.00    -0.572 OA
ATOM     62  O3S SGN d 804       9.451  55.878 -15.297  0.00  0.00    -0.296 OA
ATOM     63  S1  SGN d 804       8.692  54.855 -16.042  0.00  0.00     0.156 S 
ATOM     64  S2  SGN d 804       6.908  63.413 -16.952  0.00  0.00     0.251 S 
ATOM     65  O3  SGN d 804       4.863  56.856 -16.982  0.00  0.00    -0.391 OA
ATOM     66  O1S SGN d 804       9.598  54.139 -16.959  0.00  0.00    -0.296 OA
ATOM     67  O5  SGN d 804       8.215  59.174 -17.680  0.00  0.00    -0.350 OA
ATOM     68  C3  SGN d 804       5.953  57.444 -17.656  0.00  0.00     0.083 C 
ATOM     69  C6  SGN d 804       6.929  61.092 -18.453  0.00  0.00     0.067 C 
ATOM     70  O2S SGN d 804       8.097  53.895 -15.093  0.00  0.00    -0.296 OA
ATOM     71  C2  SGN d 804       7.250  57.079 -16.945  0.00  0.00     0.081 C 
ATOM     72  O4S SGN d 804       7.810  64.062 -17.920  0.00  0.00    -0.572 OA
ATOM     73  O4  SGN d 804       4.615  59.309 -18.385  0.00  0.00    -0.348 OA
ATOM     74  H   SGN d 804       8.740  56.265 -18.907  0.00  0.00     0.212 HD
ATOM     75  H   SGN d 804       7.044  59.205 -19.377  0.00  0.00     0.090 H 
ATOM     76  H   SGN d 804       9.329  57.558 -17.099  0.00  0.00     0.131 H 
ATOM     77  H   SGN d 804       7.565  55.384 -17.953  0.00  0.00     0.140 HD
ATOM     78  H   SGN d 804       5.738  59.336 -16.672  0.00  0.00     0.091 H 
ATOM     79  H   SGN d 804       9.843  56.509 -15.921  0.00  0.00     0.231 HD
ATOM     80  H   SGN d 804       4.038  57.090 -17.436  0.00  0.00     0.210 HD
ATOM     81  H   SGN d 804       9.990  54.769 -17.585  0.00  0.00     0.231 HD
ATOM     82  H   SGN d 804       5.975  57.079 -18.662  0.00  0.00     0.089 H 
ATOM     83  H   SGN d 804       6.002  61.368 -18.911  0.00  0.00     0.080 H 
ATOM     84  H   SGN d 804       7.746  61.461 -19.038  0.00  0.00     0.080 H 
ATOM     85  H   SGN d 804       7.501  54.365 -14.489  0.00  0.00     0.231 HD
ATOM     86  H   SGN d 804       7.216  57.413 -15.929  0.00  0.00     0.076 H 
ATOM     87  O5  UAP d 801      -4.900  59.074 -13.582  0.00  0.00    -0.311 OA
ATOM     88  O2  UAP d 801      -4.742  57.269 -11.392  0.00  0.00    -0.244 OA
ATOM     89  O1S UAP d 801      -5.865  55.307 -10.005  0.00  0.00    -0.572 OA
ATOM     90  O3S UAP d 801      -3.728  54.847 -11.016  0.00  0.00    -0.572 OA
ATOM     91  C1  UAP d 801      -3.802  58.176 -13.416  0.00  0.00     0.167 C 
ATOM     92  O2S UAP d 801      -3.864  56.281  -9.087  0.00  0.00    -0.572 OA
ATOM     93  C4  UAP d 801      -4.162  60.302 -11.701  0.00  0.00    -0.034 C 
ATOM     94  C3  UAP d 801      -3.350  59.223 -11.177  0.00  0.00     0.086 C 
ATOM     95  O62 UAP d 801      -6.303  61.150 -14.274  0.00  0.00    -0.642 OA
ATOM     96  S   UAP d 801      -4.541  55.869 -10.331  0.00  0.00     0.252 S 
ATOM     97  C6  UAP d 801      -5.618  61.242 -13.229  0.00  0.00     0.233 C 
ATOM     98  C2  UAP d 801      -3.593  57.920 -11.931  0.00  0.00     0.135 C 
ATOM     99  C5  UAP d 801      -4.883  60.199 -12.837  0.00  0.00     0.147 C 
ATOM    100  O61 UAP d 801      -5.621  62.288 -12.539  0.00  0.00    -0.642 OA
ATOM    101  O3  UAP d 801      -1.987  59.579 -11.237  0.00  0.00    -0.389 OA
ATOM    102  H   UAP d 801      -4.035  57.265 -13.926  0.00  0.00     0.134 H 
ATOM    103  H   UAP d 801      -4.191  61.192 -11.180  0.00  0.00     0.085 H 
ATOM    104  H   UAP d 801      -3.631  59.062 -10.157  0.00  0.00     0.093 H 
ATOM    105  H   UAP d 801      -2.731  57.297 -11.816  0.00  0.00     0.097 H 
ATOM    106  H   UAP d 801      -1.731  59.725 -12.161  0.00  0.00     0.210 HD
ENDROOT
TORSDOF 33
ENDMDL
MODEL 38
REMARK VINA RESULT:      -5.6      2.623      5.052
REMARK  0 active torsions:
REMARK  status: ('A' for Active; 'I' for Inactive)
REMARK       I    between atoms: C2_1  and  O2_62 
REMARK       I    between atoms: O3_2  and  C3_65 
REMARK       I    between atoms: O1_3  and  C1_15 
REMARK       I    between atoms: C5_5  and  C6_58 
REMARK       I    between atoms: C1_6  and  O4_70 
REMARK       I    between atoms: S_7  and  O2_62 
REMARK       I    between atoms: O2_9  and  C2_55 
REMARK       I    between atoms: O2_9  and  S_49 
REMARK       I    between atoms: O4_11  and  C1_28 
REMARK       I    between atoms: O4_11  and  C4_41 
REMARK       I    between atoms: O6_12  and  C6_58 
REMARK       I    between atoms: O6_12  and  S2_38 
REMARK       I    between atoms: S1_16  and  N_21 
REMARK       I    between atoms: S1_16  and  O1S_32 
REMARK       I    between atoms: S1_16  and  O2S_53 
REMARK       I    between atoms: S1_16  and  O3S_24 
REMARK       I    between atoms: N_18  and  C2_66 
REMARK       I    between atoms: N_18  and  S1_37 
REMARK       I    between atoms: C3_19  and  O3_27 
REMARK       I    between atoms: N_21  and  C2_31 
REMARK       I    between atoms: C4_22  and  O4_70 
REMARK       I    between atoms: C6_25  and  C5_46 
REMARK       I    between atoms: C6_25  and  O6_45 
REMARK       I    between atoms: O1_33  and  C1_51 
REMARK       I    between atoms: O1_33  and  C4_34 
REMARK       I    between atoms: O3S_35  and  S1_37 
REMARK       I    between atoms: S1_37  and  O1S_42 
REMARK       I    between atoms: S1_37  and  O2S_63 
REMARK       I    between atoms: O3_39  and  C3_54 
REMARK       I    between atoms: C6_40  and  C5_60 
REMARK       I    between atoms: C3_44  and  O3_64 
REMARK       I    between atoms: O6_45  and  S2_59 
REMARK       I    between atoms: C6_50  and  C5_56 
ROOT
ATOM      1  C2  IDS d 803       1.372  52.947 -12.195  0.00  0.00     0.134 C 
ATOM      2  C1  IDS d 803       2.282  52.858 -13.419  0.00  0.00     0.161 C 
ATOM      3  S   IDS d 803       0.580  50.679 -10.833  0.00  0.00     0.252 S 
ATOM      4  O3S IDS d 803       1.607  49.665 -11.143  0.00  0.00    -0.572 OA
ATOM      5  O5  IDS d 803       1.514  53.065 -14.615  0.00  0.00    -0.340 OA
ATOM      6  C3  IDS d 803       0.609  54.272 -12.196  0.00  0.00     0.094 C 
ATOM      7  O2S IDS d 803       0.950  51.384  -9.591  0.00  0.00    -0.572 OA
ATOM      8  O3  IDS d 803       1.488  55.360 -12.005  0.00  0.00    -0.390 OA
ATOM      9  C4  IDS d 803      -0.160  54.421 -13.508  0.00  0.00     0.103 C 
ATOM     10  C6  IDS d 803       0.086  54.397 -15.993  0.00  0.00     0.206 C 
ATOM     11  O61 IDS d 803      -0.125  55.519 -16.504  0.00  0.00    -0.646 OA
ATOM     12  C5  IDS d 803       0.832  54.328 -14.670  0.00  0.00     0.152 C 
ATOM     13  O2  IDS d 803       0.474  51.840 -12.162  0.00  0.00    -0.244 OA
ATOM     14  O62 IDS d 803      -0.267  53.330 -16.539  0.00  0.00    -0.646 OA
ATOM     15  O1S IDS d 803      -0.725  50.016 -10.654  0.00  0.00    -0.572 OA
ATOM     16  H   IDS d 803       1.976  52.911 -11.313  0.00  0.00     0.097 H 
ATOM     17  H   IDS d 803       2.707  51.877 -13.468  0.00  0.00     0.133 H 
ATOM     18  H   IDS d 803      -0.086  54.270 -11.383  0.00  0.00     0.091 H 
ATOM     19  H   IDS d 803       2.132  55.387 -12.731  0.00  0.00     0.210 HD
ATOM     20  H   IDS d 803      -0.661  55.366 -13.527  0.00  0.00     0.092 H 
ATOM     21  H   IDS d 803       1.527  55.138 -14.593  0.00  0.00     0.104 H 
ATOM     22  O3  SGN d 802      -4.153  50.441 -13.479  0.00  0.00    -0.391 OA
ATOM     23  O4  SGN d 802      -4.177  51.234 -16.185  0.00  0.00    -0.348 OA
ATOM     24  S1  SGN d 802      -3.109  52.586 -10.059  0.00  0.00     0.156 S 
ATOM     25  O5S SGN d 802      -7.466  56.016 -16.408  0.00  0.00    -0.572 OA
ATOM     26  N   SGN d 802      -2.643  52.004 -11.661  0.00  0.00    -0.210 NA
ATOM     27  O3S SGN d 802      -2.445  53.876  -9.798  0.00  0.00    -0.296 OA
ATOM     28  C6  SGN d 802      -4.000  54.126 -16.710  0.00  0.00     0.067 C 
ATOM     29  O5  SGN d 802      -3.130  54.320 -14.488  0.00  0.00    -0.349 OA
ATOM     30  C2  SGN d 802      -3.277  52.583 -12.827  0.00  0.00     0.081 C 
ATOM     31  O1S SGN d 802      -2.695  51.603  -9.042  0.00  0.00    -0.296 OA
ATOM     32  O1  SGN d 802      -1.134  53.380 -13.625  0.00  0.00    -0.348 OA
ATOM     33  C4  SGN d 802      -4.088  52.190 -15.127  0.00  0.00     0.095 C 
ATOM     34  O6  SGN d 802      -5.215  54.651 -16.182  0.00  0.00    -0.254 OA
ATOM     35  C5  SGN d 802      -3.273  53.403 -15.586  0.00  0.00     0.091 C 
ATOM     36  O4S SGN d 802      -6.761  54.740 -18.332  0.00  0.00    -0.572 OA
ATOM     37  C1  SGN d 802      -2.475  53.782 -13.330  0.00  0.00     0.150 C 
ATOM     38  O6S SGN d 802      -5.593  56.766 -17.727  0.00  0.00    -0.572 OA
ATOM     39  O2S SGN d 802      -4.573  52.767 -10.005  0.00  0.00    -0.296 OA
ATOM     40  S2  SGN d 802      -6.305  55.582 -17.208  0.00  0.00     0.251 S 
ATOM     41  C3  SGN d 802      -3.400  51.544 -13.933  0.00  0.00     0.083 C 
ATOM     42  H   SGN d 802      -3.707  50.036 -12.718  0.00  0.00     0.210 HD
ATOM     43  H   SGN d 802      -2.835  51.003 -11.683  0.00  0.00     0.140 HD
ATOM     44  H   SGN d 802      -1.483  53.757  -9.832  0.00  0.00     0.231 HD
ATOM     45  H   SGN d 802      -4.215  53.440 -17.504  0.00  0.00     0.080 H 
ATOM     46  H   SGN d 802      -3.392  54.915 -17.099  0.00  0.00     0.080 H 
ATOM     47  H   SGN d 802      -4.255  52.915 -12.549  0.00  0.00     0.076 H 
ATOM     48  H   SGN d 802      -3.133  50.754  -9.215  0.00  0.00     0.231 HD
ATOM     49  H   SGN d 802      -5.072  52.512 -14.854  0.00  0.00     0.091 H 
ATOM     50  H   SGN d 802      -2.316  53.066 -15.926  0.00  0.00     0.090 H 
ATOM     51  H   SGN d 802      -2.426  54.542 -12.578  0.00  0.00     0.131 H 
ATOM     52  H   SGN d 802      -5.010  51.918 -10.177  0.00  0.00     0.231 HD
ATOM     53  H   SGN d 802      -2.429  51.194 -14.216  0.00  0.00     0.089 H 
ATOM     54  O1  SGN d 804       7.362  55.369 -14.772  0.00  0.00    -0.369 OA
ATOM     55  C5  SGN d 804       5.779  53.462 -13.286  0.00  0.00     0.091 C 
ATOM     56  O6  SGN d 804       5.690  51.170 -12.518  0.00  0.00    -0.254 OA
ATOM     57  O6S SGN d 804       5.910  48.582 -11.967  0.00  0.00    -0.572 OA
ATOM     58  C1  SGN d 804       7.096  54.039 -15.223  0.00  0.00     0.147 C 
ATOM     59  N   SGN d 804       5.992  54.983 -17.185  0.00  0.00    -0.210 NA
ATOM     60  C4  SGN d 804       4.500  53.399 -14.122  0.00  0.00     0.095 C 
ATOM     61  O5S SGN d 804       4.262  49.828 -10.727  0.00  0.00    -0.572 OA
ATOM     62  O3S SGN d 804       7.891  53.458 -18.240  0.00  0.00    -0.296 OA
ATOM     63  S1  SGN d 804       7.179  54.730 -18.472  0.00  0.00     0.156 S 
ATOM     64  S2  SGN d 804       5.614  49.872 -11.317  0.00  0.00     0.251 S 
ATOM     65  O3  SGN d 804       3.473  54.315 -16.097  0.00  0.00    -0.391 OA
ATOM     66  O1S SGN d 804       8.145  55.844 -18.470  0.00  0.00    -0.296 OA
ATOM     67  O5  SGN d 804       6.908  53.143 -14.116  0.00  0.00    -0.350 OA
ATOM     68  C3  SGN d 804       4.624  54.378 -15.285  0.00  0.00     0.083 C 
ATOM     69  C6  SGN d 804       5.720  52.527 -12.081  0.00  0.00     0.067 C 
ATOM     70  O2S SGN d 804       6.493  54.679 -19.777  0.00  0.00    -0.296 OA
ATOM     71  C2  SGN d 804       5.852  54.018 -16.111  0.00  0.00     0.081 C 
ATOM     72  O4S SGN d 804       6.603  50.127 -10.253  0.00  0.00    -0.572 OA
ATOM     73  O4  SGN d 804       3.380  53.767 -13.316  0.00  0.00    -0.348 OA
ATOM     74  H   SGN d 804       7.484  55.952 -15.537  0.00  0.00     0.212 HD
ATOM     75  H   SGN d 804       5.880  54.457 -12.905  0.00  0.00     0.090 H 
ATOM     76  H   SGN d 804       7.944  53.713 -15.787  0.00  0.00     0.131 H 
ATOM     77  H   SGN d 804       6.221  55.875 -16.748  0.00  0.00     0.140 HD
ATOM     78  H   SGN d 804       4.360  52.405 -14.491  0.00  0.00     0.091 H 
ATOM     79  H   SGN d 804       8.342  53.492 -17.383  0.00  0.00     0.231 HD
ATOM     80  H   SGN d 804       2.692  54.545 -15.569  0.00  0.00     0.210 HD
ATOM     81  H   SGN d 804       8.597  55.879 -17.612  0.00  0.00     0.231 HD
ATOM     82  H   SGN d 804       4.723  55.373 -14.902  0.00  0.00     0.089 H 
ATOM     83  H   SGN d 804       4.839  52.736 -11.513  0.00  0.00     0.080 H 
ATOM     84  H   SGN d 804       6.588  52.681 -11.475  0.00  0.00     0.080 H 
ATOM     85  H   SGN d 804       5.857  53.946 -19.779  0.00  0.00     0.231 HD
ATOM     86  H   SGN d 804       5.740  53.037 -16.523  0.00  0.00     0.076 H 
ATOM     87  O5  UAP d 801      -6.499  50.800 -16.010  0.00  0.00    -0.311 OA
ATOM     88  O2  UAP d 801      -6.550  50.335 -18.814  0.00  0.00    -0.244 OA
ATOM     89  O1S UAP d 801      -7.815  50.641 -21.125  0.00  0.00    -0.572 OA
ATOM     90  O3S UAP d 801      -5.609  51.594 -20.950  0.00  0.00    -0.572 OA
ATOM     91  C1  UAP d 801      -5.433  51.210 -16.867  0.00  0.00     0.167 C 
ATOM     92  O2S UAP d 801      -5.880  49.209 -21.125  0.00  0.00    -0.572 OA
ATOM     93  C4  UAP d 801      -5.898  48.541 -16.366  0.00  0.00    -0.034 C 
ATOM     94  C3  UAP d 801      -5.149  48.816 -17.575  0.00  0.00     0.086 C 
ATOM     95  O62 UAP d 801      -7.807  50.025 -13.901  0.00  0.00    -0.642 OA
ATOM     96  S   UAP d 801      -6.460  50.449 -20.576  0.00  0.00     0.252 S 
ATOM     97  C6  UAP d 801      -7.208  49.145 -14.562  0.00  0.00     0.233 C 
ATOM     98  C2  UAP d 801      -5.350  50.252 -18.046  0.00  0.00     0.135 C 
ATOM     99  C5  UAP d 801      -6.525  49.499 -15.652  0.00  0.00     0.147 C 
ATOM    100  O61 UAP d 801      -7.251  47.938 -14.225  0.00  0.00    -0.642 OA
ATOM    101  O3  UAP d 801      -3.780  48.557 -17.358  0.00  0.00    -0.389 OA
ATOM    102  H   UAP d 801      -5.638  52.205 -17.203  0.00  0.00     0.134 H 
ATOM    103  H   UAP d 801      -5.955  47.565 -16.035  0.00  0.00     0.085 H 
ATOM    104  H   UAP d 801      -5.516  48.170 -18.346  0.00  0.00     0.093 H 
ATOM    105  H   UAP d 801      -4.511  50.532 -18.647  0.00  0.00     0.097 H 
ATOM    106  H   UAP d 801      -3.447  49.142 -16.660  0.00  0.00     0.210 HD
ENDROOT
TORSDOF 33
ENDMDL
MODEL 39
REMARK VINA RESULT:      -5.6      2.989      4.101
REMARK  0 active torsions:
REMARK  status: ('A' for Active; 'I' for Inactive)
REMARK       I    between atoms: C2_1  and  O2_62 
REMARK       I    between atoms: O3_2  and  C3_65 
REMARK       I    between atoms: O1_3  and  C1_15 
REMARK       I    between atoms: C5_5  and  C6_58 
REMARK       I    between atoms: C1_6  and  O4_70 
REMARK       I    between atoms: S_7  and  O2_62 
REMARK       I    between atoms: O2_9  and  C2_55 
REMARK       I    between atoms: O2_9  and  S_49 
REMARK       I    between atoms: O4_11  and  C1_28 
REMARK       I    between atoms: O4_11  and  C4_41 
REMARK       I    between atoms: O6_12  and  C6_58 
REMARK       I    between atoms: O6_12  and  S2_38 
REMARK       I    between atoms: S1_16  and  N_21 
REMARK       I    between atoms: S1_16  and  O1S_32 
REMARK       I    between atoms: S1_16  and  O2S_53 
REMARK       I    between atoms: S1_16  and  O3S_24 
REMARK       I    between atoms: N_18  and  C2_66 
REMARK       I    between atoms: N_18  and  S1_37 
REMARK       I    between atoms: C3_19  and  O3_27 
REMARK       I    between atoms: N_21  and  C2_31 
REMARK       I    between atoms: C4_22  and  O4_70 
REMARK       I    between atoms: C6_25  and  C5_46 
REMARK       I    between atoms: C6_25  and  O6_45 
REMARK       I    between atoms: O1_33  and  C1_51 
REMARK       I    between atoms: O1_33  and  C4_34 
REMARK       I    between atoms: O3S_35  and  S1_37 
REMARK       I    between atoms: S1_37  and  O1S_42 
REMARK       I    between atoms: S1_37  and  O2S_63 
REMARK       I    between atoms: O3_39  and  C3_54 
REMARK       I    between atoms: C6_40  and  C5_60 
REMARK       I    between atoms: C3_44  and  O3_64 
REMARK       I    between atoms: O6_45  and  S2_59 
REMARK       I    between atoms: C6_50  and  C5_56 
ROOT
ATOM      1  C2  IDS d 803       5.177  55.575 -15.195  0.00  0.00     0.134 C 
ATOM      2  C1  IDS d 803       5.380  56.807 -16.076  0.00  0.00     0.161 C 
ATOM      3  S   IDS d 803       4.089  53.250 -16.215  0.00  0.00     0.252 S 
ATOM      4  O3S IDS d 803       4.346  53.310 -17.667  0.00  0.00    -0.572 OA
ATOM      5  O5  IDS d 803       4.374  57.789 -15.780  0.00  0.00    -0.340 OA
ATOM      6  C3  IDS d 803       5.145  55.977 -13.720  0.00  0.00     0.094 C 
ATOM      7  O2S IDS d 803       5.193  52.530 -15.553  0.00  0.00    -0.572 OA
ATOM      8  O3  IDS d 803       6.406  56.451 -13.299  0.00  0.00    -0.390 OA
ATOM      9  C4  IDS d 803       4.067  57.037 -13.499  0.00  0.00     0.103 C 
ATOM     10  C6  IDS d 803       3.259  59.269 -14.272  0.00  0.00     0.206 C 
ATOM     11  O61 IDS d 803       3.377  60.150 -13.392  0.00  0.00    -0.646 OA
ATOM     12  C5  IDS d 803       4.358  58.229 -14.413  0.00  0.00     0.152 C 
ATOM     13  O2  IDS d 803       3.981  54.891 -15.565  0.00  0.00    -0.244 OA
ATOM     14  O62 IDS d 803       2.288  59.227 -15.057  0.00  0.00    -0.646 OA
ATOM     15  O1S IDS d 803       2.820  52.540 -15.969  0.00  0.00    -0.572 OA
ATOM     16  H   IDS d 803       6.000  54.907 -15.341  0.00  0.00     0.097 H 
ATOM     17  H   IDS d 803       5.271  56.524 -17.102  0.00  0.00     0.133 H 
ATOM     18  H   IDS d 803       4.911  55.113 -13.132  0.00  0.00     0.091 H 
ATOM     19  H   IDS d 803       6.645  57.237 -13.816  0.00  0.00     0.210 HD
ATOM     20  H   IDS d 803       4.071  57.347 -12.476  0.00  0.00     0.092 H 
ATOM     21  H   IDS d 803       5.304  58.648 -14.139  0.00  0.00     0.104 H 
ATOM     22  O3  SGN d 802      -0.881  54.497 -14.426  0.00  0.00    -0.391 OA
ATOM     23  O4  SGN d 802      -1.636  57.214 -14.455  0.00  0.00    -0.348 OA
ATOM     24  S1  SGN d 802       2.270  52.604 -12.457  0.00  0.00     0.156 S 
ATOM     25  O5S SGN d 802      -2.270  58.745  -8.888  0.00  0.00    -0.572 OA
ATOM     26  N   SGN d 802       1.747  53.869 -13.576  0.00  0.00    -0.210 NA
ATOM     27  O3S SGN d 802       3.475  53.057 -11.739  0.00  0.00    -0.296 OA
ATOM     28  C6  SGN d 802      -0.434  58.936 -12.392  0.00  0.00     0.067 C 
ATOM     29  O5  SGN d 802       1.241  57.239 -12.170  0.00  0.00    -0.349 OA
ATOM     30  C2  SGN d 802       1.025  55.010 -13.053  0.00  0.00     0.081 C 
ATOM     31  O1S SGN d 802       2.578  51.378 -13.215  0.00  0.00    -0.296 OA
ATOM     32  O1  SGN d 802       2.779  56.497 -13.812  0.00  0.00    -0.348 OA
ATOM     33  C4  SGN d 802      -0.721  56.703 -13.484  0.00  0.00     0.095 C 
ATOM     34  O6  SGN d 802      -0.969  58.439 -11.168  0.00  0.00    -0.254 OA
ATOM     35  C5  SGN d 802       0.284  57.791 -13.090  0.00  0.00     0.091 C 
ATOM     36  O4S SGN d 802      -3.034  60.050 -10.770  0.00  0.00    -0.572 OA
ATOM     37  C1  SGN d 802       1.995  56.127 -12.674  0.00  0.00     0.150 C 
ATOM     38  O6S SGN d 802      -0.962  60.616  -9.664  0.00  0.00    -0.572 OA
ATOM     39  O2S SGN d 802       1.193  52.328 -11.486  0.00  0.00    -0.296 OA
ATOM     40  S2  SGN d 802      -1.847  59.509 -10.077  0.00  0.00     0.251 S 
ATOM     41  C3  SGN d 802       0.027  55.520 -14.083  0.00  0.00     0.083 C 
ATOM     42  H   SGN d 802      -0.396  53.748 -14.807  0.00  0.00     0.210 HD
ATOM     43  H   SGN d 802       1.144  53.425 -14.268  0.00  0.00     0.140 HD
ATOM     44  H   SGN d 802       4.182  53.238 -12.377  0.00  0.00     0.231 HD
ATOM     45  H   SGN d 802      -1.225  59.302 -13.012  0.00  0.00     0.080 H 
ATOM     46  H   SGN d 802       0.247  59.739 -12.200  0.00  0.00     0.080 H 
ATOM     47  H   SGN d 802       0.495  54.700 -12.177  0.00  0.00     0.076 H 
ATOM     48  H   SGN d 802       1.784  51.081 -13.687  0.00  0.00     0.231 HD
ATOM     49  H   SGN d 802      -1.261  56.394 -12.614  0.00  0.00     0.091 H 
ATOM     50  H   SGN d 802       0.769  58.148 -13.974  0.00  0.00     0.090 H 
ATOM     51  H   SGN d 802       2.669  55.795 -11.911  0.00  0.00     0.131 H 
ATOM     52  H   SGN d 802       0.400  52.030 -11.959  0.00  0.00     0.231 HD
ATOM     53  H   SGN d 802       0.541  55.825 -14.971  0.00  0.00     0.089 H 
ATOM     54  O1  SGN d 804      10.026  60.119 -17.247  0.00  0.00    -0.369 OA
ATOM     55  C5  SGN d 804       8.511  57.673 -17.510  0.00  0.00     0.091 C 
ATOM     56  O6  SGN d 804       7.740  56.009 -19.087  0.00  0.00    -0.254 OA
ATOM     57  O6S SGN d 804       7.001  54.476 -21.125  0.00  0.00    -0.572 OA
ATOM     58  C1  SGN d 804       9.048  59.900 -18.265  0.00  0.00     0.147 C 
ATOM     59  N   SGN d 804       7.789  61.800 -17.390  0.00  0.00    -0.210 NA
ATOM     60  C4  SGN d 804       7.120  58.118 -17.055  0.00  0.00     0.095 C 
ATOM     61  O5S SGN d 804       6.720  53.565 -18.912  0.00  0.00    -0.572 OA
ATOM     62  O3S SGN d 804       8.224  62.482 -19.918  0.00  0.00    -0.296 OA
ATOM     63  S1  SGN d 804       8.117  63.076 -18.570  0.00  0.00     0.156 S 
ATOM     64  S2  SGN d 804       7.590  54.386 -19.775  0.00  0.00     0.251 S 
ATOM     65  O3  SGN d 804       5.905  60.033 -16.248  0.00  0.00    -0.391 OA
ATOM     66  O1S SGN d 804       9.385  63.746 -18.224  0.00  0.00    -0.296 OA
ATOM     67  O5  SGN d 804       8.946  58.506 -18.597  0.00  0.00    -0.350 OA
ATOM     68  C3  SGN d 804       7.184  59.583 -16.637  0.00  0.00     0.083 C 
ATOM     69  C6  SGN d 804       8.535  56.204 -17.919  0.00  0.00     0.067 C 
ATOM     70  O2S SGN d 804       7.020  64.062 -18.553  0.00  0.00    -0.296 OA
ATOM     71  C2  SGN d 804       7.682  60.416 -17.810  0.00  0.00     0.081 C 
ATOM     72  O4S SGN d 804       8.923  53.761 -19.860  0.00  0.00    -0.572 OA
ATOM     73  O4  SGN d 804       6.703  57.328 -15.940  0.00  0.00    -0.348 OA
ATOM     74  H   SGN d 804      10.074  61.067 -17.043  0.00  0.00     0.212 HD
ATOM     75  H   SGN d 804       9.181  57.779 -16.683  0.00  0.00     0.090 H 
ATOM     76  H   SGN d 804       9.361  60.437 -19.137  0.00  0.00     0.131 H 
ATOM     77  H   SGN d 804       8.540  61.839 -16.701  0.00  0.00     0.140 HD
ATOM     78  H   SGN d 804       6.423  57.994 -17.857  0.00  0.00     0.091 H 
ATOM     79  H   SGN d 804       8.945  61.834 -19.929  0.00  0.00     0.231 HD
ATOM     80  H   SGN d 804       5.589  59.501 -15.500  0.00  0.00     0.210 HD
ATOM     81  H   SGN d 804      10.107  63.098 -18.235  0.00  0.00     0.231 HD
ATOM     82  H   SGN d 804       7.853  59.686 -15.807  0.00  0.00     0.089 H 
ATOM     83  H   SGN d 804       8.145  55.607 -17.122  0.00  0.00     0.080 H 
ATOM     84  H   SGN d 804       9.544  55.915 -18.129  0.00  0.00     0.080 H 
ATOM     85  H   SGN d 804       6.186  63.622 -18.780  0.00  0.00     0.231 HD
ATOM     86  H   SGN d 804       6.997  60.341 -18.628  0.00  0.00     0.076 H 
ATOM     87  O5  UAP d 801      -3.624  56.392 -13.464  0.00  0.00    -0.311 OA
ATOM     88  O2  UAP d 801      -4.991  58.659 -14.500  0.00  0.00    -0.244 OA
ATOM     89  O1S UAP d 801      -6.799  60.563 -14.127  0.00  0.00    -0.572 OA
ATOM     90  O3S UAP d 801      -4.537  61.271 -14.555  0.00  0.00    -0.572 OA
ATOM     91  C1  UAP d 801      -2.929  57.544 -13.945  0.00  0.00     0.167 C 
ATOM     92  O2S UAP d 801      -5.872  60.361 -16.339  0.00  0.00    -0.572 OA
ATOM     93  C4  UAP d 801      -4.275  55.878 -15.678  0.00  0.00    -0.034 C 
ATOM     94  C3  UAP d 801      -4.036  57.216 -16.176  0.00  0.00     0.086 C 
ATOM     95  O62 UAP d 801      -4.172  53.932 -12.827  0.00  0.00    -0.642 OA
ATOM     96  S   UAP d 801      -5.574  60.280 -14.897  0.00  0.00     0.252 S 
ATOM     97  C6  UAP d 801      -4.341  54.268 -14.022  0.00  0.00     0.233 C 
ATOM     98  C2  UAP d 801      -3.756  58.197 -15.043  0.00  0.00     0.135 C 
ATOM     99  C5  UAP d 801      -4.073  55.521 -14.392  0.00  0.00     0.147 C 
ATOM    100  O61 UAP d 801      -4.771  53.453 -14.871  0.00  0.00    -0.642 OA
ATOM    101  O3  UAP d 801      -2.961  57.201 -17.090  0.00  0.00    -0.389 OA
ATOM    102  H   UAP d 801      -2.792  58.218 -13.125  0.00  0.00     0.134 H 
ATOM    103  H   UAP d 801      -4.617  55.162 -16.338  0.00  0.00     0.085 H 
ATOM    104  H   UAP d 801      -4.923  57.547 -16.676  0.00  0.00     0.093 H 
ATOM    105  H   UAP d 801      -3.198  59.020 -15.437  0.00  0.00     0.097 H 
ATOM    106  H   UAP d 801      -2.157  56.902 -16.638  0.00  0.00     0.210 HD
ENDROOT
TORSDOF 33
ENDMDL
MODEL 40
REMARK VINA RESULT:      -5.6      2.924      4.255
REMARK  0 active torsions:
REMARK  status: ('A' for Active; 'I' for Inactive)
REMARK       I    between atoms: C2_1  and  O2_62 
REMARK       I    between atoms: O3_2  and  C3_65 
REMARK       I    between atoms: O1_3  and  C1_15 
REMARK       I    between atoms: C5_5  and  C6_58 
REMARK       I    between atoms: C1_6  and  O4_70 
REMARK       I    between atoms: S_7  and  O2_62 
REMARK       I    between atoms: O2_9  and  C2_55 
REMARK       I    between atoms: O2_9  and  S_49 
REMARK       I    between atoms: O4_11  and  C1_28 
REMARK       I    between atoms: O4_11  and  C4_41 
REMARK       I    between atoms: O6_12  and  C6_58 
REMARK       I    between atoms: O6_12  and  S2_38 
REMARK       I    between atoms: S1_16  and  N_21 
REMARK       I    between atoms: S1_16  and  O1S_32 
REMARK       I    between atoms: S1_16  and  O2S_53 
REMARK       I    between atoms: S1_16  and  O3S_24 
REMARK       I    between atoms: N_18  and  C2_66 
REMARK       I    between atoms: N_18  and  S1_37 
REMARK       I    between atoms: C3_19  and  O3_27 
REMARK       I    between atoms: N_21  and  C2_31 
REMARK       I    between atoms: C4_22  and  O4_70 
REMARK       I    between atoms: C6_25  and  C5_46 
REMARK       I    between atoms: C6_25  and  O6_45 
REMARK       I    between atoms: O1_33  and  C1_51 
REMARK       I    between atoms: O1_33  and  C4_34 
REMARK       I    between atoms: O3S_35  and  S1_37 
REMARK       I    between atoms: S1_37  and  O1S_42 
REMARK       I    between atoms: S1_37  and  O2S_63 
REMARK       I    between atoms: O3_39  and  C3_54 
REMARK       I    between atoms: C6_40  and  C5_60 
REMARK       I    between atoms: C3_44  and  O3_64 
REMARK       I    between atoms: O6_45  and  S2_59 
REMARK       I    between atoms: C6_50  and  C5_56 
ROOT
ATOM      1  C2  IDS d 803       3.724  54.724 -15.581  0.00  0.00     0.134 C 
ATOM      2  C1  IDS d 803       3.240  56.166 -15.430  0.00  0.00     0.161 C 
ATOM      3  S   IDS d 803       2.861  53.137 -17.669  0.00  0.00     0.252 S 
ATOM      4  O3S IDS d 803       2.443  54.081 -18.723  0.00  0.00    -0.572 OA
ATOM      5  O5  IDS d 803       2.268  56.247 -14.375  0.00  0.00    -0.340 OA
ATOM      6  C3  IDS d 803       4.244  54.196 -14.243  0.00  0.00     0.094 C 
ATOM      7  O2S IDS d 803       4.274  52.769 -17.877  0.00  0.00    -0.572 OA
ATOM      8  O3  IDS d 803       5.419  54.876 -13.854  0.00  0.00    -0.390 OA
ATOM      9  C4  IDS d 803       3.158  54.340 -13.177  0.00  0.00     0.103 C 
ATOM     10  C6  IDS d 803       1.613  55.974 -12.093  0.00  0.00     0.206 C 
ATOM     11  O61 IDS d 803       1.897  56.175 -10.892  0.00  0.00    -0.646 OA
ATOM     12  C5  IDS d 803       2.747  55.811 -13.093  0.00  0.00     0.152 C 
ATOM     13  O2  IDS d 803       2.676  53.899 -16.084  0.00  0.00    -0.244 OA
ATOM     14  O62 IDS d 803       0.435  55.929 -12.510  0.00  0.00    -0.646 OA
ATOM     15  O1S IDS d 803       2.021  51.926 -17.733  0.00  0.00    -0.572 OA
ATOM     16  H   IDS d 803       4.530  54.703 -16.283  0.00  0.00     0.097 H 
ATOM     17  H   IDS d 803       2.765  56.472 -16.338  0.00  0.00     0.133 H 
ATOM     18  H   IDS d 803       4.490  53.161 -14.353  0.00  0.00     0.091 H 
ATOM     19  H   IDS d 803       5.226  55.820 -13.746  0.00  0.00     0.210 HD
ATOM     20  H   IDS d 803       3.535  54.008 -12.233  0.00  0.00     0.092 H 
ATOM     21  H   IDS d 803       3.595  56.388 -12.789  0.00  0.00     0.104 H 
ATOM     22  O3  SGN d 802      -0.984  50.802 -14.632  0.00  0.00    -0.391 OA
ATOM     23  O4  SGN d 802      -2.271  52.401 -12.699  0.00  0.00    -0.348 OA
ATOM     24  S1  SGN d 802       3.047  49.821 -15.057  0.00  0.00     0.156 S 
ATOM     25  O5S SGN d 802      -0.761  50.186  -7.545  0.00  0.00    -0.572 OA
ATOM     26  N   SGN d 802       1.820  51.086 -14.922  0.00  0.00    -0.210 NA
ATOM     27  O3S SGN d 802       4.307  50.299 -14.458  0.00  0.00    -0.296 OA
ATOM     28  C6  SGN d 802      -0.719  53.048 -10.281  0.00  0.00     0.067 C 
ATOM     29  O5  SGN d 802       1.223  52.484 -11.564  0.00  0.00    -0.349 OA
ATOM     30  C2  SGN d 802       1.158  51.285 -13.650  0.00  0.00     0.081 C 
ATOM     31  O1S SGN d 802       3.266  49.502 -16.479  0.00  0.00    -0.296 OA
ATOM     32  O1  SGN d 802       2.022  53.543 -13.526  0.00  0.00    -0.348 OA
ATOM     33  C4  SGN d 802      -0.936  51.928 -12.508  0.00  0.00     0.095 C 
ATOM     34  O6  SGN d 802      -0.543  51.791  -9.633  0.00  0.00    -0.254 OA
ATOM     35  C5  SGN d 802      -0.136  52.940 -11.682  0.00  0.00     0.091 C 
ATOM     36  O4S SGN d 802      -2.538  51.782  -7.889  0.00  0.00    -0.572 OA
ATOM     37  C1  SGN d 802       1.915  52.310 -12.809  0.00  0.00     0.150 C 
ATOM     38  O6S SGN d 802      -0.380  52.523  -7.095  0.00  0.00    -0.572 OA
ATOM     39  O2S SGN d 802       2.591  48.613 -14.343  0.00  0.00    -0.296 OA
ATOM     40  S2  SGN d 802      -1.080  51.562  -7.969  0.00  0.00     0.251 S 
ATOM     41  C3  SGN d 802      -0.275  51.752 -13.868  0.00  0.00     0.083 C 
ATOM     42  H   SGN d 802      -0.555  50.697 -15.496  0.00  0.00     0.210 HD
ATOM     43  H   SGN d 802       1.095  50.874 -15.607  0.00  0.00     0.140 HD
ATOM     44  H   SGN d 802       4.607  51.093 -14.928  0.00  0.00     0.231 HD
ATOM     45  H   SGN d 802      -1.761  53.285 -10.339  0.00  0.00     0.080 H 
ATOM     46  H   SGN d 802      -0.225  53.822  -9.732  0.00  0.00     0.080 H 
ATOM     47  H   SGN d 802       1.145  50.351 -13.128  0.00  0.00     0.076 H 
ATOM     48  H   SGN d 802       2.436  49.188 -16.872  0.00  0.00     0.231 HD
ATOM     49  H   SGN d 802      -0.960  50.993 -11.988  0.00  0.00     0.091 H 
ATOM     50  H   SGN d 802      -0.176  53.891 -12.170  0.00  0.00     0.090 H 
ATOM     51  H   SGN d 802       2.909  51.968 -12.606  0.00  0.00     0.131 H 
ATOM     52  H   SGN d 802       1.762  48.298 -14.737  0.00  0.00     0.231 HD
ATOM     53  H   SGN d 802      -0.280  52.681 -14.399  0.00  0.00     0.089 H 
ATOM     54  O1  SGN d 804       6.036  61.251 -14.916  0.00  0.00    -0.369 OA
ATOM     55  C5  SGN d 804       5.155  58.973 -16.461  0.00  0.00     0.091 C 
ATOM     56  O6  SGN d 804       4.177  58.299 -18.568  0.00  0.00    -0.254 OA
ATOM     57  O6S SGN d 804       2.997  57.981 -20.925  0.00  0.00    -0.572 OA
ATOM     58  C1  SGN d 804       4.791  61.204 -15.616  0.00  0.00     0.147 C 
ATOM     59  N   SGN d 804       3.641  61.506 -13.484  0.00  0.00    -0.210 NA
ATOM     60  C4  SGN d 804       4.038  58.413 -15.580  0.00  0.00     0.095 C 
ATOM     61  O5S SGN d 804       3.917  56.010 -19.887  0.00  0.00    -0.572 OA
ATOM     62  O3S SGN d 804       2.771  63.555 -14.930  0.00  0.00    -0.296 OA
ATOM     63  S1  SGN d 804       3.127  63.197 -13.542  0.00  0.00     0.156 S 
ATOM     64  S2  SGN d 804       4.116  57.453 -20.121  0.00  0.00     0.251 S 
ATOM     65  O3  SGN d 804       2.893  58.783 -13.495  0.00  0.00    -0.391 OA
ATOM     66  O1S SGN d 804       4.231  64.059 -13.079  0.00  0.00    -0.296 OA
ATOM     67  O5  SGN d 804       4.875  60.350 -16.768  0.00  0.00    -0.350 OA
ATOM     68  C3  SGN d 804       3.942  59.254 -14.311  0.00  0.00     0.083 C 
ATOM     69  C6  SGN d 804       5.332  58.165 -17.743  0.00  0.00     0.067 C 
ATOM     70  O2S SGN d 804       1.954  63.390 -12.669  0.00  0.00    -0.296 OA
ATOM     71  C2  SGN d 804       3.680  60.705 -14.692  0.00  0.00     0.081 C 
ATOM     72  O4S SGN d 804       5.384  57.660 -20.845  0.00  0.00    -0.572 OA
ATOM     73  O4  SGN d 804       4.336  57.061 -15.227  0.00  0.00    -0.348 OA
ATOM     74  H   SGN d 804       5.951  61.833 -14.145  0.00  0.00     0.212 HD
ATOM     75  H   SGN d 804       6.074  58.904 -15.918  0.00  0.00     0.090 H 
ATOM     76  H   SGN d 804       4.565  62.198 -15.943  0.00  0.00     0.131 H 
ATOM     77  H   SGN d 804       4.585  61.501 -13.100  0.00  0.00     0.140 HD
ATOM     78  H   SGN d 804       3.110  58.444 -16.112  0.00  0.00     0.091 H 
ATOM     79  H   SGN d 804       3.543  63.428 -15.505  0.00  0.00     0.231 HD
ATOM     80  H   SGN d 804       3.061  57.858 -13.253  0.00  0.00     0.210 HD
ATOM     81  H   SGN d 804       5.003  63.933 -13.652  0.00  0.00     0.231 HD
ATOM     82  H   SGN d 804       4.862  59.181 -13.768  0.00  0.00     0.089 H 
ATOM     83  H   SGN d 804       5.472  57.134 -17.494  0.00  0.00     0.080 H 
ATOM     84  H   SGN d 804       6.186  58.531 -18.273  0.00  0.00     0.080 H 
ATOM     85  H   SGN d 804       1.228  62.824 -12.973  0.00  0.00     0.231 HD
ATOM     86  H   SGN d 804       2.745  60.784 -15.206  0.00  0.00     0.076 H 
ATOM     87  O5  UAP d 801      -3.389  50.382 -12.167  0.00  0.00    -0.311 OA
ATOM     88  O2  UAP d 801      -5.545  51.929 -11.148  0.00  0.00    -0.244 OA
ATOM     89  O1S UAP d 801      -7.392  52.258  -9.273  0.00  0.00    -0.572 OA
ATOM     90  O3S UAP d 801      -5.765  54.016  -9.525  0.00  0.00    -0.572 OA
ATOM     91  C1  UAP d 801      -3.253  51.773 -11.872  0.00  0.00     0.167 C 
ATOM     92  O2S UAP d 801      -7.496  53.732 -11.173  0.00  0.00    -0.572 OA
ATOM     93  C4  UAP d 801      -4.799  50.921 -13.987  0.00  0.00    -0.034 C 
ATOM     94  C3  UAP d 801      -5.110  52.247 -13.496  0.00  0.00     0.086 C 
ATOM     95  O62 UAP d 801      -3.034  48.046 -13.251  0.00  0.00    -0.642 OA
ATOM     96  S   UAP d 801      -6.593  53.029 -10.243  0.00  0.00     0.252 S 
ATOM     97  C6  UAP d 801      -3.775  48.854 -13.857  0.00  0.00     0.233 C 
ATOM     98  C2  UAP d 801      -4.597  52.456 -12.075  0.00  0.00     0.135 C 
ATOM     99  C5  UAP d 801      -3.985  50.064 -13.335  0.00  0.00     0.147 C 
ATOM    100  O61 UAP d 801      -4.333  48.541 -14.935  0.00  0.00    -0.642 OA
ATOM    101  O3  UAP d 801      -4.565  53.217 -14.362  0.00  0.00    -0.389 OA
ATOM    102  H   UAP d 801      -2.931  51.869 -10.856  0.00  0.00     0.134 H 
ATOM    103  H   UAP d 801      -5.221  50.616 -14.878  0.00  0.00     0.085 H 
ATOM    104  H   UAP d 801      -6.175  52.350 -13.472  0.00  0.00     0.093 H 
ATOM    105  H   UAP d 801      -4.469  53.504 -11.912  0.00  0.00     0.097 H 
ATOM    106  H   UAP d 801      -3.600  53.125 -14.384  0.00  0.00     0.210 HD
ENDROOT
TORSDOF 33
ENDMDL
MODEL 41
REMARK VINA RESULT:      -5.6      2.914      5.713
REMARK  0 active torsions:
REMARK  status: ('A' for Active; 'I' for Inactive)
REMARK       I    between atoms: C2_1  and  O2_62 
REMARK       I    between atoms: O3_2  and  C3_65 
REMARK       I    between atoms: O1_3  and  C1_15 
REMARK       I    between atoms: C5_5  and  C6_58 
REMARK       I    between atoms: C1_6  and  O4_70 
REMARK       I    between atoms: S_7  and  O2_62 
REMARK       I    between atoms: O2_9  and  C2_55 
REMARK       I    between atoms: O2_9  and  S_49 
REMARK       I    between atoms: O4_11  and  C1_28 
REMARK       I    between atoms: O4_11  and  C4_41 
REMARK       I    between atoms: O6_12  and  C6_58 
REMARK       I    between atoms: O6_12  and  S2_38 
REMARK       I    between atoms: S1_16  and  N_21 
REMARK       I    between atoms: S1_16  and  O1S_32 
REMARK       I    between atoms: S1_16  and  O2S_53 
REMARK       I    between atoms: S1_16  and  O3S_24 
REMARK       I    between atoms: N_18  and  C2_66 
REMARK       I    between atoms: N_18  and  S1_37 
REMARK       I    between atoms: C3_19  and  O3_27 
REMARK       I    between atoms: N_21  and  C2_31 
REMARK       I    between atoms: C4_22  and  O4_70 
REMARK       I    between atoms: C6_25  and  C5_46 
REMARK       I    between atoms: C6_25  and  O6_45 
REMARK       I    between atoms: O1_33  and  C1_51 
REMARK       I    between atoms: O1_33  and  C4_34 
REMARK       I    between atoms: O3S_35  and  S1_37 
REMARK       I    between atoms: S1_37  and  O1S_42 
REMARK       I    between atoms: S1_37  and  O2S_63 
REMARK       I    between atoms: O3_39  and  C3_54 
REMARK       I    between atoms: C6_40  and  C5_60 
REMARK       I    between atoms: C3_44  and  O3_64 
REMARK       I    between atoms: O6_45  and  S2_59 
REMARK       I    between atoms: C6_50  and  C5_56 
ROOT
ATOM      1  C2  IDS d 803       0.567  54.761 -12.156  0.00  0.00     0.134 C 
ATOM      2  C1  IDS d 803       1.443  54.544 -13.389  0.00  0.00     0.161 C 
ATOM      3  S   IDS d 803      -0.615  52.635 -10.848  0.00  0.00     0.252 S 
ATOM      4  O3S IDS d 803       0.214  51.463 -11.191  0.00  0.00    -0.572 OA
ATOM      5  O5  IDS d 803       0.721  54.918 -14.573  0.00  0.00    -0.340 OA
ATOM      6  C3  IDS d 803       0.054  56.201 -12.117  0.00  0.00     0.094 C 
ATOM      7  O2S IDS d 803      -0.121  53.229  -9.591  0.00  0.00    -0.572 OA
ATOM      8  O3  IDS d 803       1.114  57.109 -11.904  0.00  0.00    -0.390 OA
ATOM      9  C4  IDS d 803      -0.680  56.520 -13.418  0.00  0.00     0.103 C 
ATOM     10  C6  IDS d 803      -0.450  56.520 -15.905  0.00  0.00     0.206 C 
ATOM     11  O61 IDS d 803      -0.458  57.675 -16.385  0.00  0.00    -0.646 OA
ATOM     12  C5  IDS d 803       0.276  56.283 -14.589  0.00  0.00     0.152 C 
ATOM     13  O2  IDS d 803      -0.515  53.832 -12.145  0.00  0.00    -0.244 OA
ATOM     14  O62 IDS d 803      -0.989  55.548 -16.475  0.00  0.00    -0.646 OA
ATOM     15  O1S IDS d 803      -2.017  52.212 -10.676  0.00  0.00    -0.572 OA
ATOM     16  H   IDS d 803       1.157  54.594 -11.279  0.00  0.00     0.097 H 
ATOM     17  H   IDS d 803       1.685  53.504 -13.466  0.00  0.00     0.133 H 
ATOM     18  H   IDS d 803      -0.628  56.302 -11.298  0.00  0.00     0.091 H 
ATOM     19  H   IDS d 803       1.750  57.040 -12.634  0.00  0.00     0.210 HD
ATOM     20  H   IDS d 803      -1.004  57.540 -13.408  0.00  0.00     0.092 H 
ATOM     21  H   IDS d 803       1.105  56.953 -14.497  0.00  0.00     0.104 H 
ATOM     22  O3  SGN d 802      -5.321  53.320 -13.462  0.00  0.00    -0.391 OA
ATOM     23  O4  SGN d 802      -5.211  54.177 -16.146  0.00  0.00    -0.348 OA
ATOM     24  S1  SGN d 802      -3.900  55.150  -9.996  0.00  0.00     0.156 S 
ATOM     25  O5S SGN d 802      -7.590  59.475 -16.220  0.00  0.00    -0.572 OA
ATOM     26  N   SGN d 802      -3.551  54.538 -11.616  0.00  0.00    -0.210 NA
ATOM     27  O3S SGN d 802      -3.015  56.294  -9.706  0.00  0.00    -0.296 OA
ATOM     28  C6  SGN d 802      -4.520  57.004 -16.598  0.00  0.00     0.067 C 
ATOM     29  O5  SGN d 802      -3.623  56.979 -14.378  0.00  0.00    -0.349 OA
ATOM     30  C2  SGN d 802      -4.073  55.253 -12.761  0.00  0.00     0.081 C 
ATOM     31  O1S SGN d 802      -3.666  54.082  -9.008  0.00  0.00    -0.296 OA
ATOM     32  O1  SGN d 802      -1.825  55.674 -13.555  0.00  0.00    -0.348 OA
ATOM     33  C4  SGN d 802      -4.949  55.073 -15.065  0.00  0.00     0.095 C 
ATOM     34  O6  SGN d 802      -5.620  57.723 -16.047  0.00  0.00    -0.254 OA
ATOM     35  C5  SGN d 802      -3.931  56.132 -15.498  0.00  0.00     0.091 C 
ATOM     36  O4S SGN d 802      -7.131  58.146 -18.181  0.00  0.00    -0.572 OA
ATOM     37  C1  SGN d 802      -3.071  56.301 -13.239  0.00  0.00     0.150 C 
ATOM     38  O6S SGN d 802      -5.617  59.913 -17.533  0.00  0.00    -0.572 OA
ATOM     39  O2S SGN d 802      -5.308  55.589  -9.926  0.00  0.00    -0.296 OA
ATOM     40  S2  SGN d 802      -6.528  58.862 -17.039  0.00  0.00     0.251 S 
ATOM     41  C3  SGN d 802      -4.384  54.282 -13.893  0.00  0.00     0.083 C 
ATOM     42  H   SGN d 802      -4.952  52.821 -12.716  0.00  0.00     0.210 HD
ATOM     43  H   SGN d 802      -3.919  53.588 -11.663  0.00  0.00     0.140 HD
ATOM     44  H   SGN d 802      -2.090  56.005  -9.751  0.00  0.00     0.231 HD
ATOM     45  H   SGN d 802      -4.856  56.390 -17.407  0.00  0.00     0.080 H 
ATOM     46  H   SGN d 802      -3.781  57.682 -16.971  0.00  0.00     0.080 H 
ATOM     47  H   SGN d 802      -4.976  55.746 -12.467  0.00  0.00     0.076 H 
ATOM     48  H   SGN d 802      -4.249  53.331  -9.199  0.00  0.00     0.231 HD
ATOM     49  H   SGN d 802      -5.858  55.559 -14.776  0.00  0.00     0.091 H 
ATOM     50  H   SGN d 802      -3.051  55.639 -15.855  0.00  0.00     0.090 H 
ATOM     51  H   SGN d 802      -2.885  57.020 -12.468  0.00  0.00     0.131 H 
ATOM     52  H   SGN d 802      -5.890  54.837 -10.117  0.00  0.00     0.231 HD
ATOM     53  H   SGN d 802      -3.492  53.772 -14.193  0.00  0.00     0.089 H 
ATOM     54  O1  SGN d 804       6.886  56.141 -14.714  0.00  0.00    -0.369 OA
ATOM     55  C5  SGN d 804       4.992  54.508 -13.266  0.00  0.00     0.091 C 
ATOM     56  O6  SGN d 804       4.496  52.249 -12.558  0.00  0.00    -0.254 OA
ATOM     57  O6S SGN d 804       4.250  49.650 -12.076  0.00  0.00    -0.572 OA
ATOM     58  C1  SGN d 804       6.385  54.893 -15.197  0.00  0.00     0.147 C 
ATOM     59  N   SGN d 804       5.462  56.071 -17.126  0.00  0.00    -0.210 NA
ATOM     60  C4  SGN d 804       3.720  54.698 -14.094  0.00  0.00     0.095 C 
ATOM     61  O5S SGN d 804       2.856  51.137 -10.791  0.00  0.00    -0.572 OA
ATOM     62  O3S SGN d 804       7.055  54.260 -18.235  0.00  0.00    -0.296 OA
ATOM     63  S1  SGN d 804       6.581  55.645 -18.428  0.00  0.00     0.156 S 
ATOM     64  S2  SGN d 804       4.192  50.955 -11.390  0.00  0.00     0.251 S 
ATOM     65  O3  SGN d 804       2.868  55.836 -16.037  0.00  0.00    -0.391 OA
ATOM     66  O1S SGN d 804       7.732  56.568 -18.405  0.00  0.00    -0.296 OA
ATOM     67  O5  SGN d 804       6.043  54.015 -14.114  0.00  0.00    -0.350 OA
ATOM     68  C3  SGN d 804       4.014  55.670 -15.232  0.00  0.00     0.083 C 
ATOM     69  C6  SGN d 804       4.770  53.567 -12.086  0.00  0.00     0.067 C 
ATOM     70  O2S SGN d 804       5.893  55.753 -19.729  0.00  0.00    -0.296 OA
ATOM     71  C2  SGN d 804       5.155  55.119 -16.077  0.00  0.00     0.081 C 
ATOM     72  O4S SGN d 804       5.214  50.999 -10.328  0.00  0.00    -0.572 OA
ATOM     73  O4  SGN d 804       2.686  55.239 -13.270  0.00  0.00    -0.348 OA
ATOM     74  H   SGN d 804       7.109  56.713 -15.465  0.00  0.00     0.212 HD
ATOM     75  H   SGN d 804       5.271  55.458 -12.860  0.00  0.00     0.090 H 
ATOM     76  H   SGN d 804       7.160  54.435 -15.777  0.00  0.00     0.131 H 
ATOM     77  H   SGN d 804       5.849  56.896 -16.668  0.00  0.00     0.140 HD
ATOM     78  H   SGN d 804       3.403  53.755 -14.488  0.00  0.00     0.091 H 
ATOM     79  H   SGN d 804       7.508  54.189 -17.380  0.00  0.00     0.231 HD
ATOM     80  H   SGN d 804       2.142  56.187 -15.497  0.00  0.00     0.210 HD
ATOM     81  H   SGN d 804       8.185  56.498 -17.550  0.00  0.00     0.231 HD
ATOM     82  H   SGN d 804       4.290  56.621 -14.824  0.00  0.00     0.089 H 
ATOM     83  H   SGN d 804       3.942  53.915 -11.506  0.00  0.00     0.080 H 
ATOM     84  H   SGN d 804       5.653  53.547 -11.483  0.00  0.00     0.080 H 
ATOM     85  H   SGN d 804       5.137  55.146 -19.746  0.00  0.00     0.231 HD
ATOM     86  H   SGN d 804       4.869  54.185 -16.513  0.00  0.00     0.076 H 
ATOM     87  O5  UAP d 801      -7.572  54.161 -15.965  0.00  0.00    -0.311 OA
ATOM     88  O2  UAP d 801      -7.713  53.789 -18.780  0.00  0.00    -0.244 OA
ATOM     89  O1S UAP d 801      -8.909  54.379 -21.072  0.00  0.00    -0.572 OA
ATOM     90  O3S UAP d 801      -6.569  54.916 -20.890  0.00  0.00    -0.572 OA
ATOM     91  C1  UAP d 801      -6.452  54.397 -16.820  0.00  0.00     0.167 C 
ATOM     92  O2S UAP d 801      -7.263  52.624 -21.125  0.00  0.00    -0.572 OA
ATOM     93  C4  UAP d 801      -7.386  51.842 -16.385  0.00  0.00    -0.034 C 
ATOM     94  C3  UAP d 801      -6.604  52.011 -17.591  0.00  0.00     0.086 C 
ATOM     95  O62 UAP d 801      -8.992  53.576 -13.867  0.00  0.00    -0.642 OA
ATOM     96  S   UAP d 801      -7.609  53.932 -20.539  0.00  0.00     0.252 S 
ATOM     97  C6  UAP d 801      -8.562  52.621 -14.555  0.00  0.00     0.233 C 
ATOM     98  C2  UAP d 801      -6.546  53.472 -18.024  0.00  0.00     0.135 C 
ATOM     99  C5  UAP d 801      -7.830  52.877 -15.641  0.00  0.00     0.147 C 
ATOM    100  O61 UAP d 801      -8.820  51.433 -14.250  0.00  0.00    -0.642 OA
ATOM    101  O3  UAP d 801      -5.302  51.505 -17.392  0.00  0.00    -0.389 OA
ATOM    102  H   UAP d 801      -6.477  55.421 -17.128  0.00  0.00     0.134 H 
ATOM    103  H   UAP d 801      -7.616  50.883 -16.079  0.00  0.00     0.085 H 
ATOM    104  H   UAP d 801      -7.082  51.462 -18.376  0.00  0.00     0.093 H 
ATOM    105  H   UAP d 801      -5.672  53.613 -18.624  0.00  0.00     0.097 H 
ATOM    106  H   UAP d 801      -4.868  52.002 -16.681  0.00  0.00     0.210 HD
ENDROOT
TORSDOF 33
ENDMDL
MODEL 42
REMARK VINA RESULT:      -5.5      4.654      9.619
REMARK  0 active torsions:
REMARK  status: ('A' for Active; 'I' for Inactive)
REMARK       I    between atoms: C2_1  and  O2_62 
REMARK       I    between atoms: O3_2  and  C3_65 
REMARK       I    between atoms: O1_3  and  C1_15 
REMARK       I    between atoms: C5_5  and  C6_58 
REMARK       I    between atoms: C1_6  and  O4_70 
REMARK       I    between atoms: S_7  and  O2_62 
REMARK       I    between atoms: O2_9  and  C2_55 
REMARK       I    between atoms: O2_9  and  S_49 
REMARK       I    between atoms: O4_11  and  C1_28 
REMARK       I    between atoms: O4_11  and  C4_41 
REMARK       I    between atoms: O6_12  and  C6_58 
REMARK       I    between atoms: O6_12  and  S2_38 
REMARK       I    between atoms: S1_16  and  N_21 
REMARK       I    between atoms: S1_16  and  O1S_32 
REMARK       I    between atoms: S1_16  and  O2S_53 
REMARK       I    between atoms: S1_16  and  O3S_24 
REMARK       I    between atoms: N_18  and  C2_66 
REMARK       I    between atoms: N_18  and  S1_37 
REMARK       I    between atoms: C3_19  and  O3_27 
REMARK       I    between atoms: N_21  and  C2_31 
REMARK       I    between atoms: C4_22  and  O4_70 
REMARK       I    between atoms: C6_25  and  C5_46 
REMARK       I    between atoms: C6_25  and  O6_45 
REMARK       I    between atoms: O1_33  and  C1_51 
REMARK       I    between atoms: O1_33  and  C4_34 
REMARK       I    between atoms: O3S_35  and  S1_37 
REMARK       I    between atoms: S1_37  and  O1S_42 
REMARK       I    between atoms: S1_37  and  O2S_63 
REMARK       I    between atoms: O3_39  and  C3_54 
REMARK       I    between atoms: C6_40  and  C5_60 
REMARK       I    between atoms: C3_44  and  O3_64 
REMARK       I    between atoms: O6_45  and  S2_59 
REMARK       I    between atoms: C6_50  and  C5_56 
ROOT
ATOM      1  C2  IDS d 803      -2.797  57.615 -10.623  0.00  0.00     0.134 C 
ATOM      2  C1  IDS d 803      -2.790  58.389 -11.940  0.00  0.00     0.161 C 
ATOM      3  S   IDS d 803      -0.536  57.457  -9.045  0.00  0.00     0.252 S 
ATOM      4  O3S IDS d 803       0.276  58.632  -9.416  0.00  0.00    -0.572 OA
ATOM      5  O5  IDS d 803      -2.742  57.472 -13.045  0.00  0.00    -0.340 OA
ATOM      6  C3  IDS d 803      -3.940  56.600 -10.609  0.00  0.00     0.094 C 
ATOM      7  O2S IDS d 803      -1.400  57.803  -7.900  0.00  0.00    -0.572 OA
ATOM      8  O3  IDS d 803      -5.193  57.251 -10.590  0.00  0.00    -0.390 OA
ATOM      9  C4  IDS d 803      -3.826  55.682 -11.826  0.00  0.00     0.103 C 
ATOM     10  C6  IDS d 803      -3.648  55.662 -14.316  0.00  0.00     0.206 C 
ATOM     11  O61 IDS d 803      -4.659  55.171 -14.863  0.00  0.00    -0.646 OA
ATOM     12  C5  IDS d 803      -3.836  56.542 -13.091  0.00  0.00     0.152 C 
ATOM     13  O2  IDS d 803      -1.540  56.973 -10.417  0.00  0.00    -0.244 OA
ATOM     14  O62 IDS d 803      -2.490  55.481 -14.752  0.00  0.00    -0.646 OA
ATOM     15  O1S IDS d 803       0.355  56.343  -8.671  0.00  0.00    -0.572 OA
ATOM     16  H   IDS d 803      -2.953  58.303  -9.819  0.00  0.00     0.097 H 
ATOM     17  H   IDS d 803      -1.912  58.999 -11.982  0.00  0.00     0.133 H 
ATOM     18  H   IDS d 803      -3.867  56.010  -9.719  0.00  0.00     0.091 H 
ATOM     19  H   IDS d 803      -5.287  57.794 -11.388  0.00  0.00     0.210 HD
ATOM     20  H   IDS d 803      -4.648  54.997 -11.839  0.00  0.00     0.092 H 
ATOM     21  H   IDS d 803      -4.771  57.059 -13.146  0.00  0.00     0.104 H 
ATOM     22  O3  SGN d 802       0.851  52.621 -11.082  0.00  0.00    -0.391 OA
ATOM     23  O4  SGN d 802       0.303  52.147 -13.807  0.00  0.00    -0.348 OA
ATOM     24  S1  SGN d 802      -1.732  53.557  -7.944  0.00  0.00     0.156 S 
ATOM     25  O5S SGN d 802      -3.699  47.938 -13.912  0.00  0.00    -0.572 OA
ATOM     26  N   SGN d 802      -1.124  53.960  -9.554  0.00  0.00    -0.210 NA
ATOM     27  O3S SGN d 802      -3.145  53.965  -7.841  0.00  0.00    -0.296 OA
ATOM     28  C6  SGN d 802      -2.514  51.668 -14.519  0.00  0.00     0.067 C 
ATOM     29  O5  SGN d 802      -3.058  52.709 -12.433  0.00  0.00    -0.349 OA
ATOM     30  C2  SGN d 802      -1.469  53.101 -10.667  0.00  0.00     0.081 C 
ATOM     31  O1S SGN d 802      -0.937  54.271  -6.929  0.00  0.00    -0.296 OA
ATOM     32  O1  SGN d 802      -2.606  54.936 -11.763  0.00  0.00    -0.348 OA
ATOM     33  C4  SGN d 802      -0.736  52.148 -12.825  0.00  0.00     0.095 C 
ATOM     34  O6  SGN d 802      -2.830  50.433 -13.880  0.00  0.00    -0.254 OA
ATOM     35  C5  SGN d 802      -2.044  52.643 -13.450  0.00  0.00     0.091 C 
ATOM     36  O4S SGN d 802      -2.435  48.682 -15.828  0.00  0.00    -0.572 OA
ATOM     37  C1  SGN d 802      -2.758  53.581 -11.332  0.00  0.00     0.150 C 
ATOM     38  O6S SGN d 802      -4.694  49.466 -15.489  0.00  0.00    -0.572 OA
ATOM     39  O2S SGN d 802      -1.623  52.102  -7.725  0.00  0.00    -0.296 OA
ATOM     40  S2  SGN d 802      -3.440  49.072 -14.819  0.00  0.00     0.251 S 
ATOM     41  C3  SGN d 802      -0.338  53.078 -11.687  0.00  0.00     0.083 C 
ATOM     42  H   SGN d 802       1.095  53.220 -10.358  0.00  0.00     0.210 HD
ATOM     43  H   SGN d 802      -0.106  53.978  -9.494  0.00  0.00     0.140 HD
ATOM     44  H   SGN d 802      -3.216  54.921  -7.984  0.00  0.00     0.231 HD
ATOM     45  H   SGN d 802      -1.738  51.515 -15.239  0.00  0.00     0.080 H 
ATOM     46  H   SGN d 802      -3.374  52.055 -15.023  0.00  0.00     0.080 H 
ATOM     47  H   SGN d 802      -1.622  52.110 -10.293  0.00  0.00     0.076 H 
ATOM     48  H   SGN d 802      -0.007  54.001  -6.997  0.00  0.00     0.231 HD
ATOM     49  H   SGN d 802      -0.878  51.154 -12.456  0.00  0.00     0.091 H 
ATOM     50  H   SGN d 802      -1.877  53.607 -13.883  0.00  0.00     0.090 H 
ATOM     51  H   SGN d 802      -3.571  53.551 -10.638  0.00  0.00     0.131 H 
ATOM     52  H   SGN d 802      -0.693  51.834  -7.793  0.00  0.00     0.231 HD
ATOM     53  H   SGN d 802      -0.167  54.065 -12.064  0.00  0.00     0.089 H 
ATOM     54  O1  SGN d 804      -6.138  62.668 -14.040  0.00  0.00    -0.369 OA
ATOM     55  C5  SGN d 804      -4.083  61.680 -12.265  0.00  0.00     0.091 C 
ATOM     56  O6  SGN d 804      -1.890  62.147 -11.359  0.00  0.00    -0.254 OA
ATOM     57  O6S SGN d 804       0.549  62.953 -10.687  0.00  0.00    -0.572 OA
ATOM     58  C1  SGN d 804      -4.750  62.636 -14.377  0.00  0.00     0.147 C 
ATOM     59  N   SGN d 804      -5.292  61.159 -16.244  0.00  0.00    -0.210 NA
ATOM     60  C4  SGN d 804      -3.701  60.360 -12.936  0.00  0.00     0.095 C 
ATOM     61  O5S SGN d 804      -0.443  61.226  -9.333  0.00  0.00    -0.572 OA
ATOM     62  O3S SGN d 804      -4.092  63.209 -17.429  0.00  0.00    -0.296 OA
ATOM     63  S1  SGN d 804      -5.175  62.230 -17.647  0.00  0.00     0.156 S 
ATOM     64  S2  SGN d 804      -0.706  62.468 -10.083  0.00  0.00     0.251 S 
ATOM     65  O3  SGN d 804      -4.229  58.962 -14.823  0.00  0.00    -0.391 OA
ATOM     66  O1S SGN d 804      -6.455  62.940 -17.828  0.00  0.00    -0.296 OA
ATOM     67  O5  SGN d 804      -3.927  62.756 -13.205  0.00  0.00    -0.350 OA
ATOM     68  C3  SGN d 804      -4.586  60.155 -14.161  0.00  0.00     0.083 C 
ATOM     69  C6  SGN d 804      -3.257  61.944 -11.009  0.00  0.00     0.067 C 
ATOM     70  O2S SGN d 804      -4.882  61.434 -18.855  0.00  0.00    -0.296 OA
ATOM     71  C2  SGN d 804      -4.410  61.336 -15.107  0.00  0.00     0.081 C 
ATOM     72  O4S SGN d 804      -1.237  63.491  -9.164  0.00  0.00    -0.572 OA
ATOM     73  O4  SGN d 804      -3.904  59.280 -12.023  0.00  0.00    -0.348 OA
ATOM     74  H   SGN d 804      -6.669  62.586 -14.848  0.00  0.00     0.212 HD
ATOM     75  H   SGN d 804      -5.106  61.614 -11.958  0.00  0.00     0.090 H 
ATOM     76  H   SGN d 804      -4.553  63.469 -15.019  0.00  0.00     0.131 H 
ATOM     77  H   SGN d 804      -6.245  61.245 -15.891  0.00  0.00     0.140 HD
ATOM     78  H   SGN d 804      -2.671  60.389 -13.227  0.00  0.00     0.091 H 
ATOM     79  H   SGN d 804      -4.285  63.733 -16.636  0.00  0.00     0.231 HD
ATOM     80  H   SGN d 804      -4.342  58.211 -14.219  0.00  0.00     0.210 HD
ATOM     81  H   SGN d 804      -6.649  63.464 -17.034  0.00  0.00     0.231 HD
ATOM     82  H   SGN d 804      -5.609  60.087 -13.851  0.00  0.00     0.089 H 
ATOM     83  H   SGN d 804      -3.334  61.103 -10.352  0.00  0.00     0.080 H 
ATOM     84  H   SGN d 804      -3.630  62.820 -10.522  0.00  0.00     0.080 H 
ATOM     85  H   SGN d 804      -4.040  60.966 -18.738  0.00  0.00     0.231 HD
ATOM     86  H   SGN d 804      -3.396  61.386 -15.443  0.00  0.00     0.076 H 
ATOM     87  O5  UAP d 801       1.172  49.996 -13.328  0.00  0.00    -0.311 OA
ATOM     88  O2  UAP d 801       1.866  49.745 -16.073  0.00  0.00    -0.244 OA
ATOM     89  O1S UAP d 801       2.006  48.206 -18.229  0.00  0.00    -0.572 OA
ATOM     90  O3S UAP d 801       0.625  50.174 -18.377  0.00  0.00    -0.572 OA
ATOM     91  C1  UAP d 801       0.630  50.858 -14.331  0.00  0.00     0.167 C 
ATOM     92  O2S UAP d 801       3.022  50.383 -18.378  0.00  0.00    -0.572 OA
ATOM     93  C4  UAP d 801       3.288  51.009 -13.621  0.00  0.00    -0.034 C 
ATOM     94  C3  UAP d 801       2.970  51.552 -14.925  0.00  0.00     0.086 C 
ATOM     95  O62 UAP d 801       2.015  49.108 -11.035  0.00  0.00    -0.642 OA
ATOM     96  S   UAP d 801       1.881  49.622 -17.837  0.00  0.00     0.252 S 
ATOM     97  C6  UAP d 801       2.810  49.801 -11.710  0.00  0.00     0.233 C 
ATOM     98  C2  UAP d 801       1.646  51.011 -15.453  0.00  0.00     0.135 C 
ATOM     99  C5  UAP d 801       2.418  50.277 -12.894  0.00  0.00     0.147 C 
ATOM    100  O61 UAP d 801       3.970  50.044 -11.301  0.00  0.00    -0.642 OA
ATOM    101  O3  UAP d 801       2.934  52.961 -14.860  0.00  0.00    -0.389 OA
ATOM    102  H   UAP d 801      -0.273  50.418 -14.697  0.00  0.00     0.134 H 
ATOM    103  H   UAP d 801       4.225  51.190 -13.229  0.00  0.00     0.085 H 
ATOM    104  H   UAP d 801       3.737  51.247 -15.607  0.00  0.00     0.093 H 
ATOM    105  H   UAP d 801       1.256  51.705 -16.166  0.00  0.00     0.097 H 
ATOM    106  H   UAP d 801       2.240  53.238 -14.243  0.00  0.00     0.210 HD
ENDROOT
TORSDOF 33
ENDMDL
MODEL 43
REMARK VINA RESULT:      -5.5      2.985      4.677
REMARK  0 active torsions:
REMARK  status: ('A' for Active; 'I' for Inactive)
REMARK       I    between atoms: C2_1  and  O2_62 
REMARK       I    between atoms: O3_2  and  C3_65 
REMARK       I    between atoms: O1_3  and  C1_15 
REMARK       I    between atoms: C5_5  and  C6_58 
REMARK       I    between atoms: C1_6  and  O4_70 
REMARK       I    between atoms: S_7  and  O2_62 
REMARK       I    between atoms: O2_9  and  C2_55 
REMARK       I    between atoms: O2_9  and  S_49 
REMARK       I    between atoms: O4_11  and  C1_28 
REMARK       I    between atoms: O4_11  and  C4_41 
REMARK       I    between atoms: O6_12  and  C6_58 
REMARK       I    between atoms: O6_12  and  S2_38 
REMARK       I    between atoms: S1_16  and  N_21 
REMARK       I    between atoms: S1_16  and  O1S_32 
REMARK       I    between atoms: S1_16  and  O2S_53 
REMARK       I    between atoms: S1_16  and  O3S_24 
REMARK       I    between atoms: N_18  and  C2_66 
REMARK       I    between atoms: N_18  and  S1_37 
REMARK       I    between atoms: C3_19  and  O3_27 
REMARK       I    between atoms: N_21  and  C2_31 
REMARK       I    between atoms: C4_22  and  O4_70 
REMARK       I    between atoms: C6_25  and  C5_46 
REMARK       I    between atoms: C6_25  and  O6_45 
REMARK       I    between atoms: O1_33  and  C1_51 
REMARK       I    between atoms: O1_33  and  C4_34 
REMARK       I    between atoms: O3S_35  and  S1_37 
REMARK       I    between atoms: S1_37  and  O1S_42 
REMARK       I    between atoms: S1_37  and  O2S_63 
REMARK       I    between atoms: O3_39  and  C3_54 
REMARK       I    between atoms: C6_40  and  C5_60 
REMARK       I    between atoms: C3_44  and  O3_64 
REMARK       I    between atoms: O6_45  and  S2_59 
REMARK       I    between atoms: C6_50  and  C5_56 
ROOT
ATOM      1  C2  IDS d 803       1.466  53.930 -13.136  0.00  0.00     0.134 C 
ATOM      2  C1  IDS d 803       2.342  54.583 -14.204  0.00  0.00     0.161 C 
ATOM      3  S   IDS d 803       0.237  51.498 -13.584  0.00  0.00     0.252 S 
ATOM      4  O3S IDS d 803       1.043  50.847 -14.635  0.00  0.00    -0.572 OA
ATOM      5  O5  IDS d 803       1.631  55.669 -14.821  0.00  0.00    -0.340 OA
ATOM      6  C3  IDS d 803       0.982  54.978 -12.133  0.00  0.00     0.094 C 
ATOM      7  O2S IDS d 803       0.739  51.083 -12.260  0.00  0.00    -0.572 OA
ATOM      8  O3  IDS d 803       2.060  55.489 -11.377  0.00  0.00    -0.390 OA
ATOM      9  C4  IDS d 803       0.259  56.102 -12.874  0.00  0.00     0.103 C 
ATOM     10  C6  IDS d 803       0.498  57.770 -14.716  0.00  0.00     0.206 C 
ATOM     11  O61 IDS d 803       0.515  58.947 -14.296  0.00  0.00    -0.646 OA
ATOM     12  C5  IDS d 803       1.214  56.698 -13.910  0.00  0.00     0.152 C 
ATOM     13  O2  IDS d 803       0.366  53.254 -13.740  0.00  0.00    -0.244 OA
ATOM     14  O62 IDS d 803      -0.059  57.444 -15.787  0.00  0.00    -0.646 OA
ATOM     15  O1S IDS d 803      -1.174  51.093 -13.725  0.00  0.00    -0.572 OA
ATOM     16  H   IDS d 803       2.049  53.207 -12.606  0.00  0.00     0.097 H 
ATOM     17  H   IDS d 803       2.563  53.862 -14.963  0.00  0.00     0.133 H 
ATOM     18  H   IDS d 803       0.299  54.514 -11.452  0.00  0.00     0.091 H 
ATOM     19  H   IDS d 803       2.697  55.917 -11.970  0.00  0.00     0.210 HD
ATOM     20  H   IDS d 803      -0.044  56.855 -12.177  0.00  0.00     0.092 H 
ATOM     21  H   IDS d 803       2.056  57.117 -13.401  0.00  0.00     0.104 H 
ATOM     22  O3  SGN d 802      -4.445  53.843 -15.007  0.00  0.00    -0.391 OA
ATOM     23  O4  SGN d 802      -4.308  56.280 -16.419  0.00  0.00    -0.348 OA
ATOM     24  S1  SGN d 802      -3.000  52.842 -11.226  0.00  0.00     0.156 S 
ATOM     25  O5S SGN d 802      -6.581  60.291 -12.885  0.00  0.00    -0.572 OA
ATOM     26  N   SGN d 802      -2.657  53.473 -12.841  0.00  0.00    -0.210 NA
ATOM     27  O3S SGN d 802      -2.093  53.478 -10.253  0.00  0.00    -0.296 OA
ATOM     28  C6  SGN d 802      -3.559  58.664 -14.860  0.00  0.00     0.067 C 
ATOM     29  O5  SGN d 802      -2.671  57.138 -13.243  0.00  0.00    -0.349 OA
ATOM     30  C2  SGN d 802      -3.161  54.781 -13.202  0.00  0.00     0.081 C 
ATOM     31  O1S SGN d 802      -2.791  51.383 -11.216  0.00  0.00    -0.296 OA
ATOM     32  O1  SGN d 802      -0.902  55.588 -13.531  0.00  0.00    -0.348 OA
ATOM     33  C4  SGN d 802      -4.032  56.212 -15.018  0.00  0.00     0.095 C 
ATOM     34  O6  SGN d 802      -4.647  58.845 -13.956  0.00  0.00    -0.254 OA
ATOM     35  C5  SGN d 802      -2.991  57.269 -14.638  0.00  0.00     0.091 C 
ATOM     36  O4S SGN d 802      -6.142  60.619 -15.235  0.00  0.00    -0.572 OA
ATOM     37  C1  SGN d 802      -2.137  55.861 -12.862  0.00  0.00     0.150 C 
ATOM     38  O6S SGN d 802      -4.594  61.464 -13.584  0.00  0.00    -0.572 OA
ATOM     39  O2S SGN d 802      -4.399  53.144 -10.864  0.00  0.00    -0.296 OA
ATOM     40  S2  SGN d 802      -5.528  60.370 -13.915  0.00  0.00     0.251 S 
ATOM     41  C3  SGN d 802      -3.488  54.829 -14.689  0.00  0.00     0.083 C 
ATOM     42  H   SGN d 802      -4.089  52.966 -14.794  0.00  0.00     0.210 HD
ATOM     43  H   SGN d 802      -3.044  52.808 -13.510  0.00  0.00     0.140 HD
ATOM     44  H   SGN d 802      -1.174  53.280 -10.490  0.00  0.00     0.231 HD
ATOM     45  H   SGN d 802      -3.905  58.759 -15.868  0.00  0.00     0.080 H 
ATOM     46  H   SGN d 802      -2.806  59.404 -14.688  0.00  0.00     0.080 H 
ATOM     47  H   SGN d 802      -4.055  54.963 -12.643  0.00  0.00     0.076 H 
ATOM     48  H   SGN d 802      -3.388  50.966 -11.856  0.00  0.00     0.231 HD
ATOM     49  H   SGN d 802      -4.932  56.393 -14.469  0.00  0.00     0.091 H 
ATOM     50  H   SGN d 802      -2.121  57.129 -15.243  0.00  0.00     0.090 H 
ATOM     51  H   SGN d 802      -1.939  55.871 -11.810  0.00  0.00     0.131 H 
ATOM     52  H   SGN d 802      -4.995  52.726 -11.505  0.00  0.00     0.231 HD
ATOM     53  H   SGN d 802      -2.605  54.638 -15.263  0.00  0.00     0.089 H 
ATOM     54  O1  SGN d 804       7.820  56.563 -14.171  0.00  0.00    -0.369 OA
ATOM     55  C5  SGN d 804       5.889  54.413 -14.176  0.00  0.00     0.091 C 
ATOM     56  O6  SGN d 804       5.345  52.274 -15.165  0.00  0.00    -0.254 OA
ATOM     57  O6S SGN d 804       5.045  50.031 -16.553  0.00  0.00    -0.572 OA
ATOM     58  C1  SGN d 804       7.296  55.973 -15.362  0.00  0.00     0.147 C 
ATOM     59  N   SGN d 804       6.404  58.158 -15.987  0.00  0.00    -0.210 NA
ATOM     60  C4  SGN d 804       4.624  55.133 -14.647  0.00  0.00     0.095 C 
ATOM     61  O5S SGN d 804       3.677  50.291 -14.588  0.00  0.00    -0.572 OA
ATOM     62  O3S SGN d 804       7.964  57.536 -18.044  0.00  0.00    -0.296 OA
ATOM     63  S1  SGN d 804       7.519  58.699 -17.250  0.00  0.00     0.156 S 
ATOM     64  S2  SGN d 804       5.011  50.536 -15.168  0.00  0.00     0.251 S 
ATOM     65  O3  SGN d 804       3.801  57.295 -15.311  0.00  0.00    -0.391 OA
ATOM     66  O1S SGN d 804       8.687  59.346 -16.625  0.00  0.00    -0.296 OA
ATOM     67  O5  SGN d 804       6.933  54.600 -15.147  0.00  0.00    -0.350 OA
ATOM     68  C3  SGN d 804       4.941  56.612 -14.839  0.00  0.00     0.083 C 
ATOM     69  C6  SGN d 804       5.644  52.927 -13.933  0.00  0.00     0.067 C 
ATOM     70  O2S SGN d 804       6.837  59.665 -18.133  0.00  0.00    -0.296 OA
ATOM     71  C2  SGN d 804       6.074  56.753 -15.848  0.00  0.00     0.081 C 
ATOM     72  O4S SGN d 804       6.030  49.837 -14.363  0.00  0.00    -0.572 OA
ATOM     73  O4  SGN d 804       3.598  54.996 -13.662  0.00  0.00    -0.348 OA
ATOM     74  H   SGN d 804       8.057  57.487 -14.345  0.00  0.00     0.212 HD
ATOM     75  H   SGN d 804       6.185  54.839 -13.240  0.00  0.00     0.090 H 
ATOM     76  H   SGN d 804       8.064  56.010 -16.107  0.00  0.00     0.131 H 
ATOM     77  H   SGN d 804       6.805  58.453 -15.098  0.00  0.00     0.140 HD
ATOM     78  H   SGN d 804       4.289  54.705 -15.569  0.00  0.00     0.091 H 
ATOM     79  H   SGN d 804       8.412  56.901 -17.463  0.00  0.00     0.231 HD
ATOM     80  H   SGN d 804       3.081  57.205 -14.667  0.00  0.00     0.210 HD
ATOM     81  H   SGN d 804       9.136  58.712 -16.044  0.00  0.00     0.231 HD
ATOM     82  H   SGN d 804       5.235  57.036 -13.901  0.00  0.00     0.089 H 
ATOM     83  H   SGN d 804       4.821  52.809 -13.261  0.00  0.00     0.080 H 
ATOM     84  H   SGN d 804       6.525  52.492 -13.509  0.00  0.00     0.080 H 
ATOM     85  H   SGN d 804       6.068  59.240 -18.545  0.00  0.00     0.231 HD
ATOM     86  H   SGN d 804       5.770  56.359 -16.795  0.00  0.00     0.076 H 
ATOM     87  O5  UAP d 801      -6.670  56.187 -16.269  0.00  0.00    -0.311 OA
ATOM     88  O2  UAP d 801      -6.809  57.807 -18.601  0.00  0.00    -0.244 OA
ATOM     89  O1S UAP d 801      -7.985  59.805 -19.888  0.00  0.00    -0.572 OA
ATOM     90  O3S UAP d 801      -5.635  60.040 -19.417  0.00  0.00    -0.572 OA
ATOM     91  C1  UAP d 801      -5.543  56.917 -16.756  0.00  0.00     0.167 C 
ATOM     92  O2S UAP d 801      -6.374  58.514 -21.125  0.00  0.00    -0.572 OA
ATOM     93  C4  UAP d 801      -6.530  54.750 -18.141  0.00  0.00    -0.034 C 
ATOM     94  C3  UAP d 801      -5.740  55.673 -18.929  0.00  0.00     0.086 C 
ATOM     95  O62 UAP d 801      -8.108  54.368 -15.094  0.00  0.00    -0.642 OA
ATOM     96  S   UAP d 801      -6.696  59.094 -19.808  0.00  0.00     0.252 S 
ATOM     97  C6  UAP d 801      -7.696  54.117 -16.250  0.00  0.00     0.233 C 
ATOM     98  C2  UAP d 801      -5.651  57.044 -18.268  0.00  0.00     0.135 C 
ATOM     99  C5  UAP d 801      -6.955  55.023 -16.890  0.00  0.00     0.147 C 
ATOM    100  O61 UAP d 801      -7.978  53.037 -16.820  0.00  0.00    -0.642 OA
ATOM    101  O3  UAP d 801      -4.450  55.143 -19.136  0.00  0.00    -0.389 OA
ATOM    102  H   UAP d 801      -5.546  57.883 -16.295  0.00  0.00     0.134 H 
ATOM    103  H   UAP d 801      -6.779  53.839 -18.557  0.00  0.00     0.085 H 
ATOM    104  H   UAP d 801      -6.226  55.803 -19.874  0.00  0.00     0.093 H 
ATOM    105  H   UAP d 801      -4.772  57.537 -18.626  0.00  0.00     0.097 H 
ATOM    106  H   UAP d 801      -4.008  55.025 -18.280  0.00  0.00     0.210 HD
ENDROOT
TORSDOF 33
ENDMDL
MODEL 44
REMARK VINA RESULT:      -5.5      2.381      3.062
REMARK  0 active torsions:
REMARK  status: ('A' for Active; 'I' for Inactive)
REMARK       I    between atoms: C2_1  and  O2_62 
REMARK       I    between atoms: O3_2  and  C3_65 
REMARK       I    between atoms: O1_3  and  C1_15 
REMARK       I    between atoms: C5_5  and  C6_58 
REMARK       I    between atoms: C1_6  and  O4_70 
REMARK       I    between atoms: S_7  and  O2_62 
REMARK       I    between atoms: O2_9  and  C2_55 
REMARK       I    between atoms: O2_9  and  S_49 
REMARK       I    between atoms: O4_11  and  C1_28 
REMARK       I    between atoms: O4_11  and  C4_41 
REMARK       I    between atoms: O6_12  and  C6_58 
REMARK       I    between atoms: O6_12  and  S2_38 
REMARK       I    between atoms: S1_16  and  N_21 
REMARK       I    between atoms: S1_16  and  O1S_32 
REMARK       I    between atoms: S1_16  and  O2S_53 
REMARK       I    between atoms: S1_16  and  O3S_24 
REMARK       I    between atoms: N_18  and  C2_66 
REMARK       I    between atoms: N_18  and  S1_37 
REMARK       I    between atoms: C3_19  and  O3_27 
REMARK       I    between atoms: N_21  and  C2_31 
REMARK       I    between atoms: C4_22  and  O4_70 
REMARK       I    between atoms: C6_25  and  C5_46 
REMARK       I    between atoms: C6_25  and  O6_45 
REMARK       I    between atoms: O1_33  and  C1_51 
REMARK       I    between atoms: O1_33  and  C4_34 
REMARK       I    between atoms: O3S_35  and  S1_37 
REMARK       I    between atoms: S1_37  and  O1S_42 
REMARK       I    between atoms: S1_37  and  O2S_63 
REMARK       I    between atoms: O3_39  and  C3_54 
REMARK       I    between atoms: C6_40  and  C5_60 
REMARK       I    between atoms: C3_44  and  O3_64 
REMARK       I    between atoms: O6_45  and  S2_59 
REMARK       I    between atoms: C6_50  and  C5_56 
ROOT
ATOM      1  C2  IDS d 803       5.569  55.470 -15.302  0.00  0.00     0.134 C 
ATOM      2  C1  IDS d 803       5.644  56.562 -16.369  0.00  0.00     0.161 C 
ATOM      3  S   IDS d 803       5.362  52.805 -15.996  0.00  0.00     0.252 S 
ATOM      4  O3S IDS d 803       5.912  52.719 -17.364  0.00  0.00    -0.572 OA
ATOM      5  O5  IDS d 803       4.382  57.243 -16.459  0.00  0.00    -0.340 OA
ATOM      6  C3  IDS d 803       5.110  56.060 -13.969  0.00  0.00     0.094 C 
ATOM      7  O2S IDS d 803       6.438  52.543 -15.022  0.00  0.00    -0.572 OA
ATOM      8  O3  IDS d 803       6.083  56.937 -13.443  0.00  0.00    -0.390 OA
ATOM      9  C4  IDS d 803       3.777  56.782 -14.160  0.00  0.00     0.103 C 
ATOM     10  C6  IDS d 803       2.621  58.544 -15.500  0.00  0.00     0.206 C 
ATOM     11  O61 IDS d 803       2.313  59.542 -14.812  0.00  0.00    -0.646 OA
ATOM     12  C5  IDS d 803       3.952  57.858 -15.234  0.00  0.00     0.152 C 
ATOM     13  O2  IDS d 803       4.700  54.421 -15.725  0.00  0.00    -0.244 OA
ATOM     14  O62 IDS d 803       1.893  58.105 -16.416  0.00  0.00    -0.646 OA
ATOM     15  O1S IDS d 803       4.293  51.802 -15.833  0.00  0.00    -0.572 OA
ATOM     16  H   IDS d 803       6.546  55.055 -15.164  0.00  0.00     0.097 H 
ATOM     17  H   IDS d 803       5.841  56.110 -17.318  0.00  0.00     0.133 H 
ATOM     18  H   IDS d 803       4.978  55.264 -13.267  0.00  0.00     0.091 H 
ATOM     19  H   IDS d 803       6.224  57.672 -14.061  0.00  0.00     0.210 HD
ATOM     20  H   IDS d 803       3.474  57.230 -13.236  0.00  0.00     0.092 H 
ATOM     21  H   IDS d 803       4.674  58.569 -14.892  0.00  0.00     0.104 H 
ATOM     22  O3  SGN d 802      -0.031  52.809 -15.385  0.00  0.00    -0.391 OA
ATOM     23  O4  SGN d 802      -1.424  55.153 -16.099  0.00  0.00    -0.348 OA
ATOM     24  S1  SGN d 802       2.978  52.226 -12.557  0.00  0.00     0.156 S 
ATOM     25  O5S SGN d 802      -3.647  57.247 -11.159  0.00  0.00    -0.572 OA
ATOM     26  N   SGN d 802       2.414  53.104 -13.984  0.00  0.00    -0.210 NA
ATOM     27  O3S SGN d 802       3.838  53.111 -11.750  0.00  0.00    -0.296 OA
ATOM     28  C6  SGN d 802      -1.188  57.438 -14.257  0.00  0.00     0.067 C 
ATOM     29  O5  SGN d 802       0.769  56.353 -13.407  0.00  0.00    -0.349 OA
ATOM     30  C2  SGN d 802       1.329  54.051 -13.838  0.00  0.00     0.081 C 
ATOM     31  O1S SGN d 802       3.748  51.044 -12.983  0.00  0.00    -0.296 OA
ATOM     32  O1  SGN d 802       2.771  55.852 -14.572  0.00  0.00    -0.348 OA
ATOM     33  C4  SGN d 802      -0.649  55.081 -14.901  0.00  0.00     0.095 C 
ATOM     34  O6  SGN d 802      -1.838  56.995 -13.068  0.00  0.00    -0.254 OA
ATOM     35  C5  SGN d 802      -0.067  56.459 -14.572  0.00  0.00     0.091 C 
ATOM     36  O4S SGN d 802      -4.279  57.979 -13.370  0.00  0.00    -0.572 OA
ATOM     37  C1  SGN d 802       1.874  55.445 -13.535  0.00  0.00     0.150 C 
ATOM     38  O6S SGN d 802      -2.718  59.279 -12.064  0.00  0.00    -0.572 OA
ATOM     39  O2S SGN d 802       1.819  51.798 -11.750  0.00  0.00    -0.296 OA
ATOM     40  S2  SGN d 802      -3.179  57.915 -12.387  0.00  0.00     0.251 S 
ATOM     41  C3  SGN d 802       0.488  54.090 -15.108  0.00  0.00     0.083 C 
ATOM     42  H   SGN d 802       0.701  52.185 -15.515  0.00  0.00     0.210 HD
ATOM     43  H   SGN d 802       2.113  52.406 -14.664  0.00  0.00     0.140 HD
ATOM     44  H   SGN d 802       4.600  53.392 -12.280  0.00  0.00     0.231 HD
ATOM     45  H   SGN d 802      -1.888  57.461 -15.065  0.00  0.00     0.080 H 
ATOM     46  H   SGN d 802      -0.794  58.423 -14.119  0.00  0.00     0.080 H 
ATOM     47  H   SGN d 802       0.713  53.735 -13.022  0.00  0.00     0.076 H 
ATOM     48  H   SGN d 802       3.181  50.462 -13.514  0.00  0.00     0.231 HD
ATOM     49  H   SGN d 802      -1.273  54.762 -14.092  0.00  0.00     0.091 H 
ATOM     50  H   SGN d 802       0.496  56.806 -15.413  0.00  0.00     0.090 H 
ATOM     51  H   SGN d 802       2.424  55.440 -12.616  0.00  0.00     0.131 H 
ATOM     52  H   SGN d 802       1.253  51.216 -12.281  0.00  0.00     0.231 HD
ATOM     53  H   SGN d 802       1.092  54.395 -15.936  0.00  0.00     0.089 H 
ATOM     54  O1  SGN d 804       9.438  60.866 -17.375  0.00  0.00    -0.369 OA
ATOM     55  C5  SGN d 804       8.690  58.075 -17.388  0.00  0.00     0.091 C 
ATOM     56  O6  SGN d 804       8.737  56.043 -18.700  0.00  0.00    -0.254 OA
ATOM     57  O6S SGN d 804       8.884  54.076 -20.477  0.00  0.00    -0.572 OA
ATOM     58  C1  SGN d 804       8.799  60.224 -18.480  0.00  0.00     0.147 C 
ATOM     59  N   SGN d 804       6.936  61.785 -18.242  0.00  0.00    -0.210 NA
ATOM     60  C4  SGN d 804       7.167  58.160 -17.281  0.00  0.00     0.095 C 
ATOM     61  O5S SGN d 804       8.358  53.463 -18.207  0.00  0.00    -0.572 OA
ATOM     62  O3S SGN d 804       7.735  62.179 -20.743  0.00  0.00    -0.296 OA
ATOM     63  S1  SGN d 804       7.184  62.910 -19.584  0.00  0.00     0.156 S 
ATOM     64  S2  SGN d 804       9.161  54.363 -19.056  0.00  0.00     0.251 S 
ATOM     65  O3  SGN d 804       5.358  59.738 -17.105  0.00  0.00    -0.391 OA
ATOM     66  O1S SGN d 804       8.130  63.963 -19.170  0.00  0.00    -0.296 OA
ATOM     67  O5  SGN d 804       9.130  58.827 -18.532  0.00  0.00    -0.350 OA
ATOM     68  C3  SGN d 804       6.762  59.626 -17.167  0.00  0.00     0.083 C 
ATOM     69  C6  SGN d 804       9.177  56.632 -17.478  0.00  0.00     0.067 C 
ATOM     70  O2S SGN d 804       5.898  63.527 -19.958  0.00  0.00    -0.296 OA
ATOM     71  C2  SGN d 804       7.281  60.383 -18.382  0.00  0.00     0.081 C 
ATOM     72  O4S SGN d 804      10.593  54.146 -18.781  0.00  0.00    -0.572 OA
ATOM     73  O4  SGN d 804       6.727  57.459 -16.116  0.00  0.00    -0.348 OA
ATOM     74  H   SGN d 804       9.197  61.806 -17.364  0.00  0.00     0.212 HD
ATOM     75  H   SGN d 804       9.111  58.493 -16.497  0.00  0.00     0.090 H 
ATOM     76  H   SGN d 804       9.151  60.692 -19.375  0.00  0.00     0.131 H 
ATOM     77  H   SGN d 804       7.481  62.142 -17.457  0.00  0.00     0.140 HD
ATOM     78  H   SGN d 804       6.720  57.721 -18.149  0.00  0.00     0.091 H 
ATOM     79  H   SGN d 804       8.581  61.774 -20.497  0.00  0.00     0.231 HD
ATOM     80  H   SGN d 804       5.029  59.256 -16.329  0.00  0.00     0.210 HD
ATOM     81  H   SGN d 804       8.977  63.559 -18.923  0.00  0.00     0.231 HD
ATOM     82  H   SGN d 804       7.182  60.041 -16.274  0.00  0.00     0.089 H 
ATOM     83  H   SGN d 804       8.784  56.074 -16.654  0.00  0.00     0.080 H 
ATOM     84  H   SGN d 804      10.247  56.620 -17.447  0.00  0.00     0.080 H 
ATOM     85  H   SGN d 804       5.275  62.836 -20.231  0.00  0.00     0.231 HD
ATOM     86  H   SGN d 804       6.837  59.992 -19.273  0.00  0.00     0.076 H 
ATOM     87  O5  UAP d 801      -3.307  53.948 -15.318  0.00  0.00    -0.311 OA
ATOM     88  O2  UAP d 801      -4.939  55.540 -17.016  0.00  0.00    -0.244 OA
ATOM     89  O1S UAP d 801      -7.208  56.871 -17.358  0.00  0.00    -0.572 OA
ATOM     90  O3S UAP d 801      -5.163  58.133 -17.527  0.00  0.00    -0.572 OA
ATOM     91  C1  UAP d 801      -2.839  55.167 -15.898  0.00  0.00     0.167 C 
ATOM     92  O2S UAP d 801      -5.792  56.620 -19.289  0.00  0.00    -0.572 OA
ATOM     93  C4  UAP d 801      -3.298  52.943 -17.459  0.00  0.00    -0.034 C 
ATOM     94  C3  UAP d 801      -3.301  54.203 -18.172  0.00  0.00     0.086 C 
ATOM     95  O62 UAP d 801      -3.340  51.558 -14.296  0.00  0.00    -0.642 OA
ATOM     96  S   UAP d 801      -5.811  56.844 -17.832  0.00  0.00     0.252 S 
ATOM     97  C6  UAP d 801      -3.320  51.649 -15.545  0.00  0.00     0.233 C 
ATOM     98  C2  UAP d 801      -3.539  55.381 -17.232  0.00  0.00     0.135 C 
ATOM     99  C5  UAP d 801      -3.303  52.856 -16.112  0.00  0.00     0.147 C 
ATOM    100  O61 UAP d 801      -3.328  50.627 -16.270  0.00  0.00    -0.642 OA
ATOM    101  O3  UAP d 801      -2.083  54.364 -18.864  0.00  0.00    -0.389 OA
ATOM    102  H   UAP d 801      -3.063  55.966 -15.222  0.00  0.00     0.134 H 
ATOM    103  H   UAP d 801      -3.291  52.069 -18.007  0.00  0.00     0.085 H 
ATOM    104  H   UAP d 801      -4.109  54.184 -18.874  0.00  0.00     0.093 H 
ATOM    105  H   UAP d 801      -3.135  56.261 -17.685  0.00  0.00     0.097 H 
ATOM    106  H   UAP d 801      -1.350  54.382 -18.228  0.00  0.00     0.210 HD
ENDROOT
TORSDOF 33
ENDMDL
MODEL 45
REMARK VINA RESULT:      -5.5      3.850     12.090
REMARK  0 active torsions:
REMARK  status: ('A' for Active; 'I' for Inactive)
REMARK       I    between atoms: C2_1  and  O2_62 
REMARK       I    between atoms: O3_2  and  C3_65 
REMARK       I    between atoms: O1_3  and  C1_15 
REMARK       I    between atoms: C5_5  and  C6_58 
REMARK       I    between atoms: C1_6  and  O4_70 
REMARK       I    between atoms: S_7  and  O2_62 
REMARK       I    between atoms: O2_9  and  C2_55 
REMARK       I    between atoms: O2_9  and  S_49 
REMARK       I    between atoms: O4_11  and  C1_28 
REMARK       I    between atoms: O4_11  and  C4_41 
REMARK       I    between atoms: O6_12  and  C6_58 
REMARK       I    between atoms: O6_12  and  S2_38 
REMARK       I    between atoms: S1_16  and  N_21 
REMARK       I    between atoms: S1_16  and  O1S_32 
REMARK       I    between atoms: S1_16  and  O2S_53 
REMARK       I    between atoms: S1_16  and  O3S_24 
REMARK       I    between atoms: N_18  and  C2_66 
REMARK       I    between atoms: N_18  and  S1_37 
REMARK       I    between atoms: C3_19  and  O3_27 
REMARK       I    between atoms: N_21  and  C2_31 
REMARK       I    between atoms: C4_22  and  O4_70 
REMARK       I    between atoms: C6_25  and  C5_46 
REMARK       I    between atoms: C6_25  and  O6_45 
REMARK       I    between atoms: O1_33  and  C1_51 
REMARK       I    between atoms: O1_33  and  C4_34 
REMARK       I    between atoms: O3S_35  and  S1_37 
REMARK       I    between atoms: S1_37  and  O1S_42 
REMARK       I    between atoms: S1_37  and  O2S_63 
REMARK       I    between atoms: O3_39  and  C3_54 
REMARK       I    between atoms: C6_40  and  C5_60 
REMARK       I    between atoms: C3_44  and  O3_64 
REMARK       I    between atoms: O6_45  and  S2_59 
REMARK       I    between atoms: C6_50  and  C5_56 
ROOT
ATOM      1  C2  IDS d 803      -5.426  53.639 -16.495  0.00  0.00     0.134 C 
ATOM      2  C1  IDS d 803      -5.594  52.912 -15.161  0.00  0.00     0.161 C 
ATOM      3  S   IDS d 803      -4.753  52.269 -18.797  0.00  0.00     0.252 S 
ATOM      4  O3S IDS d 803      -5.182  50.878 -18.556  0.00  0.00    -0.572 OA
ATOM      5  O5  IDS d 803      -4.452  53.156 -14.325  0.00  0.00    -0.340 OA
ATOM      6  C3  IDS d 803      -5.164  55.126 -16.259  0.00  0.00     0.094 C 
ATOM      7  O2S IDS d 803      -5.841  53.006 -19.466  0.00  0.00    -0.572 OA
ATOM      8  O3  IDS d 803      -6.298  55.758 -15.705  0.00  0.00    -0.390 OA
ATOM      9  C4  IDS d 803      -3.950  55.295 -15.345  0.00  0.00     0.103 C 
ATOM     10  C6  IDS d 803      -2.992  54.629 -13.138  0.00  0.00     0.206 C 
ATOM     11  O61 IDS d 803      -2.896  55.594 -12.349  0.00  0.00    -0.646 OA
ATOM     12  C5  IDS d 803      -4.214  54.544 -14.039  0.00  0.00     0.152 C 
ATOM     13  O2  IDS d 803      -4.375  53.048 -17.255  0.00  0.00    -0.244 OA
ATOM     14  O62 IDS d 803      -2.139  53.718 -13.196  0.00  0.00    -0.646 OA
ATOM     15  O1S IDS d 803      -3.554  52.272 -19.656  0.00  0.00    -0.572 OA
ATOM     16  H   IDS d 803      -6.333  53.546 -17.055  0.00  0.00     0.097 H 
ATOM     17  H   IDS d 803      -5.649  51.858 -15.343  0.00  0.00     0.133 H 
ATOM     18  H   IDS d 803      -4.959  55.594 -17.199  0.00  0.00     0.091 H 
ATOM     19  H   IDS d 803      -6.508  55.353 -14.848  0.00  0.00     0.210 HD
ATOM     20  H   IDS d 803      -3.790  56.333 -15.147  0.00  0.00     0.092 H 
ATOM     21  H   IDS d 803      -5.062  54.982 -13.556  0.00  0.00     0.104 H 
ATOM     22  O3  SGN d 802       0.514  53.470 -18.266  0.00  0.00    -0.391 OA
ATOM     23  O4  SGN d 802       1.569  53.590 -15.655  0.00  0.00    -0.348 OA
ATOM     24  S1  SGN d 802      -2.563  55.667 -20.025  0.00  0.00     0.156 S 
ATOM     25  O5S SGN d 802       3.070  59.135 -14.800  0.00  0.00    -0.572 OA
ATOM     26  N   SGN d 802      -2.042  54.610 -18.708  0.00  0.00    -0.210 NA
ATOM     27  O3S SGN d 802      -3.608  56.582 -19.530  0.00  0.00    -0.296 OA
ATOM     28  C6  SGN d 802       0.843  55.949 -14.048  0.00  0.00     0.067 C 
ATOM     29  O5  SGN d 802      -0.976  56.239 -15.578  0.00  0.00    -0.349 OA
ATOM     30  C2  SGN d 802      -1.133  55.132 -17.710  0.00  0.00     0.081 C 
ATOM     31  O1S SGN d 802      -3.105  54.849 -21.125  0.00  0.00    -0.296 OA
ATOM     32  O1  SGN d 802      -2.783  54.761 -15.978  0.00  0.00    -0.348 OA
ATOM     33  C4  SGN d 802       0.730  54.625 -16.169  0.00  0.00     0.095 C 
ATOM     34  O6  SGN d 802       1.467  57.037 -14.726  0.00  0.00    -0.254 OA
ATOM     35  C5  SGN d 802      -0.084  55.251 -15.032  0.00  0.00     0.091 C 
ATOM     36  O4S SGN d 802       3.738  57.296 -13.388  0.00  0.00    -0.572 OA
ATOM     37  C1  SGN d 802      -1.911  55.742 -16.546  0.00  0.00     0.150 C 
ATOM     38  O6S SGN d 802       1.902  58.722 -12.733  0.00  0.00    -0.572 OA
ATOM     39  O2S SGN d 802      -1.413  56.453 -20.512  0.00  0.00    -0.296 OA
ATOM     40  S2  SGN d 802       2.593  58.092 -13.874  0.00  0.00     0.251 S 
ATOM     41  C3  SGN d 802      -0.219  54.027 -17.198  0.00  0.00     0.083 C 
ATOM     42  H   SGN d 802      -0.100  53.092 -18.916  0.00  0.00     0.210 HD
ATOM     43  H   SGN d 802      -1.586  53.803 -19.135  0.00  0.00     0.140 HD
ATOM     44  H   SGN d 802      -4.364  56.066 -19.210  0.00  0.00     0.231 HD
ATOM     45  H   SGN d 802       1.588  55.262 -13.702  0.00  0.00     0.080 H 
ATOM     46  H   SGN d 802       0.290  56.305 -13.204  0.00  0.00     0.080 H 
ATOM     47  H   SGN d 802      -0.537  55.896 -18.165  0.00  0.00     0.076 H 
ATOM     48  H   SGN d 802      -2.416  54.247 -21.450  0.00  0.00     0.231 HD
ATOM     49  H   SGN d 802       1.336  55.381 -16.624  0.00  0.00     0.091 H 
ATOM     50  H   SGN d 802      -0.632  54.479 -14.535  0.00  0.00     0.090 H 
ATOM     51  H   SGN d 802      -2.519  56.555 -16.887  0.00  0.00     0.131 H 
ATOM     52  H   SGN d 802      -0.726  55.851 -20.838  0.00  0.00     0.231 HD
ATOM     53  H   SGN d 802      -0.802  53.250 -16.749  0.00  0.00     0.089 H 
ATOM     54  O1  SGN d 804      -9.935  52.697 -11.282  0.00  0.00    -0.369 OA
ATOM     55  C5  SGN d 804      -8.758  52.005 -13.830  0.00  0.00     0.091 C 
ATOM     56  O6  SGN d 804      -8.390  50.190 -15.386  0.00  0.00    -0.254 OA
ATOM     57  O6S SGN d 804      -8.096  47.938 -16.760  0.00  0.00    -0.572 OA
ATOM     58  C1  SGN d 804      -9.124  51.539 -11.491  0.00  0.00     0.147 C 
ATOM     59  N   SGN d 804      -7.553  52.406  -9.835  0.00  0.00    -0.210 NA
ATOM     60  C4  SGN d 804      -7.280  52.304 -13.581  0.00  0.00     0.095 C 
ATOM     61  O5S SGN d 804      -7.647  49.997 -17.927  0.00  0.00    -0.572 OA
ATOM     62  O3S SGN d 804      -8.220  50.035  -8.845  0.00  0.00    -0.296 OA
ATOM     63  S1  SGN d 804      -7.877  51.405  -8.414  0.00  0.00     0.156 S 
ATOM     64  S2  SGN d 804      -8.517  49.341 -16.933  0.00  0.00     0.251 S 
ATOM     65  O3  SGN d 804      -5.759  53.112 -11.899  0.00  0.00    -0.391 OA
ATOM     66  O1S SGN d 804      -9.004  51.981  -7.657  0.00  0.00    -0.296 OA
ATOM     67  O5  SGN d 804      -9.227  51.069 -12.844  0.00  0.00    -0.350 OA
ATOM     68  C3  SGN d 804      -7.120  52.861 -12.170  0.00  0.00     0.083 C 
ATOM     69  C6  SGN d 804      -9.005  51.468 -15.236  0.00  0.00     0.067 C 
ATOM     70  O2S SGN d 804      -6.679  51.363  -7.553  0.00  0.00    -0.296 OA
ATOM     71  C2  SGN d 804      -7.661  51.849 -11.170  0.00  0.00     0.081 C 
ATOM     72  O4S SGN d 804      -9.913  49.381 -17.404  0.00  0.00    -0.572 OA
ATOM     73  O4  SGN d 804      -6.821  53.275 -14.524  0.00  0.00    -0.348 OA
ATOM     74  H   SGN d 804      -9.846  52.992 -10.363  0.00  0.00     0.212 HD
ATOM     75  H   SGN d 804      -9.303  52.922 -13.745  0.00  0.00     0.090 H 
ATOM     76  H   SGN d 804      -9.480  50.772 -10.835  0.00  0.00     0.131 H 
ATOM     77  H   SGN d 804      -8.202  53.191  -9.793  0.00  0.00     0.140 HD
ATOM     78  H   SGN d 804      -6.707  51.407 -13.689  0.00  0.00     0.091 H 
ATOM     79  H   SGN d 804      -9.007  50.062  -9.411  0.00  0.00     0.231 HD
ATOM     80  H   SGN d 804      -5.415  53.757 -12.537  0.00  0.00     0.210 HD
ATOM     81  H   SGN d 804      -9.792  52.009  -8.222  0.00  0.00     0.231 HD
ATOM     82  H   SGN d 804      -7.663  53.780 -12.089  0.00  0.00     0.089 H 
ATOM     83  H   SGN d 804      -8.590  52.147 -15.952  0.00  0.00     0.080 H 
ATOM     84  H   SGN d 804     -10.058  51.372 -15.396  0.00  0.00     0.080 H 
ATOM     85  H   SGN d 804      -5.937  50.985  -8.049  0.00  0.00     0.231 HD
ATOM     86  H   SGN d 804      -7.098  50.942 -11.227  0.00  0.00     0.076 H 
ATOM     87  O5  UAP d 801       3.557  54.220 -16.777  0.00  0.00    -0.311 OA
ATOM     88  O2  UAP d 801       5.037  53.221 -14.566  0.00  0.00    -0.244 OA
ATOM     89  O1S UAP d 801       7.086  53.519 -12.909  0.00  0.00    -0.572 OA
ATOM     90  O3S UAP d 801       4.886  53.470 -11.930  0.00  0.00    -0.572 OA
ATOM     91  C1  UAP d 801       2.946  53.947 -15.515  0.00  0.00     0.167 C 
ATOM     92  O2S UAP d 801       5.872  51.444 -12.776  0.00  0.00    -0.572 OA
ATOM     93  C4  UAP d 801       3.861  51.900 -17.116  0.00  0.00    -0.034 C 
ATOM     94  C3  UAP d 801       3.718  51.565 -15.715  0.00  0.00     0.086 C 
ATOM     95  O62 UAP d 801       3.891  54.546 -19.335  0.00  0.00    -0.642 OA
ATOM     96  S   UAP d 801       5.750  52.900 -12.980  0.00  0.00     0.252 S 
ATOM     97  C6  UAP d 801       3.947  53.375 -18.892  0.00  0.00     0.233 C 
ATOM     98  C2  UAP d 801       3.698  52.812 -14.837  0.00  0.00     0.135 C 
ATOM     99  C5  UAP d 801       3.781  53.163 -17.586  0.00  0.00     0.147 C 
ATOM    100  O61 UAP d 801       4.169  52.403 -19.652  0.00  0.00    -0.642 OA
ATOM    101  O3  UAP d 801       2.543  50.809 -15.522  0.00  0.00    -0.389 OA
ATOM    102  H   UAP d 801       2.991  54.837 -14.923  0.00  0.00     0.134 H 
ATOM    103  H   UAP d 801       4.031  51.136 -17.789  0.00  0.00     0.085 H 
ATOM    104  H   UAP d 801       4.567  50.981 -15.426  0.00  0.00     0.093 H 
ATOM    105  H   UAP d 801       3.195  52.575 -13.924  0.00  0.00     0.097 H 
ATOM    106  H   UAP d 801       1.772  51.337 -15.783  0.00  0.00     0.210 HD
ENDROOT
TORSDOF 33
ENDMDL
MODEL 46
REMARK VINA RESULT:      -5.5      3.846      6.598
REMARK  0 active torsions:
REMARK  status: ('A' for Active; 'I' for Inactive)
REMARK       I    between atoms: C2_1  and  O2_62 
REMARK       I    between atoms: O3_2  and  C3_65 
REMARK       I    between atoms: O1_3  and  C1_15 
REMARK       I    between atoms: C5_5  and  C6_58 
REMARK       I    between atoms: C1_6  and  O4_70 
REMARK       I    between atoms: S_7  and  O2_62 
REMARK       I    between atoms: O2_9  and  C2_55 
REMARK       I    between atoms: O2_9  and  S_49 
REMARK       I    between atoms: O4_11  and  C1_28 
REMARK       I    between atoms: O4_11  and  C4_41 
REMARK       I    between atoms: O6_12  and  C6_58 
REMARK       I    between atoms: O6_12  and  S2_38 
REMARK       I    between atoms: S1_16  and  N_21 
REMARK       I    between atoms: S1_16  and  O1S_32 
REMARK       I    between atoms: S1_16  and  O2S_53 
REMARK       I    between atoms: S1_16  and  O3S_24 
REMARK       I    between atoms: N_18  and  C2_66 
REMARK       I    between atoms: N_18  and  S1_37 
REMARK       I    between atoms: C3_19  and  O3_27 
REMARK       I    between atoms: N_21  and  C2_31 
REMARK       I    between atoms: C4_22  and  O4_70 
REMARK       I    between atoms: C6_25  and  C5_46 
REMARK       I    between atoms: C6_25  and  O6_45 
REMARK       I    between atoms: O1_33  and  C1_51 
REMARK       I    between atoms: O1_33  and  C4_34 
REMARK       I    between atoms: O3S_35  and  S1_37 
REMARK       I    between atoms: S1_37  and  O1S_42 
REMARK       I    between atoms: S1_37  and  O2S_63 
REMARK       I    between atoms: O3_39  and  C3_54 
REMARK       I    between atoms: C6_40  and  C5_60 
REMARK       I    between atoms: C3_44  and  O3_64 
REMARK       I    between atoms: O6_45  and  S2_59 
REMARK       I    between atoms: C6_50  and  C5_56 
ROOT
ATOM      1  C2  IDS d 803       3.771  57.229 -12.947  0.00  0.00     0.134 C 
ATOM      2  C1  IDS d 803       2.601  58.212 -12.984  0.00  0.00     0.161 C 
ATOM      3  S   IDS d 803       5.262  56.694 -15.210  0.00  0.00     0.252 S 
ATOM      4  O3S IDS d 803       5.079  57.873 -16.080  0.00  0.00    -0.572 OA
ATOM      5  O5  IDS d 803       1.359  57.492 -12.974  0.00  0.00    -0.340 OA
ATOM      6  C3  IDS d 803       3.635  56.286 -11.752  0.00  0.00     0.094 C 
ATOM      7  O2S IDS d 803       6.463  56.888 -14.375  0.00  0.00    -0.572 OA
ATOM      8  O3  IDS d 803       3.783  56.988 -10.536  0.00  0.00    -0.390 OA
ATOM      9  C4  IDS d 803       2.280  55.580 -11.807  0.00  0.00     0.103 C 
ATOM     10  C6  IDS d 803      -0.181  55.969 -11.964  0.00  0.00     0.206 C 
ATOM     11  O61 IDS d 803      -0.785  55.629 -10.923  0.00  0.00    -0.646 OA
ATOM     12  C5  IDS d 803       1.177  56.640 -11.832  0.00  0.00     0.152 C 
ATOM     13  O2  IDS d 803       3.846  56.499 -14.170  0.00  0.00    -0.244 OA
ATOM     14  O62 IDS d 803      -0.661  55.805 -13.106  0.00  0.00    -0.646 OA
ATOM     15  O1S IDS d 803       5.430  55.490 -16.044  0.00  0.00    -0.572 OA
ATOM     16  H   IDS d 803       4.681  57.781 -12.834  0.00  0.00     0.097 H 
ATOM     17  H   IDS d 803       2.647  58.775 -13.893  0.00  0.00     0.133 H 
ATOM     18  H   IDS d 803       4.412  55.553 -11.801  0.00  0.00     0.091 H 
ATOM     19  H   IDS d 803       3.089  57.661 -10.464  0.00  0.00     0.210 HD
ATOM     20  H   IDS d 803       2.167  54.950 -10.950  0.00  0.00     0.092 H 
ATOM     21  H   IDS d 803       1.225  57.206 -10.926  0.00  0.00     0.104 H 
ATOM     22  O3  SGN d 802       2.423  52.204 -16.321  0.00  0.00    -0.391 OA
ATOM     23  O4  SGN d 802      -0.333  52.222 -15.726  0.00  0.00    -0.348 OA
ATOM     24  S1  SGN d 802       5.717  52.732 -13.818  0.00  0.00     0.156 S 
ATOM     25  O5S SGN d 802      -1.071  48.299 -11.506  0.00  0.00    -0.572 OA
ATOM     26  N   SGN d 802       4.186  53.367 -14.433  0.00  0.00    -0.210 NA
ATOM     27  O3S SGN d 802       5.910  53.188 -12.429  0.00  0.00    -0.296 OA
ATOM     28  C6  SGN d 802      -1.067  52.012 -12.882  0.00  0.00     0.067 C 
ATOM     29  O5  SGN d 802       1.173  52.716 -12.411  0.00  0.00    -0.349 OA
ATOM     30  C2  SGN d 802       2.952  52.725 -14.033  0.00  0.00     0.081 C 
ATOM     31  O1S SGN d 802       6.823  53.223 -14.658  0.00  0.00    -0.296 OA
ATOM     32  O1  SGN d 802       2.197  54.773 -12.986  0.00  0.00    -0.348 OA
ATOM     33  C4  SGN d 802       0.653  52.112 -14.697  0.00  0.00     0.095 C 
ATOM     34  O6  SGN d 802      -0.637  50.706 -12.507  0.00  0.00    -0.254 OA
ATOM     35  C5  SGN d 802       0.142  52.770 -13.412  0.00  0.00     0.091 C 
ATOM     36  O4S SGN d 802      -2.857  49.289 -12.792  0.00  0.00    -0.572 OA
ATOM     37  C1  SGN d 802       2.398  53.374 -12.767  0.00  0.00     0.150 C 
ATOM     38  O6S SGN d 802      -2.354  50.118 -10.580  0.00  0.00    -0.572 OA
ATOM     39  O2S SGN d 802       5.687  51.256 -13.851  0.00  0.00    -0.296 OA
ATOM     40  S2  SGN d 802      -1.780  49.554 -11.817  0.00  0.00     0.251 S 
ATOM     41  C3  SGN d 802       1.923  52.816 -15.153  0.00  0.00     0.083 C 
ATOM     42  H   SGN d 802       3.232  52.659 -16.603  0.00  0.00     0.210 HD
ATOM     43  H   SGN d 802       4.231  53.322 -15.450  0.00  0.00     0.140 HD
ATOM     44  H   SGN d 802       5.930  54.157 -12.407  0.00  0.00     0.231 HD
ATOM     45  H   SGN d 802      -1.815  51.944 -13.643  0.00  0.00     0.080 H 
ATOM     46  H   SGN d 802      -1.485  52.522 -12.039  0.00  0.00     0.080 H 
ATOM     47  H   SGN d 802       3.158  51.695 -13.832  0.00  0.00     0.076 H 
ATOM     48  H   SGN d 802       6.695  52.922 -15.571  0.00  0.00     0.231 HD
ATOM     49  H   SGN d 802       0.854  51.078 -14.505  0.00  0.00     0.091 H 
ATOM     50  H   SGN d 802      -0.127  53.783 -13.626  0.00  0.00     0.090 H 
ATOM     51  H   SGN d 802       3.092  53.270 -11.958  0.00  0.00     0.131 H 
ATOM     52  H   SGN d 802       5.560  50.956 -14.765  0.00  0.00     0.231 HD
ATOM     53  H   SGN d 802       1.713  53.842 -15.373  0.00  0.00     0.089 H 
ATOM     54  O1  SGN d 804       1.303  62.948  -9.851  0.00  0.00    -0.369 OA
ATOM     55  C5  SGN d 804       2.853  61.572 -11.865  0.00  0.00     0.091 C 
ATOM     56  O6  SGN d 804       3.787  61.769 -14.088  0.00  0.00    -0.254 OA
ATOM     57  O6S SGN d 804       4.542  62.326 -16.571  0.00  0.00    -0.572 OA
ATOM     58  C1  SGN d 804       0.942  62.902 -11.233  0.00  0.00     0.147 C 
ATOM     59  N   SGN d 804      -1.136  61.788 -10.598  0.00  0.00    -0.210 NA
ATOM     60  C4  SGN d 804       1.965  60.366 -12.171  0.00  0.00     0.095 C 
ATOM     61  O5S SGN d 804       5.605  60.448 -15.500  0.00  0.00    -0.572 OA
ATOM     62  O3S SGN d 804      -1.983  63.944 -11.895  0.00  0.00    -0.296 OA
ATOM     63  S1  SGN d 804      -2.343  63.071 -10.760  0.00  0.00     0.156 S 
ATOM     64  S2  SGN d 804       5.077  61.811 -15.297  0.00  0.00     0.251 S 
ATOM     65  O3  SGN d 804      -0.120  59.333 -11.554  0.00  0.00    -0.391 OA
ATOM     66  O1S SGN d 804      -2.380  63.866  -9.518  0.00  0.00    -0.296 OA
ATOM     67  O5  SGN d 804       2.102  62.781 -12.070  0.00  0.00    -0.350 OA
ATOM     68  C3  SGN d 804       0.738  60.415 -11.266  0.00  0.00     0.083 C 
ATOM     69  C6  SGN d 804       4.120  61.580 -12.714  0.00  0.00     0.067 C 
ATOM     70  O2S SGN d 804      -3.671  62.475 -11.000  0.00  0.00    -0.296 OA
ATOM     71  C2  SGN d 804      -0.001  61.727 -11.497  0.00  0.00     0.081 C 
ATOM     72  O4S SGN d 804       6.164  62.691 -14.828  0.00  0.00    -0.572 OA
ATOM     73  O4  SGN d 804       2.688  59.160 -11.919  0.00  0.00    -0.348 OA
ATOM     74  H   SGN d 804       0.502  63.029  -9.310  0.00  0.00     0.212 HD
ATOM     75  H   SGN d 804       3.162  61.508 -10.843  0.00  0.00     0.090 H 
ATOM     76  H   SGN d 804       0.444  63.820 -11.469  0.00  0.00     0.131 H 
ATOM     77  H   SGN d 804      -0.758  61.861  -9.654  0.00  0.00     0.140 HD
ATOM     78  H   SGN d 804       1.665  60.391 -13.199  0.00  0.00     0.091 H 
ATOM     79  H   SGN d 804      -1.110  64.336 -11.737  0.00  0.00     0.231 HD
ATOM     80  H   SGN d 804       0.352  58.498 -11.406  0.00  0.00     0.210 HD
ATOM     81  H   SGN d 804      -1.507  64.258  -9.359  0.00  0.00     0.231 HD
ATOM     82  H   SGN d 804       1.049  60.347 -10.244  0.00  0.00     0.089 H 
ATOM     83  H   SGN d 804       4.629  60.646 -12.599  0.00  0.00     0.080 H 
ATOM     84  H   SGN d 804       4.753  62.380 -12.393  0.00  0.00     0.080 H 
ATOM     85  H   SGN d 804      -3.648  61.952 -11.817  0.00  0.00     0.231 HD
ATOM     86  H   SGN d 804      -0.341  61.781 -12.510  0.00  0.00     0.076 H 
ATOM     87  O5  UAP d 801      -0.235  49.980 -16.484  0.00  0.00    -0.311 OA
ATOM     88  O2  UAP d 801      -2.995  50.157 -17.140  0.00  0.00    -0.244 OA
ATOM     89  O1S UAP d 801      -5.379  48.996 -17.181  0.00  0.00    -0.572 OA
ATOM     90  O3S UAP d 801      -5.174  51.028 -15.905  0.00  0.00    -0.572 OA
ATOM     91  C1  UAP d 801      -1.070  51.024 -15.980  0.00  0.00     0.167 C 
ATOM     92  O2S UAP d 801      -5.180  51.113 -18.310  0.00  0.00    -0.572 OA
ATOM     93  C4  UAP d 801      -0.391  50.918 -18.648  0.00  0.00    -0.034 C 
ATOM     94  C3  UAP d 801      -1.580  51.688 -18.349  0.00  0.00     0.086 C 
ATOM     95  O62 UAP d 801       1.863  48.678 -17.298  0.00  0.00    -0.642 OA
ATOM     96  S   UAP d 801      -4.754  50.331 -17.135  0.00  0.00     0.252 S 
ATOM     97  C6  UAP d 801       1.300  49.433 -18.123  0.00  0.00     0.233 C 
ATOM     98  C2  UAP d 801      -2.168  51.310 -16.994  0.00  0.00     0.135 C 
ATOM     99  C5  UAP d 801       0.219  50.120 -17.747  0.00  0.00     0.147 C 
ATOM    100  O61 UAP d 801       1.724  49.545 -19.297  0.00  0.00    -0.642 OA
ATOM    101  O3  UAP d 801      -1.280  53.065 -18.388  0.00  0.00    -0.389 OA
ATOM    102  H   UAP d 801      -1.489  50.698 -15.052  0.00  0.00     0.134 H 
ATOM    103  H   UAP d 801       0.010  50.983 -19.597  0.00  0.00     0.085 H 
ATOM    104  H   UAP d 801      -2.316  51.463 -19.093  0.00  0.00     0.093 H 
ATOM    105  H   UAP d 801      -2.748  52.134 -16.635  0.00  0.00     0.097 H 
ATOM    106  H   UAP d 801      -0.614  53.270 -17.714  0.00  0.00     0.210 HD
ENDROOT
TORSDOF 33
ENDMDL
MODEL 47
REMARK VINA RESULT:      -5.5      3.195      7.278
REMARK  0 active torsions:
REMARK  status: ('A' for Active; 'I' for Inactive)
REMARK       I    between atoms: C2_1  and  O2_62 
REMARK       I    between atoms: O3_2  and  C3_65 
REMARK       I    between atoms: O1_3  and  C1_15 
REMARK       I    between atoms: C5_5  and  C6_58 
REMARK       I    between atoms: C1_6  and  O4_70 
REMARK       I    between atoms: S_7  and  O2_62 
REMARK       I    between atoms: O2_9  and  C2_55 
REMARK       I    between atoms: O2_9  and  S_49 
REMARK       I    between atoms: O4_11  and  C1_28 
REMARK       I    between atoms: O4_11  and  C4_41 
REMARK       I    between atoms: O6_12  and  C6_58 
REMARK       I    between atoms: O6_12  and  S2_38 
REMARK       I    between atoms: S1_16  and  N_21 
REMARK       I    between atoms: S1_16  and  O1S_32 
REMARK       I    between atoms: S1_16  and  O2S_53 
REMARK       I    between atoms: S1_16  and  O3S_24 
REMARK       I    between atoms: N_18  and  C2_66 
REMARK       I    between atoms: N_18  and  S1_37 
REMARK       I    between atoms: C3_19  and  O3_27 
REMARK       I    between atoms: N_21  and  C2_31 
REMARK       I    between atoms: C4_22  and  O4_70 
REMARK       I    between atoms: C6_25  and  C5_46 
REMARK       I    between atoms: C6_25  and  O6_45 
REMARK       I    between atoms: O1_33  and  C1_51 
REMARK       I    between atoms: O1_33  and  C4_34 
REMARK       I    between atoms: O3S_35  and  S1_37 
REMARK       I    between atoms: S1_37  and  O1S_42 
REMARK       I    between atoms: S1_37  and  O2S_63 
REMARK       I    between atoms: O3_39  and  C3_54 
REMARK       I    between atoms: C6_40  and  C5_60 
REMARK       I    between atoms: C3_44  and  O3_64 
REMARK       I    between atoms: O6_45  and  S2_59 
REMARK       I    between atoms: C6_50  and  C5_56 
ROOT
ATOM      1  C2  IDS d 803       2.877  56.072 -16.557  0.00  0.00     0.134 C 
ATOM      2  C1  IDS d 803       3.807  54.871 -16.385  0.00  0.00     0.161 C 
ATOM      3  S   IDS d 803       2.886  58.160 -14.749  0.00  0.00     0.252 S 
ATOM      4  O3S IDS d 803       4.217  58.112 -14.112  0.00  0.00    -0.572 OA
ATOM      5  O5  IDS d 803       3.062  53.742 -15.901  0.00  0.00    -0.340 OA
ATOM      6  C3  IDS d 803       1.696  55.704 -17.454  0.00  0.00     0.094 C 
ATOM      7  O2S IDS d 803       2.934  59.068 -15.910  0.00  0.00    -0.572 OA
ATOM      8  O3  IDS d 803       2.125  55.455 -18.776  0.00  0.00    -0.390 OA
ATOM      9  C4  IDS d 803       0.976  54.484 -16.881  0.00  0.00     0.103 C 
ATOM     10  C6  IDS d 803       1.310  52.131 -16.115  0.00  0.00     0.206 C 
ATOM     11  O61 IDS d 803       0.736  51.302 -16.854  0.00  0.00    -0.646 OA
ATOM     12  C5  IDS d 803       1.980  53.337 -16.754  0.00  0.00     0.152 C 
ATOM     13  O2  IDS d 803       2.428  56.539 -15.286  0.00  0.00    -0.244 OA
ATOM     14  O62 IDS d 803       1.380  51.994 -14.875  0.00  0.00    -0.646 OA
ATOM     15  O1S IDS d 803       1.894  58.654 -13.776  0.00  0.00    -0.572 OA
ATOM     16  H   IDS d 803       3.420  56.864 -17.028  0.00  0.00     0.097 H 
ATOM     17  H   IDS d 803       4.553  55.110 -15.655  0.00  0.00     0.133 H 
ATOM     18  H   IDS d 803       1.015  56.528 -17.484  0.00  0.00     0.091 H 
ATOM     19  H   IDS d 803       2.745  54.709 -18.780  0.00  0.00     0.210 HD
ATOM     20  H   IDS d 803       0.174  54.201 -17.529  0.00  0.00     0.092 H 
ATOM     21  H   IDS d 803       2.340  53.087 -17.730  0.00  0.00     0.104 H 
ATOM     22  O3  SGN d 802      -1.349  56.143 -12.019  0.00  0.00    -0.391 OA
ATOM     23  O4  SGN d 802      -1.547  53.339 -11.802  0.00  0.00    -0.348 OA
ATOM     24  S1  SGN d 802      -1.266  58.578 -15.404  0.00  0.00     0.156 S 
ATOM     25  O5S SGN d 802      -6.303  51.847 -14.784  0.00  0.00    -0.572 OA
ATOM     26  N   SGN d 802      -0.562  57.219 -14.519  0.00  0.00    -0.210 NA
ATOM     27  O3S SGN d 802      -1.112  58.347 -16.852  0.00  0.00    -0.296 OA
ATOM     28  C6  SGN d 802      -2.383  51.887 -14.224  0.00  0.00     0.067 C 
ATOM     29  O5  SGN d 802      -1.726  53.843 -15.437  0.00  0.00    -0.349 OA
ATOM     30  C2  SGN d 802      -1.314  55.986 -14.419  0.00  0.00     0.081 C 
ATOM     31  O1S SGN d 802      -0.571  59.821 -15.025  0.00  0.00    -0.296 OA
ATOM     32  O1  SGN d 802       0.438  54.795 -15.592  0.00  0.00    -0.348 OA
ATOM     33  C4  SGN d 802      -1.843  54.016 -13.025  0.00  0.00     0.095 C 
ATOM     34  O6  SGN d 802      -3.726  52.315 -14.440  0.00  0.00    -0.254 OA
ATOM     35  C5  SGN d 802      -1.492  53.120 -14.217  0.00  0.00     0.091 C 
ATOM     36  O4S SGN d 802      -5.118  50.392 -13.266  0.00  0.00    -0.572 OA
ATOM     37  C1  SGN d 802      -0.969  55.054 -15.579  0.00  0.00     0.150 C 
ATOM     38  O6S SGN d 802      -4.766  50.203 -15.648  0.00  0.00    -0.572 OA
ATOM     39  O2S SGN d 802      -2.700  58.692 -15.074  0.00  0.00    -0.296 OA
ATOM     40  S2  SGN d 802      -5.034  51.138 -14.538  0.00  0.00     0.251 S 
ATOM     41  C3  SGN d 802      -1.018  55.293 -13.095  0.00  0.00     0.083 C 
ATOM     42  H   SGN d 802      -0.818  56.954 -12.073  0.00  0.00     0.210 HD
ATOM     43  H   SGN d 802      -0.387  57.540 -13.568  0.00  0.00     0.140 HD
ATOM     44  H   SGN d 802      -0.170  58.273 -17.069  0.00  0.00     0.231 HD
ATOM     45  H   SGN d 802      -2.311  51.381 -13.284  0.00  0.00     0.080 H 
ATOM     46  H   SGN d 802      -2.079  51.212 -14.997  0.00  0.00     0.080 H 
ATOM     47  H   SGN d 802      -2.356  56.222 -14.464  0.00  0.00     0.076 H 
ATOM     48  H   SGN d 802      -0.673  59.971 -14.072  0.00  0.00     0.231 HD
ATOM     49  H   SGN d 802      -2.887  54.250 -13.059  0.00  0.00     0.091 H 
ATOM     50  H   SGN d 802      -0.466  52.829 -14.139  0.00  0.00     0.090 H 
ATOM     51  H   SGN d 802      -1.221  55.511 -16.514  0.00  0.00     0.131 H 
ATOM     52  H   SGN d 802      -2.801  58.843 -14.121  0.00  0.00     0.231 HD
ATOM     53  H   SGN d 802       0.024  55.059 -13.030  0.00  0.00     0.089 H 
ATOM     54  O1  SGN d 804       7.718  52.354 -19.891  0.00  0.00    -0.369 OA
ATOM     55  C5  SGN d 804       6.856  54.507 -18.168  0.00  0.00     0.091 C 
ATOM     56  O6  SGN d 804       7.554  55.985 -16.384  0.00  0.00    -0.254 OA
ATOM     57  O6S SGN d 804       8.653  57.328 -14.375  0.00  0.00    -0.572 OA
ATOM     58  C1  SGN d 804       7.958  52.385 -18.483  0.00  0.00     0.147 C 
ATOM     59  N   SGN d 804       6.669  50.322 -18.273  0.00  0.00    -0.210 NA
ATOM     60  C4  SGN d 804       5.716  53.847 -17.392  0.00  0.00     0.095 C 
ATOM     61  O5S SGN d 804       6.624  58.228 -15.312  0.00  0.00    -0.572 OA
ATOM     62  O3S SGN d 804       9.025  49.665 -17.240  0.00  0.00    -0.296 OA
ATOM     63  S1  SGN d 804       7.918  49.093 -18.032  0.00  0.00     0.156 S 
ATOM     64  S2  SGN d 804       7.895  57.544 -15.621  0.00  0.00     0.251 S 
ATOM     65  O3  SGN d 804       4.509  51.776 -17.179  0.00  0.00    -0.391 OA
ATOM     66  O1S SGN d 804       8.427  48.650 -19.344  0.00  0.00    -0.296 OA
ATOM     67  O5  SGN d 804       8.056  53.734 -18.001  0.00  0.00    -0.350 OA
ATOM     68  C3  SGN d 804       5.531  52.423 -17.904  0.00  0.00     0.083 C 
ATOM     69  C6  SGN d 804       7.085  55.951 -17.730  0.00  0.00     0.067 C 
ATOM     70  O2S SGN d 804       7.346  47.938 -17.314  0.00  0.00    -0.296 OA
ATOM     71  C2  SGN d 804       6.837  51.659 -17.737  0.00  0.00     0.081 C 
ATOM     72  O4S SGN d 804       8.688  58.380 -16.542  0.00  0.00    -0.572 OA
ATOM     73  O4  SGN d 804       4.507  54.581 -17.596  0.00  0.00    -0.348 OA
ATOM     74  H   SGN d 804       7.657  51.433 -20.189  0.00  0.00     0.212 HD
ATOM     75  H   SGN d 804       6.584  54.534 -19.202  0.00  0.00     0.090 H 
ATOM     76  H   SGN d 804       8.889  51.888 -18.302  0.00  0.00     0.131 H 
ATOM     77  H   SGN d 804       6.550  50.424 -19.280  0.00  0.00     0.140 HD
ATOM     78  H   SGN d 804       5.951  53.835 -16.348  0.00  0.00     0.091 H 
ATOM     79  H   SGN d 804       9.401  50.424 -17.712  0.00  0.00     0.231 HD
ATOM     80  H   SGN d 804       3.677  52.263 -17.287  0.00  0.00     0.210 HD
ATOM     81  H   SGN d 804       8.804  49.409 -19.817  0.00  0.00     0.231 HD
ATOM     82  H   SGN d 804       5.256  52.451 -18.939  0.00  0.00     0.089 H 
ATOM     83  H   SGN d 804       6.165  56.492 -17.799  0.00  0.00     0.080 H 
ATOM     84  H   SGN d 804       7.818  56.399 -18.369  0.00  0.00     0.080 H 
ATOM     85  H   SGN d 804       7.011  48.227 -16.451  0.00  0.00     0.231 HD
ATOM     86  H   SGN d 804       7.097  51.601 -16.701  0.00  0.00     0.076 H 
ATOM     87  O5  UAP d 801      -3.570  53.839 -10.677  0.00  0.00    -0.311 OA
ATOM     88  O2  UAP d 801      -3.343  51.354  -9.316  0.00  0.00    -0.244 OA
ATOM     89  O1S UAP d 801      -4.544  49.185  -8.375  0.00  0.00    -0.572 OA
ATOM     90  O3S UAP d 801      -2.826  48.854 -10.031  0.00  0.00    -0.572 OA
ATOM     91  C1  UAP d 801      -2.685  52.809 -11.119  0.00  0.00     0.167 C 
ATOM     92  O2S UAP d 801      -2.229  49.488  -7.788  0.00  0.00    -0.572 OA
ATOM     93  C4  UAP d 801      -2.195  54.189  -8.786  0.00  0.00    -0.034 C 
ATOM     94  C3  UAP d 801      -1.546  52.898  -8.882  0.00  0.00     0.086 C 
ATOM     95  O62 UAP d 801      -4.600  56.188 -10.250  0.00  0.00    -0.642 OA
ATOM     96  S   UAP d 801      -3.231  49.650  -8.858  0.00  0.00     0.252 S 
ATOM     97  C6  UAP d 801      -3.704  55.802  -9.465  0.00  0.00     0.233 C 
ATOM     98  C2  UAP d 801      -2.223  52.003  -9.914  0.00  0.00     0.135 C 
ATOM     99  C5  UAP d 801      -3.148  54.603  -9.647  0.00  0.00     0.147 C 
ATOM    100  O61 UAP d 801      -3.330  56.515  -8.504  0.00  0.00    -0.642 OA
ATOM    101  O3  UAP d 801      -0.183  53.072  -9.201  0.00  0.00    -0.389 OA
ATOM    102  H   UAP d 801      -3.215  52.186 -11.809  0.00  0.00     0.134 H 
ATOM    103  H   UAP d 801      -1.916  54.823  -8.021  0.00  0.00     0.085 H 
ATOM    104  H   UAP d 801      -1.629  52.413  -7.932  0.00  0.00     0.093 H 
ATOM    105  H   UAP d 801      -1.514  51.276 -10.249  0.00  0.00     0.097 H 
ATOM    106  H   UAP d 801      -0.106  53.511 -10.063  0.00  0.00     0.210 HD
ENDROOT
TORSDOF 33
ENDMDL
MODEL 48
REMARK VINA RESULT:      -5.4      3.410      7.655
REMARK  0 active torsions:
REMARK  status: ('A' for Active; 'I' for Inactive)
REMARK       I    between atoms: C2_1  and  O2_62 
REMARK       I    between atoms: O3_2  and  C3_65 
REMARK       I    between atoms: O1_3  and  C1_15 
REMARK       I    between atoms: C5_5  and  C6_58 
REMARK       I    between atoms: C1_6  and  O4_70 
REMARK       I    between atoms: S_7  and  O2_62 
REMARK       I    between atoms: O2_9  and  C2_55 
REMARK       I    between atoms: O2_9  and  S_49 
REMARK       I    between atoms: O4_11  and  C1_28 
REMARK       I    between atoms: O4_11  and  C4_41 
REMARK       I    between atoms: O6_12  and  C6_58 
REMARK       I    between atoms: O6_12  and  S2_38 
REMARK       I    between atoms: S1_16  and  N_21 
REMARK       I    between atoms: S1_16  and  O1S_32 
REMARK       I    between atoms: S1_16  and  O2S_53 
REMARK       I    between atoms: S1_16  and  O3S_24 
REMARK       I    between atoms: N_18  and  C2_66 
REMARK       I    between atoms: N_18  and  S1_37 
REMARK       I    between atoms: C3_19  and  O3_27 
REMARK       I    between atoms: N_21  and  C2_31 
REMARK       I    between atoms: C4_22  and  O4_70 
REMARK       I    between atoms: C6_25  and  C5_46 
REMARK       I    between atoms: C6_25  and  O6_45 
REMARK       I    between atoms: O1_33  and  C1_51 
REMARK       I    between atoms: O1_33  and  C4_34 
REMARK       I    between atoms: O3S_35  and  S1_37 
REMARK       I    between atoms: S1_37  and  O1S_42 
REMARK       I    between atoms: S1_37  and  O2S_63 
REMARK       I    between atoms: O3_39  and  C3_54 
REMARK       I    between atoms: C6_40  and  C5_60 
REMARK       I    between atoms: C3_44  and  O3_64 
REMARK       I    between atoms: O6_45  and  S2_59 
REMARK       I    between atoms: C6_50  and  C5_56 
ROOT
ATOM      1  C2  IDS d 803       0.117  57.641 -16.742  0.00  0.00     0.134 C 
ATOM      2  C1  IDS d 803       1.480  57.459 -16.074  0.00  0.00     0.161 C 
ATOM      3  S   IDS d 803      -1.843  59.210 -15.590  0.00  0.00     0.252 S 
ATOM      4  O3S IDS d 803      -1.118  60.148 -14.711  0.00  0.00    -0.572 OA
ATOM      5  O5  IDS d 803       1.556  56.160 -15.467  0.00  0.00    -0.340 OA
ATOM      6  C3  IDS d 803      -0.148  56.502 -17.726  0.00  0.00     0.094 C 
ATOM      7  O2S IDS d 803      -2.025  59.828 -16.917  0.00  0.00    -0.572 OA
ATOM      8  O3  IDS d 803       0.742  56.564 -18.821  0.00  0.00    -0.390 OA
ATOM      9  C4  IDS d 803      -0.024  55.160 -17.005  0.00  0.00     0.103 C 
ATOM     10  C6  IDS d 803       1.496  53.774 -15.590  0.00  0.00     0.206 C 
ATOM     11  O61 IDS d 803       1.894  52.747 -16.182  0.00  0.00    -0.646 OA
ATOM     12  C5  IDS d 803       1.369  55.067 -16.380  0.00  0.00     0.152 C 
ATOM     13  O2  IDS d 803      -0.913  57.716 -15.758  0.00  0.00    -0.244 OA
ATOM     14  O62 IDS d 803       1.225  53.788 -14.370  0.00  0.00    -0.646 OA
ATOM     15  O1S IDS d 803      -3.161  58.905 -15.003  0.00  0.00    -0.572 OA
ATOM     16  H   IDS d 803       0.120  58.560 -17.289  0.00  0.00     0.097 H 
ATOM     17  H   IDS d 803       1.589  58.190 -15.301  0.00  0.00     0.133 H 
ATOM     18  H   IDS d 803      -1.142  56.601 -18.110  0.00  0.00     0.091 H 
ATOM     19  H   IDS d 803       1.654  56.476 -18.503  0.00  0.00     0.210 HD
ATOM     20  H   IDS d 803      -0.169  54.362 -17.702  0.00  0.00     0.092 H 
ATOM     21  H   IDS d 803       2.098  55.097 -17.162  0.00  0.00     0.104 H 
ATOM     22  O3  SGN d 802      -4.291  54.928 -13.326  0.00  0.00    -0.391 OA
ATOM     23  O4  SGN d 802      -2.655  52.819 -12.415  0.00  0.00    -0.348 OA
ATOM     24  S1  SGN d 802      -4.720  56.538 -17.149  0.00  0.00     0.156 S 
ATOM     25  O5S SGN d 802      -3.923  48.258 -15.781  0.00  0.00    -0.572 OA
ATOM     26  N   SGN d 802      -3.641  56.120 -15.813  0.00  0.00    -0.210 NA
ATOM     27  O3S SGN d 802      -3.988  56.413 -18.423  0.00  0.00    -0.296 OA
ATOM     28  C6  SGN d 802      -1.473  51.084 -14.480  0.00  0.00     0.067 C 
ATOM     29  O5  SGN d 802      -1.912  52.870 -16.013  0.00  0.00    -0.349 OA
ATOM     30  C2  SGN d 802      -3.374  54.723 -15.540  0.00  0.00     0.081 C 
ATOM     31  O1S SGN d 802      -5.189  57.925 -16.983  0.00  0.00    -0.296 OA
ATOM     32  O1  SGN d 802      -1.017  55.063 -15.980  0.00  0.00    -0.348 OA
ATOM     33  C4  SGN d 802      -2.899  53.027 -13.808  0.00  0.00     0.095 C 
ATOM     34  O6  SGN d 802      -2.594  50.427 -15.066  0.00  0.00    -0.254 OA
ATOM     35  C5  SGN d 802      -1.680  52.585 -14.624  0.00  0.00     0.091 C 
ATOM     36  O4S SGN d 802      -2.663  48.143 -13.726  0.00  0.00    -0.572 OA
ATOM     37  C1  SGN d 802      -2.147  54.253 -16.318  0.00  0.00     0.150 C 
ATOM     38  O6S SGN d 802      -1.516  48.142 -15.852  0.00  0.00    -0.572 OA
ATOM     39  O2S SGN d 802      -5.876  55.621 -17.155  0.00  0.00    -0.296 OA
ATOM     40  S2  SGN d 802      -2.676  48.667 -15.107  0.00  0.00     0.251 S 
ATOM     41  C3  SGN d 802      -3.154  54.509 -14.049  0.00  0.00     0.083 C 
ATOM     42  H   SGN d 802      -4.446  55.872 -13.486  0.00  0.00     0.210 HD
ATOM     43  H   SGN d 802      -4.046  56.518 -14.966  0.00  0.00     0.140 HD
ATOM     44  H   SGN d 802      -3.228  57.015 -18.419  0.00  0.00     0.231 HD
ATOM     45  H   SGN d 802      -1.401  50.825 -13.445  0.00  0.00     0.080 H 
ATOM     46  H   SGN d 802      -0.570  50.785 -14.969  0.00  0.00     0.080 H 
ATOM     47  H   SGN d 802      -4.222  54.151 -15.854  0.00  0.00     0.076 H 
ATOM     48  H   SGN d 802      -5.671  58.006 -16.145  0.00  0.00     0.231 HD
ATOM     49  H   SGN d 802      -3.750  52.454 -14.110  0.00  0.00     0.091 H 
ATOM     50  H   SGN d 802      -0.818  53.109 -14.267  0.00  0.00     0.090 H 
ATOM     51  H   SGN d 802      -2.310  54.350 -17.371  0.00  0.00     0.131 H 
ATOM     52  H   SGN d 802      -6.358  55.703 -16.317  0.00  0.00     0.231 HD
ATOM     53  H   SGN d 802      -2.314  55.083 -13.717  0.00  0.00     0.089 H 
ATOM     54  O1  SGN d 804       6.941  58.274 -17.930  0.00  0.00    -0.369 OA
ATOM     55  C5  SGN d 804       4.375  59.269 -17.050  0.00  0.00     0.091 C 
ATOM     56  O6  SGN d 804       3.291  60.893 -15.621  0.00  0.00    -0.254 OA
ATOM     57  O6S SGN d 804       2.494  62.717 -13.864  0.00  0.00    -0.572 OA
ATOM     58  C1  SGN d 804       6.620  58.534 -16.562  0.00  0.00     0.147 C 
ATOM     59  N   SGN d 804       7.031  56.178 -16.073  0.00  0.00    -0.210 NA
ATOM     60  C4  SGN d 804       3.779  58.036 -16.370  0.00  0.00     0.095 C 
ATOM     61  O5S SGN d 804       0.835  61.872 -15.392  0.00  0.00    -0.572 OA
ATOM     62  O3S SGN d 804       8.721  57.430 -14.453  0.00  0.00    -0.296 OA
ATOM     63  S1  SGN d 804       8.606  56.205 -15.269  0.00  0.00     0.156 S 
ATOM     64  S2  SGN d 804       2.247  62.272 -15.248  0.00  0.00     0.251 S 
ATOM     65  O3  SGN d 804       4.250  55.731 -15.860  0.00  0.00    -0.391 OA
ATOM     66  O1S SGN d 804       9.674  56.188 -16.287  0.00  0.00    -0.296 OA
ATOM     67  O5  SGN d 804       5.642  59.580 -16.447  0.00  0.00    -0.350 OA
ATOM     68  C3  SGN d 804       4.757  56.874 -16.511  0.00  0.00     0.083 C 
ATOM     69  C6  SGN d 804       3.438  60.471 -16.975  0.00  0.00     0.067 C 
ATOM     70  O2S SGN d 804       8.740  55.021 -14.399  0.00  0.00    -0.296 OA
ATOM     71  C2  SGN d 804       6.091  57.267 -15.890  0.00  0.00     0.081 C 
ATOM     72  O4S SGN d 804       2.540  63.377 -16.180  0.00  0.00    -0.572 OA
ATOM     73  O4  SGN d 804       2.544  57.689 -17.000  0.00  0.00    -0.348 OA
ATOM     74  H   SGN d 804       7.602  57.565 -17.978  0.00  0.00     0.212 HD
ATOM     75  H   SGN d 804       4.513  59.044 -18.087  0.00  0.00     0.090 H 
ATOM     76  H   SGN d 804       7.518  58.851 -16.073  0.00  0.00     0.131 H 
ATOM     77  H   SGN d 804       7.215  56.116 -17.074  0.00  0.00     0.140 HD
ATOM     78  H   SGN d 804       3.603  58.245 -15.335  0.00  0.00     0.091 H 
ATOM     79  H   SGN d 804       8.633  58.208 -15.025  0.00  0.00     0.231 HD
ATOM     80  H   SGN d 804       3.401  55.482 -16.257  0.00  0.00     0.210 HD
ATOM     81  H   SGN d 804       9.587  56.966 -16.860  0.00  0.00     0.231 HD
ATOM     82  H   SGN d 804       4.892  56.649 -17.549  0.00  0.00     0.089 H 
ATOM     83  H   SGN d 804       2.481  60.199 -17.367  0.00  0.00     0.080 H 
ATOM     84  H   SGN d 804       3.851  61.274 -17.550  0.00  0.00     0.080 H 
ATOM     85  H   SGN d 804       8.038  55.031 -13.729  0.00  0.00     0.231 HD
ATOM     86  H   SGN d 804       5.964  57.460 -14.845  0.00  0.00     0.076 H 
ATOM     87  O5  UAP d 801      -4.727  51.798 -11.892  0.00  0.00    -0.311 OA
ATOM     88  O2  UAP d 801      -3.390  50.272  -9.902  0.00  0.00    -0.244 OA
ATOM     89  O1S UAP d 801      -3.089  47.939  -8.677  0.00  0.00    -0.572 OA
ATOM     90  O3S UAP d 801      -1.161  48.837  -9.808  0.00  0.00    -0.572 OA
ATOM     91  C1  UAP d 801      -3.304  51.675 -11.858  0.00  0.00     0.167 C 
ATOM     92  O2S UAP d 801      -1.911  49.818  -7.742  0.00  0.00    -0.572 OA
ATOM     93  C4  UAP d 801      -4.646  53.110  -9.926  0.00  0.00    -0.034 C 
ATOM     94  C3  UAP d 801      -3.326  52.653  -9.544  0.00  0.00     0.086 C 
ATOM     95  O62 UAP d 801      -7.109  52.749 -12.320  0.00  0.00    -0.642 OA
ATOM     96  S   UAP d 801      -2.345  49.171  -8.995  0.00  0.00     0.252 S 
ATOM     97  C6  UAP d 801      -6.505  53.149 -11.297  0.00  0.00     0.233 C 
ATOM     98  C2  UAP d 801      -2.858  51.492 -10.415  0.00  0.00     0.135 C 
ATOM     99  C5  UAP d 801      -5.281  52.686 -11.039  0.00  0.00     0.147 C 
ATOM    100  O61 UAP d 801      -7.036  53.963 -10.506  0.00  0.00    -0.642 OA
ATOM    101  O3  UAP d 801      -2.410  53.723  -9.619  0.00  0.00    -0.389 OA
ATOM    102  H   UAP d 801      -3.029  50.826 -12.448  0.00  0.00     0.134 H 
ATOM    103  H   UAP d 801      -5.124  53.792  -9.318  0.00  0.00     0.085 H 
ATOM    104  H   UAP d 801      -3.377  52.299  -8.536  0.00  0.00     0.093 H 
ATOM    105  H   UAP d 801      -1.790  51.463 -10.395  0.00  0.00     0.097 H 
ATOM    106  H   UAP d 801      -2.363  54.045 -10.533  0.00  0.00     0.210 HD
ENDROOT
TORSDOF 33
ENDMDL
MODEL 49
REMARK VINA RESULT:      -5.4      3.630      6.223
REMARK  0 active torsions:
REMARK  status: ('A' for Active; 'I' for Inactive)
REMARK       I    between atoms: C2_1  and  O2_62 
REMARK       I    between atoms: O3_2  and  C3_65 
REMARK       I    between atoms: O1_3  and  C1_15 
REMARK       I    between atoms: C5_5  and  C6_58 
REMARK       I    between atoms: C1_6  and  O4_70 
REMARK       I    between atoms: S_7  and  O2_62 
REMARK       I    between atoms: O2_9  and  C2_55 
REMARK       I    between atoms: O2_9  and  S_49 
REMARK       I    between atoms: O4_11  and  C1_28 
REMARK       I    between atoms: O4_11  and  C4_41 
REMARK       I    between atoms: O6_12  and  C6_58 
REMARK       I    between atoms: O6_12  and  S2_38 
REMARK       I    between atoms: S1_16  and  N_21 
REMARK       I    between atoms: S1_16  and  O1S_32 
REMARK       I    between atoms: S1_16  and  O2S_53 
REMARK       I    between atoms: S1_16  and  O3S_24 
REMARK       I    between atoms: N_18  and  C2_66 
REMARK       I    between atoms: N_18  and  S1_37 
REMARK       I    between atoms: C3_19  and  O3_27 
REMARK       I    between atoms: N_21  and  C2_31 
REMARK       I    between atoms: C4_22  and  O4_70 
REMARK       I    between atoms: C6_25  and  C5_46 
REMARK       I    between atoms: C6_25  and  O6_45 
REMARK       I    between atoms: O1_33  and  C1_51 
REMARK       I    between atoms: O1_33  and  C4_34 
REMARK       I    between atoms: O3S_35  and  S1_37 
REMARK       I    between atoms: S1_37  and  O1S_42 
REMARK       I    between atoms: S1_37  and  O2S_63 
REMARK       I    between atoms: O3_39  and  C3_54 
REMARK       I    between atoms: C6_40  and  C5_60 
REMARK       I    between atoms: C3_44  and  O3_64 
REMARK       I    between atoms: O6_45  and  S2_59 
REMARK       I    between atoms: C6_50  and  C5_56 
ROOT
ATOM      1  C2  IDS d 803       3.898  56.731 -13.436  0.00  0.00     0.134 C 
ATOM      2  C1  IDS d 803       2.767  57.733 -13.204  0.00  0.00     0.161 C 
ATOM      3  S   IDS d 803       4.670  56.010 -15.987  0.00  0.00     0.252 S 
ATOM      4  O3S IDS d 803       4.241  57.128 -16.850  0.00  0.00    -0.572 OA
ATOM      5  O5  IDS d 803       1.581  57.040 -12.782  0.00  0.00    -0.340 OA
ATOM      6  C3  IDS d 803       4.114  55.877 -12.187  0.00  0.00     0.094 C 
ATOM      7  O2S IDS d 803       6.061  56.237 -15.552  0.00  0.00    -0.572 OA
ATOM      8  O3  IDS d 803       4.609  56.658 -11.120  0.00  0.00    -0.390 OA
ATOM      9  C4  IDS d 803       2.803  55.196 -11.797  0.00  0.00     0.103 C 
ATOM     10  C6  IDS d 803       0.402  55.622 -11.262  0.00  0.00     0.206 C 
ATOM     11  O61 IDS d 803       0.126  55.368 -10.070  0.00  0.00    -0.646 OA
ATOM     12  C5  IDS d 803       1.739  56.273 -11.578  0.00  0.00     0.152 C 
ATOM     13  O2  IDS d 803       3.616  55.916 -14.571  0.00  0.00    -0.244 OA
ATOM     14  O62 IDS d 803      -0.388  55.389 -12.202  0.00  0.00    -0.646 OA
ATOM     15  O1S IDS d 803       4.589  54.747 -16.745  0.00  0.00    -0.572 OA
ATOM     16  H   IDS d 803       4.801  57.271 -13.631  0.00  0.00     0.097 H 
ATOM     17  H   IDS d 803       2.546  58.230 -14.125  0.00  0.00     0.133 H 
ATOM     18  H   IDS d 803       4.845  55.126 -12.405  0.00  0.00     0.091 H 
ATOM     19  H   IDS d 803       3.965  57.349 -10.899  0.00  0.00     0.210 HD
ATOM     20  H   IDS d 803       2.944  54.630 -10.900  0.00  0.00     0.092 H 
ATOM     21  H   IDS d 803       2.047  56.900 -10.768  0.00  0.00     0.104 H 
ATOM     22  O3  SGN d 802       1.634  51.512 -15.902  0.00  0.00    -0.391 OA
ATOM     23  O4  SGN d 802      -0.831  51.626 -14.538  0.00  0.00    -0.348 OA
ATOM     24  S1  SGN d 802       5.511  52.146 -14.503  0.00  0.00     0.156 S 
ATOM     25  O5S SGN d 802      -0.311  48.023 -10.012  0.00  0.00    -0.572 OA
ATOM     26  N   SGN d 802       3.868  52.768 -14.693  0.00  0.00    -0.210 NA
ATOM     27  O3S SGN d 802       6.099  52.693 -13.267  0.00  0.00    -0.296 OA
ATOM     28  C6  SGN d 802      -0.709  51.630 -11.596  0.00  0.00     0.067 C 
ATOM     29  O5  SGN d 802       1.570  52.320 -11.845  0.00  0.00    -0.349 OA
ATOM     30  C2  SGN d 802       2.803  52.180 -13.909  0.00  0.00     0.081 C 
ATOM     31  O1S SGN d 802       6.326  52.555 -15.661  0.00  0.00    -0.296 OA
ATOM     32  O1  SGN d 802       2.382  54.311 -12.839  0.00  0.00    -0.348 OA
ATOM     33  C4  SGN d 802       0.410  51.568 -13.833  0.00  0.00     0.095 C 
ATOM     34  O6  SGN d 802      -0.188  50.345 -11.267  0.00  0.00    -0.254 OA
ATOM     35  C5  SGN d 802       0.294  52.325 -12.506  0.00  0.00     0.091 C 
ATOM     36  O4S SGN d 802      -2.394  48.956 -10.795  0.00  0.00    -0.572 OA
ATOM     37  C1  SGN d 802       2.639  52.927 -12.587  0.00  0.00     0.150 C 
ATOM     38  O6S SGN d 802      -1.272  49.927  -8.889  0.00  0.00    -0.572 OA
ATOM     39  O2S SGN d 802       5.475  50.672 -14.420  0.00  0.00    -0.296 OA
ATOM     40  S2  SGN d 802      -1.081  49.267 -10.195  0.00  0.00     0.251 S 
ATOM     41  C3  SGN d 802       1.494  52.213 -14.686  0.00  0.00     0.083 C 
ATOM     42  H   SGN d 802       2.326  51.930 -16.438  0.00  0.00     0.210 HD
ATOM     43  H   SGN d 802       3.616  52.651 -15.675  0.00  0.00     0.140 HD
ATOM     44  H   SGN d 802       6.123  53.661 -13.322  0.00  0.00     0.231 HD
ATOM     45  H   SGN d 802      -1.646  51.524 -12.101  0.00  0.00     0.080 H 
ATOM     46  H   SGN d 802      -0.866  52.206 -10.708  0.00  0.00     0.080 H 
ATOM     47  H   SGN d 802       3.059  51.162 -13.701  0.00  0.00     0.076 H 
ATOM     48  H   SGN d 802       5.939  52.194 -16.474  0.00  0.00     0.231 HD
ATOM     49  H   SGN d 802       0.659  50.547 -13.633  0.00  0.00     0.091 H 
ATOM     50  H   SGN d 802      -0.027  53.325 -12.707  0.00  0.00     0.090 H 
ATOM     51  H   SGN d 802       3.538  52.865 -12.008  0.00  0.00     0.131 H 
ATOM     52  H   SGN d 802       5.088  50.312 -15.233  0.00  0.00     0.231 HD
ATOM     53  H   SGN d 802       1.228  53.225 -14.911  0.00  0.00     0.089 H 
ATOM     54  O1  SGN d 804       2.428  62.700 -10.180  0.00  0.00    -0.369 OA
ATOM     55  C5  SGN d 804       3.329  61.157 -12.452  0.00  0.00     0.091 C 
ATOM     56  O6  SGN d 804       3.578  61.179 -14.857  0.00  0.00    -0.254 OA
ATOM     57  O6S SGN d 804       3.580  61.547 -17.487  0.00  0.00    -0.572 OA
ATOM     58  C1  SGN d 804       1.682  62.566 -11.392  0.00  0.00     0.147 C 
ATOM     59  N   SGN d 804      -0.122  61.541 -10.104  0.00  0.00    -0.210 NA
ATOM     60  C4  SGN d 804       2.391  59.950 -12.400  0.00  0.00     0.095 C 
ATOM     61  O5S SGN d 804       4.911  59.727 -16.636  0.00  0.00    -0.572 OA
ATOM     62  O3S SGN d 804      -1.310  63.618 -11.253  0.00  0.00    -0.296 OA
ATOM     63  S1  SGN d 804      -1.325  62.833 -10.002  0.00  0.00     0.156 S 
ATOM     64  S2  SGN d 804       4.463  61.111 -16.388  0.00  0.00     0.251 S 
ATOM     65  O3  SGN d 804       0.576  59.005 -11.132  0.00  0.00    -0.391 OA
ATOM     66  O1S SGN d 804      -1.001  63.714  -8.864  0.00  0.00    -0.296 OA
ATOM     67  O5  SGN d 804       2.550  62.363 -12.518  0.00  0.00    -0.350 OA
ATOM     68  C3  SGN d 804       1.479  60.087 -11.185  0.00  0.00     0.083 C 
ATOM     69  C6  SGN d 804       4.296  61.079 -13.629  0.00  0.00     0.067 C 
ATOM     70  O2S SGN d 804      -2.665  62.249  -9.804  0.00  0.00    -0.296 OA
ATOM     71  C2  SGN d 804       0.705  61.394 -11.286  0.00  0.00     0.081 C 
ATOM     72  O4S SGN d 804       5.638  61.999 -16.319  0.00  0.00    -0.572 OA
ATOM     73  O4  SGN d 804       3.157  58.750 -12.280  0.00  0.00    -0.348 OA
ATOM     74  H   SGN d 804       1.818  62.835  -9.438  0.00  0.00     0.212 HD
ATOM     75  H   SGN d 804       3.921  61.157 -11.560  0.00  0.00     0.090 H 
ATOM     76  H   SGN d 804       1.137  63.474 -11.539  0.00  0.00     0.131 H 
ATOM     77  H   SGN d 804       0.514  61.672  -9.318  0.00  0.00     0.140 HD
ATOM     78  H   SGN d 804       1.807  59.910 -13.295  0.00  0.00     0.091 H 
ATOM     79  H   SGN d 804      -0.429  64.002 -11.383  0.00  0.00     0.231 HD
ATOM     80  H   SGN d 804       1.071  58.173 -11.067  0.00  0.00     0.210 HD
ATOM     81  H   SGN d 804      -0.120  64.098  -8.993  0.00  0.00     0.231 HD
ATOM     82  H   SGN d 804       2.073  60.084 -10.294  0.00  0.00     0.089 H 
ATOM     83  H   SGN d 804       4.817  60.146 -13.598  0.00  0.00     0.080 H 
ATOM     84  H   SGN d 804       4.994  61.887 -13.563  0.00  0.00     0.080 H 
ATOM     85  H   SGN d 804      -2.879  61.670 -10.553  0.00  0.00     0.231 HD
ATOM     86  H   SGN d 804       0.085  61.384 -12.158  0.00  0.00     0.076 H 
ATOM     87  O5  UAP d 801      -0.955  49.335 -15.127  0.00  0.00    -0.311 OA
ATOM     88  O2  UAP d 801      -3.787  49.523 -14.969  0.00  0.00    -0.244 OA
ATOM     89  O1S UAP d 801      -6.080  48.410 -14.234  0.00  0.00    -0.572 OA
ATOM     90  O3S UAP d 801      -5.515  50.521 -13.222  0.00  0.00    -0.572 OA
ATOM     91  C1  UAP d 801      -1.609  50.429 -14.481  0.00  0.00     0.167 C 
ATOM     92  O2S UAP d 801      -6.219  50.439 -15.523  0.00  0.00    -0.572 OA
ATOM     93  C4  UAP d 801      -1.733  50.124 -17.216  0.00  0.00    -0.034 C 
ATOM     94  C3  UAP d 801      -2.785  50.936 -16.643  0.00  0.00     0.086 C 
ATOM     95  O62 UAP d 801       0.818  47.938 -16.417  0.00  0.00    -0.642 OA
ATOM     96  S   UAP d 801      -5.469  49.732 -14.467  0.00  0.00     0.252 S 
ATOM     97  C6  UAP d 801       0.039  48.646 -17.096  0.00  0.00     0.233 C 
ATOM     98  C2  UAP d 801      -2.954  50.666 -15.151  0.00  0.00     0.135 C 
ATOM     99  C5  UAP d 801      -0.887  49.379 -16.475  0.00  0.00     0.147 C 
ATOM    100  O61 UAP d 801       0.104  48.666 -18.348  0.00  0.00    -0.642 OA
ATOM    101  O3  UAP d 801      -2.511  52.302 -16.866  0.00  0.00    -0.389 OA
ATOM    102  H   UAP d 801      -1.741  50.177 -13.450  0.00  0.00     0.134 H 
ATOM    103  H   UAP d 801      -1.624  50.115 -18.243  0.00  0.00     0.085 H 
ATOM    104  H   UAP d 801      -3.705  50.675 -17.123  0.00  0.00     0.093 H 
ATOM    105  H   UAP d 801      -3.406  51.524 -14.701  0.00  0.00     0.097 H 
ATOM    106  H   UAP d 801      -1.677  52.540 -16.431  0.00  0.00     0.210 HD
ENDROOT
TORSDOF 33
ENDMDL
MODEL 50
REMARK VINA RESULT:      -5.4      3.115      5.921
REMARK  0 active torsions:
REMARK  status: ('A' for Active; 'I' for Inactive)
REMARK       I    between atoms: C2_1  and  O2_62 
REMARK       I    between atoms: O3_2  and  C3_65 
REMARK       I    between atoms: O1_3  and  C1_15 
REMARK       I    between atoms: C5_5  and  C6_58 
REMARK       I    between atoms: C1_6  and  O4_70 
REMARK       I    between atoms: S_7  and  O2_62 
REMARK       I    between atoms: O2_9  and  C2_55 
REMARK       I    between atoms: O2_9  and  S_49 
REMARK       I    between atoms: O4_11  and  C1_28 
REMARK       I    between atoms: O4_11  and  C4_41 
REMARK       I    between atoms: O6_12  and  C6_58 
REMARK       I    between atoms: O6_12  and  S2_38 
REMARK       I    between atoms: S1_16  and  N_21 
REMARK       I    between atoms: S1_16  and  O1S_32 
REMARK       I    between atoms: S1_16  and  O2S_53 
REMARK       I    between atoms: S1_16  and  O3S_24 
REMARK       I    between atoms: N_18  and  C2_66 
REMARK       I    between atoms: N_18  and  S1_37 
REMARK       I    between atoms: C3_19  and  O3_27 
REMARK       I    between atoms: N_21  and  C2_31 
REMARK       I    between atoms: C4_22  and  O4_70 
REMARK       I    between atoms: C6_25  and  C5_46 
REMARK       I    between atoms: C6_25  and  O6_45 
REMARK       I    between atoms: O1_33  and  C1_51 
REMARK       I    between atoms: O1_33  and  C4_34 
REMARK       I    between atoms: O3S_35  and  S1_37 
REMARK       I    between atoms: S1_37  and  O1S_42 
REMARK       I    between atoms: S1_37  and  O2S_63 
REMARK       I    between atoms: O3_39  and  C3_54 
REMARK       I    between atoms: C6_40  and  C5_60 
REMARK       I    between atoms: C3_44  and  O3_64 
REMARK       I    between atoms: O6_45  and  S2_59 
REMARK       I    between atoms: C6_50  and  C5_56 
ROOT
ATOM      1  C2  IDS d 803      -0.079  54.128 -12.604  0.00  0.00     0.134 C 
ATOM      2  C1  IDS d 803       0.651  53.892 -13.926  0.00  0.00     0.161 C 
ATOM      3  S   IDS d 803      -0.355  52.108 -10.741  0.00  0.00     0.252 S 
ATOM      4  O3S IDS d 803       0.745  51.167 -11.028  0.00  0.00    -0.572 OA
ATOM      5  O5  IDS d 803      -0.301  53.773 -14.995  0.00  0.00    -0.340 OA
ATOM      6  C3  IDS d 803      -1.005  55.338 -12.719  0.00  0.00     0.094 C 
ATOM      7  O2S IDS d 803       0.090  53.082  -9.727  0.00  0.00    -0.572 OA
ATOM      8  O3  IDS d 803      -0.263  56.529 -12.877  0.00  0.00    -0.390 OA
ATOM      9  C4  IDS d 803      -1.967  55.140 -13.890  0.00  0.00     0.103 C 
ATOM     10  C6  IDS d 803      -2.078  54.645 -16.334  0.00  0.00     0.206 C 
ATOM     11  O61 IDS d 803      -2.509  55.613 -16.998  0.00  0.00    -0.646 OA
ATOM     12  C5  IDS d 803      -1.148  54.921 -15.163  0.00  0.00     0.152 C 
ATOM     13  O2  IDS d 803      -0.806  52.962 -12.222  0.00  0.00    -0.244 OA
ATOM     14  O62 IDS d 803      -2.357  53.459 -16.611  0.00  0.00    -0.646 OA
ATOM     15  O1S IDS d 803      -1.520  51.361 -10.230  0.00  0.00    -0.572 OA
ATOM     16  H   IDS d 803       0.644  54.332 -11.842  0.00  0.00     0.097 H 
ATOM     17  H   IDS d 803       1.193  52.971 -13.865  0.00  0.00     0.133 H 
ATOM     18  H   IDS d 803      -1.571  55.427 -11.814  0.00  0.00     0.091 H 
ATOM     19  H   IDS d 803       0.261  56.478 -13.692  0.00  0.00     0.210 HD
ATOM     20  H   IDS d 803      -2.589  56.004 -13.996  0.00  0.00     0.092 H 
ATOM     21  H   IDS d 803      -0.565  55.798 -15.351  0.00  0.00     0.104 H 
ATOM     22  O3  SGN d 802      -5.341  50.850 -12.476  0.00  0.00    -0.391 OA
ATOM     23  O4  SGN d 802      -5.858  51.078 -15.239  0.00  0.00    -0.348 OA
ATOM     24  S1  SGN d 802      -4.119  53.734  -9.724  0.00  0.00     0.156 S 
ATOM     25  O5S SGN d 802      -9.760  55.347 -15.777  0.00  0.00    -0.572 OA
ATOM     26  N   SGN d 802      -3.813  52.895 -11.249  0.00  0.00    -0.210 NA
ATOM     27  O3S SGN d 802      -3.605  55.113  -9.815  0.00  0.00    -0.296 OA
ATOM     28  C6  SGN d 802      -6.149  53.808 -16.302  0.00  0.00     0.067 C 
ATOM     29  O5  SGN d 802      -5.006  54.534 -14.328  0.00  0.00    -0.349 OA
ATOM     30  C2  SGN d 802      -4.678  53.159 -12.378  0.00  0.00     0.081 C 
ATOM     31  O1S SGN d 802      -3.435  53.023  -8.628  0.00  0.00    -0.296 OA
ATOM     32  O1  SGN d 802      -2.799  54.000 -13.652  0.00  0.00    -0.348 OA
ATOM     33  C4  SGN d 802      -5.749  52.231 -14.402  0.00  0.00     0.095 C 
ATOM     34  O6  SGN d 802      -7.337  54.298 -15.684  0.00  0.00    -0.254 OA
ATOM     35  C5  SGN d 802      -5.178  53.405 -15.202  0.00  0.00     0.091 C 
ATOM     36  O4S SGN d 802      -9.172  53.792 -17.527  0.00  0.00    -0.572 OA
ATOM     37  C1  SGN d 802      -4.125  54.310 -13.217  0.00  0.00     0.150 C 
ATOM     38  O6S SGN d 802      -8.213  56.009 -17.502  0.00  0.00    -0.572 OA
ATOM     39  O2S SGN d 802      -5.571  53.767  -9.462  0.00  0.00    -0.296 OA
ATOM     40  S2  SGN d 802      -8.677  54.886 -16.666  0.00  0.00     0.251 S 
ATOM     41  C3  SGN d 802      -4.817  51.912 -13.241  0.00  0.00     0.083 C 
ATOM     42  H   SGN d 802      -4.740  50.655 -11.740  0.00  0.00     0.210 HD
ATOM     43  H   SGN d 802      -3.869  51.895 -11.057  0.00  0.00     0.140 HD
ATOM     44  H   SGN d 802      -2.651  55.091  -9.987  0.00  0.00     0.231 HD
ATOM     45  H   SGN d 802      -6.381  52.959 -16.911  0.00  0.00     0.080 H 
ATOM     46  H   SGN d 802      -5.715  54.563 -16.923  0.00  0.00     0.080 H 
ATOM     47  H   SGN d 802      -5.643  53.435 -12.006  0.00  0.00     0.076 H 
ATOM     48  H   SGN d 802      -3.775  52.116  -8.569  0.00  0.00     0.231 HD
ATOM     49  H   SGN d 802      -6.718  52.496 -14.033  0.00  0.00     0.091 H 
ATOM     50  H   SGN d 802      -4.244  53.110 -15.630  0.00  0.00     0.090 H 
ATOM     51  H   SGN d 802      -4.073  55.207 -12.634  0.00  0.00     0.131 H 
ATOM     52  H   SGN d 802      -5.909  52.860  -9.402  0.00  0.00     0.231 HD
ATOM     53  H   SGN d 802      -3.858  51.617 -13.614  0.00  0.00     0.089 H 
ATOM     54  O1  SGN d 804       5.100  56.599 -16.535  0.00  0.00    -0.369 OA
ATOM     55  C5  SGN d 804       4.017  54.873 -14.486  0.00  0.00     0.091 C 
ATOM     56  O6  SGN d 804       4.349  52.785 -13.311  0.00  0.00    -0.254 OA
ATOM     57  O6S SGN d 804       4.992  50.397 -12.344  0.00  0.00    -0.572 OA
ATOM     58  C1  SGN d 804       4.954  55.186 -16.687  0.00  0.00     0.147 C 
ATOM     59  N   SGN d 804       3.464  55.596 -18.577  0.00  0.00    -0.210 NA
ATOM     60  C4  SGN d 804       2.653  54.511 -15.073  0.00  0.00     0.095 C 
ATOM     61  O5S SGN d 804       3.386  51.687 -11.094  0.00  0.00    -0.572 OA
ATOM     62  O3S SGN d 804       5.382  54.099 -19.638  0.00  0.00    -0.296 OA
ATOM     63  S1  SGN d 804       4.478  55.217 -19.976  0.00  0.00     0.156 S 
ATOM     64  S2  SGN d 804       4.620  51.754 -11.899  0.00  0.00     0.251 S 
ATOM     65  O3  SGN d 804       1.240  54.899 -16.983  0.00  0.00    -0.391 OA
ATOM     66  O1S SGN d 804       5.276  56.404 -20.336  0.00  0.00    -0.296 OA
ATOM     67  O5  SGN d 804       5.049  54.514 -15.421  0.00  0.00    -0.350 OA
ATOM     68  C3  SGN d 804       2.476  55.244 -16.399  0.00  0.00     0.083 C 
ATOM     69  C6  SGN d 804       4.258  54.198 -13.139  0.00  0.00     0.067 C 
ATOM     70  O2S SGN d 804       3.626  54.834 -21.117  0.00  0.00    -0.296 OA
ATOM     71  C2  SGN d 804       3.610  54.857 -17.338  0.00  0.00     0.081 C 
ATOM     72  O4S SGN d 804       5.708  52.318 -11.079  0.00  0.00    -0.572 OA
ATOM     73  O4  SGN d 804       1.619  54.913 -14.172  0.00  0.00    -0.348 OA
ATOM     74  H   SGN d 804       5.032  57.027 -17.403  0.00  0.00     0.212 HD
ATOM     75  H   SGN d 804       4.036  55.929 -14.314  0.00  0.00     0.090 H 
ATOM     76  H   SGN d 804       5.750  54.844 -17.316  0.00  0.00     0.131 H 
ATOM     77  H   SGN d 804       3.631  56.577 -18.353  0.00  0.00     0.140 HD
ATOM     78  H   SGN d 804       2.596  53.453 -15.227  0.00  0.00     0.091 H 
ATOM     79  H   SGN d 804       5.942  54.351 -18.888  0.00  0.00     0.231 HD
ATOM     80  H   SGN d 804       0.518  55.147 -16.383  0.00  0.00     0.210 HD
ATOM     81  H   SGN d 804       5.837  56.657 -19.586  0.00  0.00     0.231 HD
ATOM     82  H   SGN d 804       2.493  56.301 -16.224  0.00  0.00     0.089 H 
ATOM     83  H   SGN d 804       3.446  54.423 -12.480  0.00  0.00     0.080 H 
ATOM     84  H   SGN d 804       5.174  54.561 -12.724  0.00  0.00     0.080 H 
ATOM     85  H   SGN d 804       3.101  54.053 -20.881  0.00  0.00     0.231 HD
ATOM     86  H   SGN d 804       3.575  53.807 -17.540  0.00  0.00     0.076 H 
ATOM     87  O5  UAP d 801      -8.051  50.447 -14.605  0.00  0.00    -0.311 OA
ATOM     88  O2  UAP d 801      -8.438  49.427 -17.230  0.00  0.00    -0.244 OA
ATOM     89  O1S UAP d 801     -10.050  49.130 -19.316  0.00  0.00    -0.572 OA
ATOM     90  O3S UAP d 801      -7.991  50.324 -19.685  0.00  0.00    -0.572 OA
ATOM     91  C1  UAP d 801      -7.183  50.786 -15.688  0.00  0.00     0.167 C 
ATOM     92  O2S UAP d 801      -7.960  47.938 -19.377  0.00  0.00    -0.572 OA
ATOM     93  C4  UAP d 801      -7.208  48.238 -14.641  0.00  0.00    -0.034 C 
ATOM     94  C3  UAP d 801      -6.683  48.342 -15.986  0.00  0.00     0.086 C 
ATOM     95  O62 UAP d 801      -8.928  49.977 -12.203  0.00  0.00    -0.642 OA
ATOM     96  S   UAP d 801      -8.617  49.195 -18.974  0.00  0.00     0.252 S 
ATOM     97  C6  UAP d 801      -8.317  49.050 -12.784  0.00  0.00     0.233 C 
ATOM     98  C2  UAP d 801      -7.141  49.626 -16.671  0.00  0.00     0.135 C 
ATOM     99  C5  UAP d 801      -7.850  49.248 -14.018  0.00  0.00     0.147 C 
ATOM    100  O61 UAP d 801      -8.148  47.938 -12.231  0.00  0.00    -0.642 OA
ATOM    101  O3  UAP d 801      -5.275  48.277 -15.957  0.00  0.00    -0.389 OA
ATOM    102  H   UAP d 801      -7.567  51.667 -16.159  0.00  0.00     0.134 H 
ATOM    103  H   UAP d 801      -7.085  47.348 -14.134  0.00  0.00     0.085 H 
ATOM    104  H   UAP d 801      -7.065  47.520 -16.555  0.00  0.00     0.093 H 
ATOM    105  H   UAP d 801      -6.442  49.866 -17.443  0.00  0.00     0.097 H 
ATOM    106  H   UAP d 801      -4.928  49.022 -15.441  0.00  0.00     0.210 HD
ENDROOT
TORSDOF 33
ENDMDL
MODEL 51
REMARK VINA RESULT:      -5.4      3.661      5.893
REMARK  0 active torsions:
REMARK  status: ('A' for Active; 'I' for Inactive)
REMARK       I    between atoms: C2_1  and  O2_62 
REMARK       I    between atoms: O3_2  and  C3_65 
REMARK       I    between atoms: O1_3  and  C1_15 
REMARK       I    between atoms: C5_5  and  C6_58 
REMARK       I    between atoms: C1_6  and  O4_70 
REMARK       I    between atoms: S_7  and  O2_62 
REMARK       I    between atoms: O2_9  and  C2_55 
REMARK       I    between atoms: O2_9  and  S_49 
REMARK       I    between atoms: O4_11  and  C1_28 
REMARK       I    between atoms: O4_11  and  C4_41 
REMARK       I    between atoms: O6_12  and  C6_58 
REMARK       I    between atoms: O6_12  and  S2_38 
REMARK       I    between atoms: S1_16  and  N_21 
REMARK       I    between atoms: S1_16  and  O1S_32 
REMARK       I    between atoms: S1_16  and  O2S_53 
REMARK       I    between atoms: S1_16  and  O3S_24 
REMARK       I    between atoms: N_18  and  C2_66 
REMARK       I    between atoms: N_18  and  S1_37 
REMARK       I    between atoms: C3_19  and  O3_27 
REMARK       I    between atoms: N_21  and  C2_31 
REMARK       I    between atoms: C4_22  and  O4_70 
REMARK       I    between atoms: C6_25  and  C5_46 
REMARK       I    between atoms: C6_25  and  O6_45 
REMARK       I    between atoms: O1_33  and  C1_51 
REMARK       I    between atoms: O1_33  and  C4_34 
REMARK       I    between atoms: O3S_35  and  S1_37 
REMARK       I    between atoms: S1_37  and  O1S_42 
REMARK       I    between atoms: S1_37  and  O2S_63 
REMARK       I    between atoms: O3_39  and  C3_54 
REMARK       I    between atoms: C6_40  and  C5_60 
REMARK       I    between atoms: C3_44  and  O3_64 
REMARK       I    between atoms: O6_45  and  S2_59 
REMARK       I    between atoms: C6_50  and  C5_56 
ROOT
ATOM      1  C2  IDS d 803       0.272  52.600 -14.043  0.00  0.00     0.134 C 
ATOM      2  C1  IDS d 803       1.463  53.294 -14.704  0.00  0.00     0.161 C 
ATOM      3  S   IDS d 803      -1.311  50.827 -15.450  0.00  0.00     0.252 S 
ATOM      4  O3S IDS d 803      -0.458  50.340 -16.553  0.00  0.00    -0.572 OA
ATOM      5  O5  IDS d 803       1.130  54.662 -14.993  0.00  0.00    -0.340 OA
ATOM      6  C3  IDS d 803      -0.181  53.381 -12.810  0.00  0.00     0.094 C 
ATOM      7  O2S IDS d 803      -1.186  49.914 -14.298  0.00  0.00    -0.572 OA
ATOM      8  O3  IDS d 803       0.801  53.338 -11.796  0.00  0.00    -0.390 OA
ATOM      9  C4  IDS d 803      -0.491  54.825 -13.202  0.00  0.00     0.103 C 
ATOM     10  C6  IDS d 803       0.455  56.851 -14.314  0.00  0.00     0.206 C 
ATOM     11  O61 IDS d 803       0.626  57.797 -13.515  0.00  0.00    -0.646 OA
ATOM     12  C5  IDS d 803       0.756  55.437 -13.843  0.00  0.00     0.152 C 
ATOM     13  O2  IDS d 803      -0.797  52.451 -14.976  0.00  0.00    -0.244 OA
ATOM     14  O62 IDS d 803       0.073  57.022 -15.491  0.00  0.00    -0.646 OA
ATOM     15  O1S IDS d 803      -2.716  50.868 -15.898  0.00  0.00    -0.572 OA
ATOM     16  H   IDS d 803       0.574  51.623 -13.727  0.00  0.00     0.097 H 
ATOM     17  H   IDS d 803       1.681  52.806 -15.630  0.00  0.00     0.133 H 
ATOM     18  H   IDS d 803      -1.069  52.927 -12.421  0.00  0.00     0.091 H 
ATOM     19  H   IDS d 803       1.620  53.745 -12.122  0.00  0.00     0.210 HD
ATOM     20  H   IDS d 803      -0.770  55.383 -12.333  0.00  0.00     0.092 H 
ATOM     21  H   IDS d 803       1.544  55.446 -13.120  0.00  0.00     0.104 H 
ATOM     22  O3  SGN d 802      -5.022  54.631 -16.552  0.00  0.00    -0.391 OA
ATOM     23  O4  SGN d 802      -4.104  57.257 -17.010  0.00  0.00    -0.348 OA
ATOM     24  S1  SGN d 802      -4.615  52.188 -13.197  0.00  0.00     0.156 S 
ATOM     25  O5S SGN d 802      -6.179  60.452 -12.624  0.00  0.00    -0.572 OA
ATOM     26  N   SGN d 802      -3.829  53.167 -14.441  0.00  0.00    -0.210 NA
ATOM     27  O3S SGN d 802      -3.816  52.238 -11.960  0.00  0.00    -0.296 OA
ATOM     28  C6  SGN d 802      -3.216  58.772 -14.646  0.00  0.00     0.067 C 
ATOM     29  O5  SGN d 802      -3.009  56.651 -13.556  0.00  0.00    -0.349 OA
ATOM     30  C2  SGN d 802      -3.970  54.607 -14.390  0.00  0.00     0.081 C 
ATOM     31  O1S SGN d 802      -4.716  50.793 -13.664  0.00  0.00    -0.296 OA
ATOM     32  O1  SGN d 802      -1.575  54.856 -14.136  0.00  0.00    -0.348 OA
ATOM     33  C4  SGN d 802      -4.140  56.697 -15.696  0.00  0.00     0.095 C 
ATOM     34  O6  SGN d 802      -4.405  58.947 -13.878  0.00  0.00    -0.254 OA
ATOM     35  C5  SGN d 802      -3.004  57.279 -14.848  0.00  0.00     0.091 C 
ATOM     36  O4S SGN d 802      -5.212  61.351 -14.644  0.00  0.00    -0.572 OA
ATOM     37  C1  SGN d 802      -2.837  55.225 -13.574  0.00  0.00     0.150 C 
ATOM     38  O6S SGN d 802      -3.894  61.221 -12.624  0.00  0.00    -0.572 OA
ATOM     39  O2S SGN d 802      -5.966  52.720 -12.931  0.00  0.00    -0.296 OA
ATOM     40  S2  SGN d 802      -4.945  60.562 -13.424  0.00  0.00     0.251 S 
ATOM     41  C3  SGN d 802      -3.969  55.188 -15.798  0.00  0.00     0.083 C 
ATOM     42  H   SGN d 802      -4.905  53.669 -16.611  0.00  0.00     0.210 HD
ATOM     43  H   SGN d 802      -4.199  52.862 -15.341  0.00  0.00     0.140 HD
ATOM     44  H   SGN d 802      -2.928  51.888 -12.134  0.00  0.00     0.231 HD
ATOM     45  H   SGN d 802      -3.322  59.256 -15.594  0.00  0.00     0.080 H 
ATOM     46  H   SGN d 802      -2.379  59.201 -14.137  0.00  0.00     0.080 H 
ATOM     47  H   SGN d 802      -4.902  54.837 -13.918  0.00  0.00     0.076 H 
ATOM     48  H   SGN d 802      -5.243  50.762 -14.478  0.00  0.00     0.231 HD
ATOM     49  H   SGN d 802      -5.076  56.930 -15.234  0.00  0.00     0.091 H 
ATOM     50  H   SGN d 802      -2.076  57.107 -15.351  0.00  0.00     0.090 H 
ATOM     51  H   SGN d 802      -2.860  54.863 -12.567  0.00  0.00     0.131 H 
ATOM     52  H   SGN d 802      -6.492  52.686 -13.746  0.00  0.00     0.231 HD
ATOM     53  H   SGN d 802      -3.046  54.957 -16.287  0.00  0.00     0.089 H 
ATOM     54  O1  SGN d 804       7.106  53.668 -13.309  0.00  0.00    -0.369 OA
ATOM     55  C5  SGN d 804       4.817  52.205 -14.294  0.00  0.00     0.091 C 
ATOM     56  O6  SGN d 804       4.060  50.687 -16.018  0.00  0.00    -0.254 OA
ATOM     57  O6S SGN d 804       3.597  49.131 -18.120  0.00  0.00    -0.572 OA
ATOM     58  C1  SGN d 804       6.726  53.627 -14.686  0.00  0.00     0.147 C 
ATOM     59  N   SGN d 804       6.447  56.052 -14.627  0.00  0.00    -0.210 NA
ATOM     60  C4  SGN d 804       3.850  53.337 -14.642  0.00  0.00     0.095 C 
ATOM     61  O5S SGN d 804       1.939  49.129 -16.371  0.00  0.00    -0.572 OA
ATOM     62  O3S SGN d 804       8.232  55.699 -16.560  0.00  0.00    -0.296 OA
ATOM     63  S1  SGN d 804       7.883  56.640 -15.476  0.00  0.00     0.156 S 
ATOM     64  S2  SGN d 804       3.385  49.182 -16.661  0.00  0.00     0.251 S 
ATOM     65  O3  SGN d 804       3.641  55.735 -14.619  0.00  0.00    -0.391 OA
ATOM     66  O1S SGN d 804       9.007  56.738 -14.526  0.00  0.00    -0.296 OA
ATOM     67  O5  SGN d 804       6.053  52.398 -15.003  0.00  0.00    -0.350 OA
ATOM     68  C3  SGN d 804       4.496  54.668 -14.273  0.00  0.00     0.083 C 
ATOM     69  C6  SGN d 804       4.229  50.833 -14.610  0.00  0.00     0.067 C 
ATOM     70  O2S SGN d 804       7.609  57.971 -16.050  0.00  0.00    -0.296 OA
ATOM     71  C2  SGN d 804       5.815  54.808 -15.021  0.00  0.00     0.081 C 
ATOM     72  O4S SGN d 804       4.053  48.032 -16.025  0.00  0.00    -0.572 OA
ATOM     73  O4  SGN d 804       2.639  53.180 -13.901  0.00  0.00    -0.348 OA
ATOM     74  H   SGN d 804       7.557  54.506 -13.123  0.00  0.00     0.212 HD
ATOM     75  H   SGN d 804       4.997  52.233 -13.240  0.00  0.00     0.090 H 
ATOM     76  H   SGN d 804       7.621  53.687 -15.270  0.00  0.00     0.131 H 
ATOM     77  H   SGN d 804       6.710  55.947 -13.647  0.00  0.00     0.140 HD
ATOM     78  H   SGN d 804       3.630  53.313 -15.689  0.00  0.00     0.091 H 
ATOM     79  H   SGN d 804       8.413  54.824 -16.182  0.00  0.00     0.231 HD
ATOM     80  H   SGN d 804       2.801  55.644 -14.140  0.00  0.00     0.210 HD
ATOM     81  H   SGN d 804       9.188  55.863 -14.148  0.00  0.00     0.231 HD
ATOM     82  H   SGN d 804       4.673  54.695 -13.217  0.00  0.00     0.089 H 
ATOM     83  H   SGN d 804       3.279  50.735 -14.127  0.00  0.00     0.080 H 
ATOM     84  H   SGN d 804       4.896  50.075 -14.255  0.00  0.00     0.080 H 
ATOM     85  H   SGN d 804       6.870  57.908 -16.676  0.00  0.00     0.231 HD
ATOM     86  H   SGN d 804       5.637  54.814 -16.076  0.00  0.00     0.076 H 
ATOM     87  O5  UAP d 801      -6.415  57.743 -17.197  0.00  0.00    -0.311 OA
ATOM     88  O2  UAP d 801      -5.740  59.972 -18.827  0.00  0.00    -0.244 OA
ATOM     89  O1S UAP d 801      -6.194  62.501 -19.484  0.00  0.00    -0.572 OA
ATOM     90  O3S UAP d 801      -3.992  61.960 -18.672  0.00  0.00    -0.572 OA
ATOM     91  C1  UAP d 801      -5.086  58.265 -17.258  0.00  0.00     0.167 C 
ATOM     92  O2S UAP d 801      -4.664  61.273 -20.878  0.00  0.00    -0.572 OA
ATOM     93  C4  UAP d 801      -6.193  56.958 -19.416  0.00  0.00    -0.034 C 
ATOM     94  C3  UAP d 801      -5.087  57.837 -19.734  0.00  0.00     0.086 C 
ATOM     95  O62 UAP d 801      -8.404  56.094 -16.909  0.00  0.00    -0.642 OA
ATOM     96  S   UAP d 801      -5.122  61.488 -19.493  0.00  0.00     0.252 S 
ATOM     97  C6  UAP d 801      -7.825  56.108 -18.020  0.00  0.00     0.233 C 
ATOM     98  C2  UAP d 801      -4.855  58.869 -18.635  0.00  0.00     0.135 C 
ATOM     99  C5  UAP d 801      -6.799  56.939 -18.211  0.00  0.00     0.147 C 
ATOM    100  O61 UAP d 801      -8.200  55.365 -18.957  0.00  0.00    -0.642 OA
ATOM    101  O3  UAP d 801      -3.918  57.077 -19.947  0.00  0.00    -0.389 OA
ATOM    102  H   UAP d 801      -4.985  59.010 -16.497  0.00  0.00     0.134 H 
ATOM    103  H   UAP d 801      -6.534  56.315 -20.148  0.00  0.00     0.085 H 
ATOM    104  H   UAP d 801      -5.333  58.370 -20.629  0.00  0.00     0.093 H 
ATOM    105  H   UAP d 801      -3.840  59.200 -18.690  0.00  0.00     0.097 H 
ATOM    106  H   UAP d 801      -3.694  56.594 -19.137  0.00  0.00     0.210 HD
ENDROOT
TORSDOF 33
ENDMDL
MODEL 52
REMARK VINA RESULT:      -5.4      3.568      7.880
REMARK  0 active torsions:
REMARK  status: ('A' for Active; 'I' for Inactive)
REMARK       I    between atoms: C2_1  and  O2_62 
REMARK       I    between atoms: O3_2  and  C3_65 
REMARK       I    between atoms: O1_3  and  C1_15 
REMARK       I    between atoms: C5_5  and  C6_58 
REMARK       I    between atoms: C1_6  and  O4_70 
REMARK       I    between atoms: S_7  and  O2_62 
REMARK       I    between atoms: O2_9  and  C2_55 
REMARK       I    between atoms: O2_9  and  S_49 
REMARK       I    between atoms: O4_11  and  C1_28 
REMARK       I    between atoms: O4_11  and  C4_41 
REMARK       I    between atoms: O6_12  and  C6_58 
REMARK       I    between atoms: O6_12  and  S2_38 
REMARK       I    between atoms: S1_16  and  N_21 
REMARK       I    between atoms: S1_16  and  O1S_32 
REMARK       I    between atoms: S1_16  and  O2S_53 
REMARK       I    between atoms: S1_16  and  O3S_24 
REMARK       I    between atoms: N_18  and  C2_66 
REMARK       I    between atoms: N_18  and  S1_37 
REMARK       I    between atoms: C3_19  and  O3_27 
REMARK       I    between atoms: N_21  and  C2_31 
REMARK       I    between atoms: C4_22  and  O4_70 
REMARK       I    between atoms: C6_25  and  C5_46 
REMARK       I    between atoms: C6_25  and  O6_45 
REMARK       I    between atoms: O1_33  and  C1_51 
REMARK       I    between atoms: O1_33  and  C4_34 
REMARK       I    between atoms: O3S_35  and  S1_37 
REMARK       I    between atoms: S1_37  and  O1S_42 
REMARK       I    between atoms: S1_37  and  O2S_63 
REMARK       I    between atoms: O3_39  and  C3_54 
REMARK       I    between atoms: C6_40  and  C5_60 
REMARK       I    between atoms: C3_44  and  O3_64 
REMARK       I    between atoms: O6_45  and  S2_59 
REMARK       I    between atoms: C6_50  and  C5_56 
ROOT
ATOM      1  C2  IDS d 803       3.237  56.901 -17.788  0.00  0.00     0.134 C 
ATOM      2  C1  IDS d 803       3.749  55.570 -17.239  0.00  0.00     0.161 C 
ATOM      3  S   IDS d 803       3.526  59.246 -16.357  0.00  0.00     0.252 S 
ATOM      4  O3S IDS d 803       4.662  59.003 -15.446  0.00  0.00    -0.572 OA
ATOM      5  O5  IDS d 803       2.646  54.781 -16.765  0.00  0.00    -0.340 OA
ATOM      6  C3  IDS d 803       2.170  56.659 -18.856  0.00  0.00     0.094 C 
ATOM      7  O2S IDS d 803       4.024  59.859 -17.603  0.00  0.00    -0.572 OA
ATOM      8  O3  IDS d 803       2.729  56.049 -20.000  0.00  0.00    -0.390 OA
ATOM      9  C4  IDS d 803       1.050  55.797 -18.276  0.00  0.00     0.103 C 
ATOM     10  C6  IDS d 803       0.575  53.640 -17.110  0.00  0.00     0.206 C 
ATOM     11  O61 IDS d 803      -0.075  52.845 -17.823  0.00  0.00    -0.646 OA
ATOM     12  C5  IDS d 803       1.655  54.489 -17.762  0.00  0.00     0.152 C 
ATOM     13  O2  IDS d 803       2.729  57.713 -16.731  0.00  0.00    -0.244 OA
ATOM     14  O62 IDS d 803       0.392  53.746 -15.878  0.00  0.00    -0.646 OA
ATOM     15  O1S IDS d 803       2.563  60.155 -15.710  0.00  0.00    -0.572 OA
ATOM     16  H   IDS d 803       4.052  57.423 -18.244  0.00  0.00     0.097 H 
ATOM     17  H   IDS d 803       4.397  55.761 -16.409  0.00  0.00     0.133 H 
ATOM     18  H   IDS d 803       1.764  57.602 -19.157  0.00  0.00     0.091 H 
ATOM     19  H   IDS d 803       3.107  55.189 -19.756  0.00  0.00     0.210 HD
ATOM     20  H   IDS d 803       0.323  55.593 -19.033  0.00  0.00     0.092 H 
ATOM     21  H   IDS d 803       2.091  53.965 -18.587  0.00  0.00     0.104 H 
ATOM     22  O3  SGN d 802      -1.504  58.929 -14.344  0.00  0.00    -0.391 OA
ATOM     23  O4  SGN d 802      -2.516  56.364 -13.756  0.00  0.00    -0.348 OA
ATOM     24  S1  SGN d 802      -0.168  60.527 -17.957  0.00  0.00     0.156 S 
ATOM     25  O5S SGN d 802      -6.923  55.510 -17.442  0.00  0.00    -0.572 OA
ATOM     26  N   SGN d 802      -0.035  59.247 -16.746  0.00  0.00    -0.210 NA
ATOM     27  O3S SGN d 802       0.158  59.977 -19.285  0.00  0.00    -0.296 OA
ATOM     28  C6  SGN d 802      -3.303  54.700 -16.054  0.00  0.00     0.067 C 
ATOM     29  O5  SGN d 802      -1.927  56.146 -17.376  0.00  0.00    -0.349 OA
ATOM     30  C2  SGN d 802      -1.108  58.283 -16.627  0.00  0.00     0.081 C 
ATOM     31  O1S SGN d 802       0.774  61.612 -17.627  0.00  0.00    -0.296 OA
ATOM     32  O1  SGN d 802       0.410  56.485 -17.197  0.00  0.00    -0.348 OA
ATOM     33  C4  SGN d 802      -2.398  56.829 -15.101  0.00  0.00     0.095 C 
ATOM     34  O6  SGN d 802      -4.414  55.392 -16.620  0.00  0.00    -0.254 OA
ATOM     35  C5  SGN d 802      -2.116  55.652 -16.039  0.00  0.00     0.091 C 
ATOM     36  O4S SGN d 802      -6.469  54.149 -15.501  0.00  0.00    -0.572 OA
ATOM     37  C1  SGN d 802      -0.847  57.079 -17.530  0.00  0.00     0.150 C 
ATOM     38  O6S SGN d 802      -5.786  53.399 -17.693  0.00  0.00    -0.572 OA
ATOM     39  O2S SGN d 802      -1.546  61.055 -17.968  0.00  0.00    -0.296 OA
ATOM     40  S2  SGN d 802      -5.964  54.577 -16.822  0.00  0.00     0.251 S 
ATOM     41  C3  SGN d 802      -1.248  57.823 -15.182  0.00  0.00     0.083 C 
ATOM     42  H   SGN d 802      -0.766  59.556 -14.402  0.00  0.00     0.210 HD
ATOM     43  H   SGN d 802       0.060  59.702 -15.838  0.00  0.00     0.140 HD
ATOM     44  H   SGN d 802       1.064  59.631 -19.277  0.00  0.00     0.231 HD
ATOM     45  H   SGN d 802      -3.537  54.394 -15.056  0.00  0.00     0.080 H 
ATOM     46  H   SGN d 802      -3.075  53.829 -16.632  0.00  0.00     0.080 H 
ATOM     47  H   SGN d 802      -2.019  58.754 -16.933  0.00  0.00     0.076 H 
ATOM     48  H   SGN d 802       0.558  61.974 -16.753  0.00  0.00     0.231 HD
ATOM     49  H   SGN d 802      -3.313  57.301 -15.396  0.00  0.00     0.091 H 
ATOM     50  H   SGN d 802      -1.242  55.140 -15.697  0.00  0.00     0.090 H 
ATOM     51  H   SGN d 802      -0.799  57.384 -18.555  0.00  0.00     0.131 H 
ATOM     52  H   SGN d 802      -1.761  61.417 -17.094  0.00  0.00     0.231 HD
ATOM     53  H   SGN d 802      -0.340  57.359 -14.857  0.00  0.00     0.089 H 
ATOM     54  O1  SGN d 804       7.331  51.510 -19.389  0.00  0.00    -0.369 OA
ATOM     55  C5  SGN d 804       6.829  54.114 -18.239  0.00  0.00     0.091 C 
ATOM     56  O6  SGN d 804       7.601  55.706 -16.589  0.00  0.00    -0.254 OA
ATOM     57  O6S SGN d 804       8.676  57.118 -14.615  0.00  0.00    -0.572 OA
ATOM     58  C1  SGN d 804       7.327  51.767 -17.983  0.00  0.00     0.147 C 
ATOM     59  N   SGN d 804       5.494  50.171 -17.751  0.00  0.00    -0.210 NA
ATOM     60  C4  SGN d 804       5.435  53.926 -17.640  0.00  0.00     0.095 C 
ATOM     61  O5S SGN d 804       7.172  58.278 -16.096  0.00  0.00    -0.572 OA
ATOM     62  O3S SGN d 804       7.360  49.181 -16.143  0.00  0.00    -0.296 OA
ATOM     63  S1  SGN d 804       6.288  48.748 -17.062  0.00  0.00     0.156 S 
ATOM     64  S2  SGN d 804       8.232  57.256 -16.015  0.00  0.00     0.251 S 
ATOM     65  O3  SGN d 804       3.677  52.302 -17.386  0.00  0.00    -0.391 OA
ATOM     66  O1S SGN d 804       6.867  47.938 -18.149  0.00  0.00    -0.296 OA
ATOM     67  O5  SGN d 804       7.718  53.120 -17.700  0.00  0.00    -0.350 OA
ATOM     68  C3  SGN d 804       4.947  52.517 -17.960  0.00  0.00     0.083 C 
ATOM     69  C6  SGN d 804       7.377  55.515 -17.985  0.00  0.00     0.067 C 
ATOM     70  O2S SGN d 804       5.301  47.941 -16.319  0.00  0.00    -0.296 OA
ATOM     71  C2  SGN d 804       5.938  51.506 -17.399  0.00  0.00     0.081 C 
ATOM     72  O4S SGN d 804       9.372  57.666 -16.855  0.00  0.00    -0.572 OA
ATOM     73  O4  SGN d 804       4.534  54.876 -18.211  0.00  0.00    -0.348 OA
ATOM     74  H   SGN d 804       7.064  50.592 -19.551  0.00  0.00     0.212 HD
ATOM     75  H   SGN d 804       6.755  53.995 -19.300  0.00  0.00     0.090 H 
ATOM     76  H   SGN d 804       8.036  51.105 -17.531  0.00  0.00     0.131 H 
ATOM     77  H   SGN d 804       5.582  50.092 -18.763  0.00  0.00     0.140 HD
ATOM     78  H   SGN d 804       5.477  54.069 -16.580  0.00  0.00     0.091 H 
ATOM     79  H   SGN d 804       8.009  49.712 -16.631  0.00  0.00     0.231 HD
ATOM     80  H   SGN d 804       3.046  52.946 -17.744  0.00  0.00     0.210 HD
ATOM     81  H   SGN d 804       7.516  48.468 -18.638  0.00  0.00     0.231 HD
ATOM     82  H   SGN d 804       4.871  52.401 -19.021  0.00  0.00     0.089 H 
ATOM     83  H   SGN d 804       6.671  56.239 -18.333  0.00  0.00     0.080 H 
ATOM     84  H   SGN d 804       8.303  55.630 -18.508  0.00  0.00     0.080 H 
ATOM     85  H   SGN d 804       4.920  48.473 -15.604  0.00  0.00     0.231 HD
ATOM     86  H   SGN d 804       5.991  51.598 -16.335  0.00  0.00     0.076 H 
ATOM     87  O5  UAP d 801      -4.477  57.564 -13.187  0.00  0.00    -0.311 OA
ATOM     88  O2  UAP d 801      -5.192  55.430 -11.451  0.00  0.00    -0.244 OA
ATOM     89  O1S UAP d 801      -7.095  53.859 -10.478  0.00  0.00    -0.572 OA
ATOM     90  O3S UAP d 801      -5.285  52.787 -11.651  0.00  0.00    -0.572 OA
ATOM     91  C1  UAP d 801      -3.856  56.280 -13.265  0.00  0.00     0.167 C 
ATOM     92  O2S UAP d 801      -4.923  53.699  -9.454  0.00  0.00    -0.572 OA
ATOM     93  C4  UAP d 801      -3.401  57.942 -11.116  0.00  0.00    -0.034 C 
ATOM     94  C3  UAP d 801      -3.133  56.540 -10.873  0.00  0.00     0.086 C 
ATOM     95  O62 UAP d 801      -4.863  60.129 -13.353  0.00  0.00    -0.642 OA
ATOM     96  S   UAP d 801      -5.642  53.880 -10.728  0.00  0.00     0.252 S 
ATOM     97  C6  UAP d 801      -4.257  59.703 -12.343  0.00  0.00     0.233 C 
ATOM     98  C2  UAP d 801      -3.850  55.648 -11.881  0.00  0.00     0.135 C 
ATOM     99  C5  UAP d 801      -4.038  58.393 -12.217  0.00  0.00     0.147 C 
ATOM    100  O61 UAP d 801      -3.867  60.483 -11.442  0.00  0.00    -0.642 OA
ATOM    101  O3  UAP d 801      -1.743  56.305 -10.910  0.00  0.00    -0.389 OA
ATOM    102  H   UAP d 801      -4.415  55.679 -13.952  0.00  0.00     0.134 H 
ATOM    103  H   UAP d 801      -3.088  58.630 -10.414  0.00  0.00     0.085 H 
ATOM    104  H   UAP d 801      -3.510  56.295  -9.902  0.00  0.00     0.093 H 
ATOM    105  H   UAP d 801      -3.328  54.717 -11.940  0.00  0.00     0.097 H 
ATOM    106  H   UAP d 801      -1.401  56.527 -11.790  0.00  0.00     0.210 HD
ENDROOT
TORSDOF 33
ENDMDL
MODEL 53
REMARK VINA RESULT:      -5.4      3.924      7.053
REMARK  0 active torsions:
REMARK  status: ('A' for Active; 'I' for Inactive)
REMARK       I    between atoms: C2_1  and  O2_62 
REMARK       I    between atoms: O3_2  and  C3_65 
REMARK       I    between atoms: O1_3  and  C1_15 
REMARK       I    between atoms: C5_5  and  C6_58 
REMARK       I    between atoms: C1_6  and  O4_70 
REMARK       I    between atoms: S_7  and  O2_62 
REMARK       I    between atoms: O2_9  and  C2_55 
REMARK       I    between atoms: O2_9  and  S_49 
REMARK       I    between atoms: O4_11  and  C1_28 
REMARK       I    between atoms: O4_11  and  C4_41 
REMARK       I    between atoms: O6_12  and  C6_58 
REMARK       I    between atoms: O6_12  and  S2_38 
REMARK       I    between atoms: S1_16  and  N_21 
REMARK       I    between atoms: S1_16  and  O1S_32 
REMARK       I    between atoms: S1_16  and  O2S_53 
REMARK       I    between atoms: S1_16  and  O3S_24 
REMARK       I    between atoms: N_18  and  C2_66 
REMARK       I    between atoms: N_18  and  S1_37 
REMARK       I    between atoms: C3_19  and  O3_27 
REMARK       I    between atoms: N_21  and  C2_31 
REMARK       I    between atoms: C4_22  and  O4_70 
REMARK       I    between atoms: C6_25  and  C5_46 
REMARK       I    between atoms: C6_25  and  O6_45 
REMARK       I    between atoms: O1_33  and  C1_51 
REMARK       I    between atoms: O1_33  and  C4_34 
REMARK       I    between atoms: O3S_35  and  S1_37 
REMARK       I    between atoms: S1_37  and  O1S_42 
REMARK       I    between atoms: S1_37  and  O2S_63 
REMARK       I    between atoms: O3_39  and  C3_54 
REMARK       I    between atoms: C6_40  and  C5_60 
REMARK       I    between atoms: C3_44  and  O3_64 
REMARK       I    between atoms: O6_45  and  S2_59 
REMARK       I    between atoms: C6_50  and  C5_56 
ROOT
ATOM      1  C2  IDS d 803       1.158  51.678 -14.880  0.00  0.00     0.134 C 
ATOM      2  C1  IDS d 803       2.402  52.242 -15.565  0.00  0.00     0.161 C 
ATOM      3  S   IDS d 803      -1.324  51.812 -16.085  0.00  0.00     0.252 S 
ATOM      4  O3S IDS d 803      -1.044  51.933 -17.530  0.00  0.00    -0.572 OA
ATOM      5  O5  IDS d 803       2.773  53.488 -14.953  0.00  0.00    -0.340 OA
ATOM      6  C3  IDS d 803       1.388  51.561 -13.374  0.00  0.00     0.094 C 
ATOM      7  O2S IDS d 803      -1.488  50.387 -15.739  0.00  0.00    -0.572 OA
ATOM      8  O3  IDS d 803       2.367  50.584 -13.087  0.00  0.00    -0.390 OA
ATOM      9  C4  IDS d 803       1.799  52.921 -12.810  0.00  0.00     0.103 C 
ATOM     10  C6  IDS d 803       3.441  54.784 -13.060  0.00  0.00     0.206 C 
ATOM     11  O61 IDS d 803       4.207  54.881 -12.076  0.00  0.00    -0.646 OA
ATOM     12  C5  IDS d 803       3.052  53.398 -13.547  0.00  0.00     0.152 C 
ATOM     13  O2  IDS d 803       0.022  52.492 -15.163  0.00  0.00    -0.244 OA
ATOM     14  O62 IDS d 803       3.006  55.781 -13.676  0.00  0.00    -0.646 OA
ATOM     15  O1S IDS d 803      -2.562  52.544 -15.762  0.00  0.00    -0.572 OA
ATOM     16  H   IDS d 803       0.967  50.698 -15.265  0.00  0.00     0.097 H 
ATOM     17  H   IDS d 803       2.177  52.436 -16.593  0.00  0.00     0.133 H 
ATOM     18  H   IDS d 803       0.476  51.252 -12.908  0.00  0.00     0.091 H 
ATOM     19  H   IDS d 803       3.208  50.839 -13.497  0.00  0.00     0.210 HD
ATOM     20  H   IDS d 803       1.999  52.831 -11.763  0.00  0.00     0.092 H 
ATOM     21  H   IDS d 803       3.844  52.703 -13.362  0.00  0.00     0.104 H 
ATOM     22  O3  SGN d 802      -2.690  56.291 -13.342  0.00  0.00    -0.391 OA
ATOM     23  O4  SGN d 802      -0.651  58.161 -12.797  0.00  0.00    -0.348 OA
ATOM     24  S1  SGN d 802      -3.022  52.281 -12.246  0.00  0.00     0.156 S 
ATOM     25  O5S SGN d 802      -0.009  58.174  -7.024  0.00  0.00    -0.572 OA
ATOM     26  N   SGN d 802      -2.072  53.542 -13.040  0.00  0.00    -0.210 NA
ATOM     27  O3S SGN d 802      -2.110  51.278 -11.664  0.00  0.00    -0.296 OA
ATOM     28  C6  SGN d 802       1.277  57.431 -10.695  0.00  0.00     0.067 C 
ATOM     29  O5  SGN d 802       0.554  55.174 -11.030  0.00  0.00    -0.349 OA
ATOM     30  C2  SGN d 802      -1.445  54.562 -12.226  0.00  0.00     0.081 C 
ATOM     31  O1S SGN d 802      -3.900  51.634 -13.236  0.00  0.00    -0.296 OA
ATOM     32  O1  SGN d 802       0.742  53.867 -12.997  0.00  0.00    -0.348 OA
ATOM     33  C4  SGN d 802      -0.742  56.926 -12.083  0.00  0.00     0.095 C 
ATOM     34  O6  SGN d 802       0.499  57.407  -9.501  0.00  0.00    -0.254 OA
ATOM     35  C5  SGN d 802       0.657  56.451 -11.680  0.00  0.00     0.091 C 
ATOM     36  O4S SGN d 802       0.918  59.829  -8.515  0.00  0.00    -0.572 OA
ATOM     37  C1  SGN d 802      -0.034  54.134 -11.826  0.00  0.00     0.150 C 
ATOM     38  O6S SGN d 802       2.308  58.040  -7.677  0.00  0.00    -0.572 OA
ATOM     39  O2S SGN d 802      -3.841  52.880 -11.174  0.00  0.00    -0.296 OA
ATOM     40  S2  SGN d 802       0.949  58.406  -8.121  0.00  0.00     0.251 S 
ATOM     41  C3  SGN d 802      -1.389  55.882 -12.983  0.00  0.00     0.083 C 
ATOM     42  H   SGN d 802      -3.093  55.619 -13.914  0.00  0.00     0.210 HD
ATOM     43  H   SGN d 802      -2.694  54.020 -13.691  0.00  0.00     0.140 HD
ATOM     44  H   SGN d 802      -1.572  50.884 -12.368  0.00  0.00     0.231 HD
ATOM     45  H   SGN d 802       1.273  58.417 -11.111  0.00  0.00     0.080 H 
ATOM     46  H   SGN d 802       2.289  57.156 -10.484  0.00  0.00     0.080 H 
ATOM     47  H   SGN d 802      -2.030  54.693 -11.340  0.00  0.00     0.076 H 
ATOM     48  H   SGN d 802      -4.500  52.294 -13.618  0.00  0.00     0.231 HD
ATOM     49  H   SGN d 802      -1.332  57.067 -11.202  0.00  0.00     0.091 H 
ATOM     50  H   SGN d 802       1.264  56.382 -12.559  0.00  0.00     0.090 H 
ATOM     51  H   SGN d 802      -0.066  53.234 -11.248  0.00  0.00     0.131 H 
ATOM     52  H   SGN d 802      -4.440  53.540 -11.557  0.00  0.00     0.231 HD
ATOM     53  H   SGN d 802      -0.814  55.765 -13.878  0.00  0.00     0.089 H 
ATOM     54  O1  SGN d 804       7.583  49.938 -16.898  0.00  0.00    -0.369 OA
ATOM     55  C5  SGN d 804       4.738  50.223 -17.318  0.00  0.00     0.091 C 
ATOM     56  O6  SGN d 804       3.028  50.498 -19.006  0.00  0.00    -0.254 OA
ATOM     57  O6S SGN d 804       1.481  50.903 -21.125  0.00  0.00    -0.572 OA
ATOM     58  C1  SGN d 804       7.006  50.912 -17.768  0.00  0.00     0.147 C 
ATOM     59  N   SGN d 804       8.022  52.659 -16.398  0.00  0.00    -0.210 NA
ATOM     60  C4  SGN d 804       4.444  51.529 -16.579  0.00  0.00     0.095 C 
ATOM     61  O5S SGN d 804       0.385  50.258 -19.079  0.00  0.00    -0.572 OA
ATOM     62  O3S SGN d 804       9.012  53.139 -18.814  0.00  0.00    -0.296 OA
ATOM     63  S1  SGN d 804       9.386  53.200 -17.387  0.00  0.00     0.156 S 
ATOM     64  S2  SGN d 804       1.579  50.056 -19.921  0.00  0.00     0.251 S 
ATOM     65  O3  SGN d 804       5.499  53.259 -15.280  0.00  0.00    -0.391 OA
ATOM     66  O1S SGN d 804      10.545  52.322 -17.142  0.00  0.00    -0.296 OA
ATOM     67  O5  SGN d 804       5.756  50.454 -18.307  0.00  0.00    -0.350 OA
ATOM     68  C3  SGN d 804       5.733  52.034 -15.938  0.00  0.00     0.083 C 
ATOM     69  C6  SGN d 804       3.487  49.638 -17.965  0.00  0.00     0.067 C 
ATOM     70  O2S SGN d 804       9.738  54.588 -17.030  0.00  0.00    -0.296 OA
ATOM     71  C2  SGN d 804       6.785  52.228 -17.021  0.00  0.00     0.081 C 
ATOM     72  O4S SGN d 804       1.661  48.640 -20.321  0.00  0.00    -0.572 OA
ATOM     73  O4  SGN d 804       3.472  51.295 -15.558  0.00  0.00    -0.348 OA
ATOM     74  H   SGN d 804       8.424  50.273 -16.549  0.00  0.00     0.212 HD
ATOM     75  H   SGN d 804       5.085  49.506 -16.603  0.00  0.00     0.090 H 
ATOM     76  H   SGN d 804       7.689  51.070 -18.577  0.00  0.00     0.131 H 
ATOM     77  H   SGN d 804       8.359  51.874 -15.842  0.00  0.00     0.140 HD
ATOM     78  H   SGN d 804       4.067  52.255 -17.268  0.00  0.00     0.091 H 
ATOM     79  H   SGN d 804       8.781  52.226 -19.049  0.00  0.00     0.231 HD
ATOM     80  H   SGN d 804       4.829  53.133 -14.590  0.00  0.00     0.210 HD
ATOM     81  H   SGN d 804      10.315  51.409 -17.376  0.00  0.00     0.231 HD
ATOM     82  H   SGN d 804       6.077  51.316 -15.221  0.00  0.00     0.089 H 
ATOM     83  H   SGN d 804       2.720  49.536 -17.225  0.00  0.00     0.080 H 
ATOM     84  H   SGN d 804       3.721  48.679 -18.379  0.00  0.00     0.080 H 
ATOM     85  H   SGN d 804       8.976  55.166 -17.191  0.00  0.00     0.231 HD
ATOM     86  H   SGN d 804       6.458  52.969 -17.719  0.00  0.00     0.076 H 
ATOM     87  O5  UAP d 801      -2.380  59.304 -11.650  0.00  0.00    -0.311 OA
ATOM     88  O2  UAP d 801      -0.951  61.727 -12.063  0.00  0.00    -0.244 OA
ATOM     89  O1S UAP d 801      -0.151  64.062 -11.093  0.00  0.00    -0.572 OA
ATOM     90  O3S UAP d 801       1.565  62.507 -11.754  0.00  0.00    -0.572 OA
ATOM     91  C1  UAP d 801      -1.005  59.319 -12.038  0.00  0.00     0.167 C 
ATOM     92  O2S UAP d 801       0.269  63.653 -13.427  0.00  0.00    -0.572 OA
ATOM     93  C4  UAP d 801      -2.976  60.126 -13.786  0.00  0.00    -0.034 C 
ATOM     94  C3  UAP d 801      -1.649  60.623 -14.087  0.00  0.00     0.086 C 
ATOM     95  O62 UAP d 801      -4.848  58.546 -11.353  0.00  0.00    -0.642 OA
ATOM     96  S   UAP d 801       0.231  63.042 -12.086  0.00  0.00     0.252 S 
ATOM     97  C6  UAP d 801      -4.545  59.105 -12.432  0.00  0.00     0.233 C 
ATOM     98  C2  UAP d 801      -0.738  60.568 -12.866  0.00  0.00     0.135 C 
ATOM     99  C5  UAP d 801      -3.289  59.510 -12.627  0.00  0.00     0.147 C 
ATOM    100  O61 UAP d 801      -5.402  59.301 -13.326  0.00  0.00    -0.642 OA
ATOM    101  O3  UAP d 801      -1.091  59.883 -15.150  0.00  0.00    -0.389 OA
ATOM    102  H   UAP d 801      -0.408  59.320 -11.151  0.00  0.00     0.134 H 
ATOM    103  H   UAP d 801      -3.718  60.249 -14.493  0.00  0.00     0.085 H 
ATOM    104  H   UAP d 801      -1.738  61.650 -14.376  0.00  0.00     0.093 H 
ATOM    105  H   UAP d 801       0.277  60.536 -13.202  0.00  0.00     0.097 H 
ATOM    106  H   UAP d 801      -1.011  58.953 -14.889  0.00  0.00     0.210 HD
ENDROOT
TORSDOF 33
ENDMDL
MODEL 54
REMARK VINA RESULT:      -5.4      4.370      8.506
REMARK  0 active torsions:
REMARK  status: ('A' for Active; 'I' for Inactive)
REMARK       I    between atoms: C2_1  and  O2_62 
REMARK       I    between atoms: O3_2  and  C3_65 
REMARK       I    between atoms: O1_3  and  C1_15 
REMARK       I    between atoms: C5_5  and  C6_58 
REMARK       I    between atoms: C1_6  and  O4_70 
REMARK       I    between atoms: S_7  and  O2_62 
REMARK       I    between atoms: O2_9  and  C2_55 
REMARK       I    between atoms: O2_9  and  S_49 
REMARK       I    between atoms: O4_11  and  C1_28 
REMARK       I    between atoms: O4_11  and  C4_41 
REMARK       I    between atoms: O6_12  and  C6_58 
REMARK       I    between atoms: O6_12  and  S2_38 
REMARK       I    between atoms: S1_16  and  N_21 
REMARK       I    between atoms: S1_16  and  O1S_32 
REMARK       I    between atoms: S1_16  and  O2S_53 
REMARK       I    between atoms: S1_16  and  O3S_24 
REMARK       I    between atoms: N_18  and  C2_66 
REMARK       I    between atoms: N_18  and  S1_37 
REMARK       I    between atoms: C3_19  and  O3_27 
REMARK       I    between atoms: N_21  and  C2_31 
REMARK       I    between atoms: C4_22  and  O4_70 
REMARK       I    between atoms: C6_25  and  C5_46 
REMARK       I    between atoms: C6_25  and  O6_45 
REMARK       I    between atoms: O1_33  and  C1_51 
REMARK       I    between atoms: O1_33  and  C4_34 
REMARK       I    between atoms: O3S_35  and  S1_37 
REMARK       I    between atoms: S1_37  and  O1S_42 
REMARK       I    between atoms: S1_37  and  O2S_63 
REMARK       I    between atoms: O3_39  and  C3_54 
REMARK       I    between atoms: C6_40  and  C5_60 
REMARK       I    between atoms: C3_44  and  O3_64 
REMARK       I    between atoms: O6_45  and  S2_59 
REMARK       I    between atoms: C6_50  and  C5_56 
ROOT
ATOM      1  C2  IDS d 803       0.641  58.391 -15.481  0.00  0.00     0.134 C 
ATOM      2  C1  IDS d 803       1.063  59.099 -14.193  0.00  0.00     0.161 C 
ATOM      3  S   IDS d 803      -2.014  57.847 -16.011  0.00  0.00     0.252 S 
ATOM      4  O3S IDS d 803      -2.775  58.823 -15.207  0.00  0.00    -0.572 OA
ATOM      5  O5  IDS d 803       1.637  58.149 -13.280  0.00  0.00    -0.340 OA
ATOM      6  C3  IDS d 803       1.823  57.625 -16.076  0.00  0.00     0.094 C 
ATOM      7  O2S IDS d 803      -1.782  58.401 -17.358  0.00  0.00    -0.572 OA
ATOM      8  O3  IDS d 803       2.825  58.511 -16.527  0.00  0.00    -0.390 OA
ATOM      9  C4  IDS d 803       2.384  56.657 -15.035  0.00  0.00     0.103 C 
ATOM     10  C6  IDS d 803       3.277  56.509 -12.709  0.00  0.00     0.206 C 
ATOM     11  O61 IDS d 803       4.491  56.208 -12.681  0.00  0.00    -0.646 OA
ATOM     12  C5  IDS d 803       2.785  57.454 -13.792  0.00  0.00     0.152 C 
ATOM     13  O2  IDS d 803      -0.460  57.521 -15.232  0.00  0.00    -0.244 OA
ATOM     14  O62 IDS d 803       2.459  56.085 -11.864  0.00  0.00    -0.646 OA
ATOM     15  O1S IDS d 803      -2.783  56.593 -16.118  0.00  0.00    -0.572 OA
ATOM     16  H   IDS d 803       0.329  59.127 -16.192  0.00  0.00     0.097 H 
ATOM     17  H   IDS d 803       0.197  59.520 -13.727  0.00  0.00     0.133 H 
ATOM     18  H   IDS d 803       1.480  57.066 -16.922  0.00  0.00     0.091 H 
ATOM     19  H   IDS d 803       3.156  59.033 -15.778  0.00  0.00     0.210 HD
ATOM     20  H   IDS d 803       3.235  56.149 -15.437  0.00  0.00     0.092 H 
ATOM     21  H   IDS d 803       3.557  58.144 -14.062  0.00  0.00     0.104 H 
ATOM     22  O3  SGN d 802      -1.596  52.759 -14.168  0.00  0.00    -0.391 OA
ATOM     23  O4  SGN d 802       0.118  52.301 -11.977  0.00  0.00    -0.348 OA
ATOM     24  S1  SGN d 802      -0.769  54.306 -17.951  0.00  0.00     0.156 S 
ATOM     25  O5S SGN d 802       4.425  48.969 -14.000  0.00  0.00    -0.572 OA
ATOM     26  N   SGN d 802      -0.699  54.520 -16.197  0.00  0.00    -0.210 NA
ATOM     27  O3S SGN d 802       0.381  54.990 -18.570  0.00  0.00    -0.296 OA
ATOM     28  C6  SGN d 802       3.010  52.364 -12.532  0.00  0.00     0.067 C 
ATOM     29  O5  SGN d 802       2.445  53.571 -14.521  0.00  0.00    -0.349 OA
ATOM     30  C2  SGN d 802       0.219  53.705 -15.430  0.00  0.00     0.081 C 
ATOM     31  O1S SGN d 802      -2.023  54.885 -18.464  0.00  0.00    -0.296 OA
ATOM     32  O1  SGN d 802       1.393  55.687 -14.684  0.00  0.00    -0.348 OA
ATOM     33  C4  SGN d 802       0.631  52.546 -13.288  0.00  0.00     0.095 C 
ATOM     34  O6  SGN d 802       3.225  51.241 -13.384  0.00  0.00    -0.254 OA
ATOM     35  C5  SGN d 802       1.980  53.266 -13.196  0.00  0.00     0.091 C 
ATOM     36  O4S SGN d 802       3.982  49.375 -11.663  0.00  0.00    -0.572 OA
ATOM     37  C1  SGN d 802       1.570  54.406 -15.294  0.00  0.00     0.150 C 
ATOM     38  O6S SGN d 802       5.725  50.604 -12.796  0.00  0.00    -0.572 OA
ATOM     39  O2S SGN d 802      -0.718  52.867 -18.275  0.00  0.00    -0.296 OA
ATOM     40  S2  SGN d 802       4.389  49.995 -12.940  0.00  0.00     0.251 S 
ATOM     41  C3  SGN d 802      -0.356  53.420 -14.049  0.00  0.00     0.083 C 
ATOM     42  H   SGN d 802      -2.218  53.324 -14.654  0.00  0.00     0.210 HD
ATOM     43  H   SGN d 802      -1.635  54.337 -15.836  0.00  0.00     0.140 HD
ATOM     44  H   SGN d 802       0.348  55.935 -18.358  0.00  0.00     0.231 HD
ATOM     45  H   SGN d 802       2.645  52.034 -11.582  0.00  0.00     0.080 H 
ATOM     46  H   SGN d 802       3.926  52.895 -12.379  0.00  0.00     0.080 H 
ATOM     47  H   SGN d 802       0.361  52.779 -15.947  0.00  0.00     0.076 H 
ATOM     48  H   SGN d 802      -2.779  54.434 -18.056  0.00  0.00     0.231 HD
ATOM     49  H   SGN d 802       0.766  51.614 -13.797  0.00  0.00     0.091 H 
ATOM     50  H   SGN d 802       1.854  54.161 -12.622  0.00  0.00     0.090 H 
ATOM     51  H   SGN d 802       2.008  54.564 -16.258  0.00  0.00     0.131 H 
ATOM     52  H   SGN d 802      -1.475  52.418 -17.867  0.00  0.00     0.231 HD
ATOM     53  H   SGN d 802      -0.513  54.338 -13.522  0.00  0.00     0.089 H 
ATOM     54  O1  SGN d 804       4.229  63.876 -13.150  0.00  0.00    -0.369 OA
ATOM     55  C5  SGN d 804       1.811  62.566 -14.039  0.00  0.00     0.091 C 
ATOM     56  O6  SGN d 804      -0.604  62.622 -13.914  0.00  0.00    -0.254 OA
ATOM     57  O6S SGN d 804      -3.195  62.953 -13.437  0.00  0.00    -0.572 OA
ATOM     58  C1  SGN d 804       3.138  63.556 -12.284  0.00  0.00     0.147 C 
ATOM     59  N   SGN d 804       4.651  62.147 -10.985  0.00  0.00    -0.210 NA
ATOM     60  C4  SGN d 804       1.970  61.173 -13.430  0.00  0.00     0.095 C 
ATOM     61  O5S SGN d 804      -2.596  61.509 -15.270  0.00  0.00    -0.572 OA
ATOM     62  O3S SGN d 804       3.742  63.872  -9.184  0.00  0.00    -0.296 OA
ATOM     63  S1  SGN d 804       4.962  63.119  -9.541  0.00  0.00     0.156 S 
ATOM     64  S2  SGN d 804      -2.250  62.750 -14.552  0.00  0.00     0.251 S 
ATOM     65  O3  SGN d 804       3.466  59.838 -12.099  0.00  0.00    -0.391 OA
ATOM     66  O1S SGN d 804       6.062  64.062  -9.814  0.00  0.00    -0.296 OA
ATOM     67  O5  SGN d 804       1.891  63.553 -12.998  0.00  0.00    -0.350 OA
ATOM     68  C3  SGN d 804       3.309  61.102 -12.704  0.00  0.00     0.083 C 
ATOM     69  C6  SGN d 804       0.502  62.708 -14.810  0.00  0.00     0.067 C 
ATOM     70  O2S SGN d 804       5.340  62.236  -8.421  0.00  0.00    -0.296 OA
ATOM     71  C2  SGN d 804       3.356  62.187 -11.637  0.00  0.00     0.081 C 
ATOM     72  O4S SGN d 804      -2.331  63.891 -15.481  0.00  0.00    -0.572 OA
ATOM     73  O4  SGN d 804       1.945  60.189 -14.467  0.00  0.00    -0.348 OA
ATOM     74  H   SGN d 804       5.056  63.870 -12.643  0.00  0.00     0.212 HD
ATOM     75  H   SGN d 804       2.605  62.716 -14.741  0.00  0.00     0.090 H 
ATOM     76  H   SGN d 804       3.095  64.308 -11.524  0.00  0.00     0.131 H 
ATOM     77  H   SGN d 804       5.338  62.433 -11.683  0.00  0.00     0.140 HD
ATOM     78  H   SGN d 804       1.169  60.986 -12.745  0.00  0.00     0.091 H 
ATOM     79  H   SGN d 804       3.494  64.452  -9.920  0.00  0.00     0.231 HD
ATOM     80  H   SGN d 804       3.437  59.147 -12.780  0.00  0.00     0.210 HD
ATOM     81  H   SGN d 804       5.814  64.643 -10.551  0.00  0.00     0.231 HD
ATOM     82  H   SGN d 804       4.102  61.249 -13.408  0.00  0.00     0.089 H 
ATOM     83  H   SGN d 804       0.432  61.924 -15.535  0.00  0.00     0.080 H 
ATOM     84  H   SGN d 804       0.485  63.658 -15.301  0.00  0.00     0.080 H 
ATOM     85  H   SGN d 804       4.617  61.616  -8.240  0.00  0.00     0.231 HD
ATOM     86  H   SGN d 804       2.585  62.023 -10.914  0.00  0.00     0.076 H 
ATOM     87  O5  UAP d 801      -0.504  50.040 -12.309  0.00  0.00    -0.311 OA
ATOM     88  O2  UAP d 801       0.075  49.553  -9.569  0.00  0.00    -0.244 OA
ATOM     89  O1S UAP d 801       1.110  47.938  -7.739  0.00  0.00    -0.572 OA
ATOM     90  O3S UAP d 801       2.081  50.133  -7.935  0.00  0.00    -0.572 OA
ATOM     91  C1  UAP d 801       0.259  50.954 -11.520  0.00  0.00     0.167 C 
ATOM     92  O2S UAP d 801      -0.091  49.862  -6.935  0.00  0.00    -0.572 OA
ATOM     93  C4  UAP d 801      -2.435  50.601 -11.065  0.00  0.00    -0.034 C 
ATOM     94  C3  UAP d 801      -1.692  51.147  -9.949  0.00  0.00     0.086 C 
ATOM     95  O62 UAP d 801      -2.076  49.089 -14.148  0.00  0.00    -0.642 OA
ATOM     96  S   UAP d 801       0.824  49.364  -7.979  0.00  0.00     0.252 S 
ATOM     97  C6  UAP d 801      -2.615  49.585 -13.132  0.00  0.00     0.233 C 
ATOM     98  C2  UAP d 801      -0.199  50.860 -10.072  0.00  0.00     0.135 C 
ATOM     99  C5  UAP d 801      -1.845  50.084 -12.163  0.00  0.00     0.147 C 
ATOM    100  O61 UAP d 801      -3.861  49.608 -13.003  0.00  0.00    -0.642 OA
ATOM    101  O3  UAP d 801      -1.919  52.536  -9.857  0.00  0.00    -0.389 OA
ATOM    102  H   UAP d 801       1.292  50.689 -11.607  0.00  0.00     0.134 H 
ATOM    103  H   UAP d 801      -3.466  50.607 -11.018  0.00  0.00     0.085 H 
ATOM    104  H   UAP d 801      -2.038  50.671  -9.055  0.00  0.00     0.093 H 
ATOM    105  H   UAP d 801       0.335  51.591  -9.503  0.00  0.00     0.097 H 
ATOM    106  H   UAP d 801      -1.605  52.969 -10.667  0.00  0.00     0.210 HD
ENDROOT
TORSDOF 33
ENDMDL
MODEL 55
REMARK VINA RESULT:      -5.4      3.240      7.570
REMARK  0 active torsions:
REMARK  status: ('A' for Active; 'I' for Inactive)
REMARK       I    between atoms: C2_1  and  O2_62 
REMARK       I    between atoms: O3_2  and  C3_65 
REMARK       I    between atoms: O1_3  and  C1_15 
REMARK       I    between atoms: C5_5  and  C6_58 
REMARK       I    between atoms: C1_6  and  O4_70 
REMARK       I    between atoms: S_7  and  O2_62 
REMARK       I    between atoms: O2_9  and  C2_55 
REMARK       I    between atoms: O2_9  and  S_49 
REMARK       I    between atoms: O4_11  and  C1_28 
REMARK       I    between atoms: O4_11  and  C4_41 
REMARK       I    between atoms: O6_12  and  C6_58 
REMARK       I    between atoms: O6_12  and  S2_38 
REMARK       I    between atoms: S1_16  and  N_21 
REMARK       I    between atoms: S1_16  and  O1S_32 
REMARK       I    between atoms: S1_16  and  O2S_53 
REMARK       I    between atoms: S1_16  and  O3S_24 
REMARK       I    between atoms: N_18  and  C2_66 
REMARK       I    between atoms: N_18  and  S1_37 
REMARK       I    between atoms: C3_19  and  O3_27 
REMARK       I    between atoms: N_21  and  C2_31 
REMARK       I    between atoms: C4_22  and  O4_70 
REMARK       I    between atoms: C6_25  and  C5_46 
REMARK       I    between atoms: C6_25  and  O6_45 
REMARK       I    between atoms: O1_33  and  C1_51 
REMARK       I    between atoms: O1_33  and  C4_34 
REMARK       I    between atoms: O3S_35  and  S1_37 
REMARK       I    between atoms: S1_37  and  O1S_42 
REMARK       I    between atoms: S1_37  and  O2S_63 
REMARK       I    between atoms: O3_39  and  C3_54 
REMARK       I    between atoms: C6_40  and  C5_60 
REMARK       I    between atoms: C3_44  and  O3_64 
REMARK       I    between atoms: O6_45  and  S2_59 
REMARK       I    between atoms: C6_50  and  C5_56 
ROOT
ATOM      1  C2  IDS d 803       0.594  56.749 -16.797  0.00  0.00     0.134 C 
ATOM      2  C1  IDS d 803       2.014  56.263 -16.510  0.00  0.00     0.161 C 
ATOM      3  S   IDS d 803      -0.557  58.768 -15.305  0.00  0.00     0.252 S 
ATOM      4  O3S IDS d 803       0.578  59.527 -14.744  0.00  0.00    -0.572 OA
ATOM      5  O5  IDS d 803       1.969  54.998 -15.830  0.00  0.00    -0.340 OA
ATOM      6  C3  IDS d 803      -0.186  55.682 -17.565  0.00  0.00     0.094 C 
ATOM      7  O2S IDS d 803      -0.967  59.379 -16.584  0.00  0.00    -0.572 OA
ATOM      8  O3  IDS d 803       0.345  55.503 -18.861  0.00  0.00    -0.390 OA
ATOM      9  C4  IDS d 803      -0.165  54.368 -16.786  0.00  0.00     0.103 C 
ATOM     10  C6  IDS d 803       1.347  52.694 -15.715  0.00  0.00     0.206 C 
ATOM     11  O61 IDS d 803       1.321  51.587 -16.297  0.00  0.00    -0.646 OA
ATOM     12  C5  IDS d 803       1.292  53.960 -16.556  0.00  0.00     0.152 C 
ATOM     13  O2  IDS d 803      -0.070  57.091 -15.582  0.00  0.00    -0.244 OA
ATOM     14  O62 IDS d 803       1.444  52.801 -14.474  0.00  0.00    -0.646 OA
ATOM     15  O1S IDS d 803      -1.686  58.802 -14.358  0.00  0.00    -0.572 OA
ATOM     16  H   IDS d 803       0.646  57.627 -17.405  0.00  0.00     0.097 H 
ATOM     17  H   IDS d 803       2.499  56.965 -15.864  0.00  0.00     0.133 H 
ATOM     18  H   IDS d 803      -1.200  56.007 -17.673  0.00  0.00     0.091 H 
ATOM     19  H   IDS d 803       1.267  55.208 -18.795  0.00  0.00     0.210 HD
ATOM     20  H   IDS d 803      -0.676  53.610 -17.342  0.00  0.00     0.092 H 
ATOM     21  H   IDS d 803       1.756  53.796 -17.505  0.00  0.00     0.104 H 
ATOM     22  O3  SGN d 802      -3.148  55.252 -12.084  0.00  0.00    -0.391 OA
ATOM     23  O4  SGN d 802      -1.833  52.836 -11.463  0.00  0.00    -0.348 OA
ATOM     24  S1  SGN d 802      -4.278  56.824 -15.778  0.00  0.00     0.156 S 
ATOM     25  O5S SGN d 802      -4.987  48.629 -13.930  0.00  0.00    -0.572 OA
ATOM     26  N   SGN d 802      -2.984  56.193 -14.751  0.00  0.00    -0.210 NA
ATOM     27  O3S SGN d 802      -3.985  56.496 -17.185  0.00  0.00    -0.296 OA
ATOM     28  C6  SGN d 802      -1.704  50.819 -13.604  0.00  0.00     0.067 C 
ATOM     29  O5  SGN d 802      -2.153  52.620 -15.116  0.00  0.00    -0.349 OA
ATOM     30  C2  SGN d 802      -2.969  54.780 -14.436  0.00  0.00     0.081 C 
ATOM     31  O1S SGN d 802      -4.360  58.287 -15.618  0.00  0.00    -0.296 OA
ATOM     32  O1  SGN d 802      -0.821  54.536 -15.525  0.00  0.00    -0.348 OA
ATOM     33  C4  SGN d 802      -2.410  53.063 -12.750  0.00  0.00     0.095 C 
ATOM     34  O6  SGN d 802      -3.062  50.435 -13.803  0.00  0.00    -0.254 OA
ATOM     35  C5  SGN d 802      -1.604  52.322 -13.821  0.00  0.00     0.091 C 
ATOM     36  O4S SGN d 802      -3.253  48.267 -12.292  0.00  0.00    -0.572 OA
ATOM     37  C1  SGN d 802      -2.150  54.011 -15.470  0.00  0.00     0.150 C 
ATOM     38  O6S SGN d 802      -2.789  47.939 -14.640  0.00  0.00    -0.572 OA
ATOM     39  O2S SGN d 802      -5.562  56.210 -15.387  0.00  0.00    -0.296 OA
ATOM     40  S2  SGN d 802      -3.542  48.745 -13.659  0.00  0.00     0.251 S 
ATOM     41  C3  SGN d 802      -2.387  54.556 -13.046  0.00  0.00     0.083 C 
ATOM     42  H   SGN d 802      -3.128  56.202 -12.281  0.00  0.00     0.210 HD
ATOM     43  H   SGN d 802      -3.033  56.697 -13.866  0.00  0.00     0.140 HD
ATOM     44  H   SGN d 802      -3.142  56.900 -17.442  0.00  0.00     0.231 HD
ATOM     45  H   SGN d 802      -1.400  50.575 -12.607  0.00  0.00     0.080 H 
ATOM     46  H   SGN d 802      -1.067  50.301 -14.290  0.00  0.00     0.080 H 
ATOM     47  H   SGN d 802      -3.976  54.420 -14.454  0.00  0.00     0.076 H 
ATOM     48  H   SGN d 802      -4.552  58.501 -14.691  0.00  0.00     0.231 HD
ATOM     49  H   SGN d 802      -3.417  52.702 -12.757  0.00  0.00     0.091 H 
ATOM     50  H   SGN d 802      -0.582  52.633 -13.761  0.00  0.00     0.090 H 
ATOM     51  H   SGN d 802      -2.581  54.119 -16.444  0.00  0.00     0.131 H 
ATOM     52  H   SGN d 802      -5.754  56.426 -14.461  0.00  0.00     0.231 HD
ATOM     53  H   SGN d 802      -1.382  54.921 -13.008  0.00  0.00     0.089 H 
ATOM     54  O1  SGN d 804       6.760  55.703 -19.840  0.00  0.00    -0.369 OA
ATOM     55  C5  SGN d 804       4.839  57.304 -18.393  0.00  0.00     0.091 C 
ATOM     56  O6  SGN d 804       4.596  59.174 -16.877  0.00  0.00    -0.254 OA
ATOM     57  O6S SGN d 804       4.759  61.178 -15.143  0.00  0.00    -0.572 OA
ATOM     58  C1  SGN d 804       6.908  56.066 -18.466  0.00  0.00     0.147 C 
ATOM     59  N   SGN d 804       6.906  53.692 -17.895  0.00  0.00    -0.210 NA
ATOM     60  C4  SGN d 804       4.202  56.266 -17.468  0.00  0.00     0.095 C 
ATOM     61  O5S SGN d 804       2.588  60.717 -16.082  0.00  0.00    -0.572 OA
ATOM     62  O3S SGN d 804       9.221  54.544 -16.914  0.00  0.00    -0.296 OA
ATOM     63  S1  SGN d 804       8.609  53.361 -17.554  0.00  0.00     0.156 S 
ATOM     64  S2  SGN d 804       4.036  60.771 -16.363  0.00  0.00     0.251 S 
ATOM     65  O3  SGN d 804       4.274  53.928 -16.897  0.00  0.00    -0.391 OA
ATOM     66  O1S SGN d 804       9.312  53.065 -18.816  0.00  0.00    -0.296 OA
ATOM     67  O5  SGN d 804       6.261  57.318 -18.186  0.00  0.00    -0.350 OA
ATOM     68  C3  SGN d 804       4.816  54.901 -17.763  0.00  0.00     0.083 C 
ATOM     69  C6  SGN d 804       4.254  58.697 -18.177  0.00  0.00     0.067 C 
ATOM     70  O2S SGN d 804       8.718  52.201 -16.649  0.00  0.00    -0.296 OA
ATOM     71  C2  SGN d 804       6.324  54.978 -17.564  0.00  0.00     0.081 C 
ATOM     72  O4S SGN d 804       4.289  61.751 -17.435  0.00  0.00    -0.572 OA
ATOM     73  O4  SGN d 804       2.794  56.209 -17.705  0.00  0.00    -0.348 OA
ATOM     74  H   SGN d 804       7.205  54.856 -20.001  0.00  0.00     0.212 HD
ATOM     75  H   SGN d 804       4.623  57.027 -19.403  0.00  0.00     0.090 H 
ATOM     76  H   SGN d 804       7.955  56.170 -18.269  0.00  0.00     0.131 H 
ATOM     77  H   SGN d 804       6.779  53.564 -18.898  0.00  0.00     0.140 HD
ATOM     78  H   SGN d 804       4.379  56.536 -16.448  0.00  0.00     0.091 H 
ATOM     79  H   SGN d 804       9.150  55.306 -17.509  0.00  0.00     0.231 HD
ATOM     80  H   SGN d 804       3.313  53.880 -17.026  0.00  0.00     0.210 HD
ATOM     81  H   SGN d 804       9.241  53.827 -19.413  0.00  0.00     0.231 HD
ATOM     82  H   SGN d 804       4.596  54.625 -18.774  0.00  0.00     0.089 H 
ATOM     83  H   SGN d 804       3.189  58.652 -18.269  0.00  0.00     0.080 H 
ATOM     84  H   SGN d 804       4.654  59.363 -18.912  0.00  0.00     0.080 H 
ATOM     85  H   SGN d 804       8.257  52.395 -15.818  0.00  0.00     0.231 HD
ATOM     86  H   SGN d 804       6.546  55.222 -16.546  0.00  0.00     0.076 H 
ATOM     87  O5  UAP d 801      -3.843  52.353 -10.307  0.00  0.00    -0.311 OA
ATOM     88  O2  UAP d 801      -2.369  50.600  -8.623  0.00  0.00    -0.244 OA
ATOM     89  O1S UAP d 801      -2.260  48.293  -7.320  0.00  0.00    -0.572 OA
ATOM     90  O3S UAP d 801      -0.584  48.677  -9.007  0.00  0.00    -0.572 OA
ATOM     91  C1  UAP d 801      -2.534  51.894 -10.649  0.00  0.00     0.167 C 
ATOM     92  O2S UAP d 801      -0.477  49.859  -6.913  0.00  0.00    -0.572 OA
ATOM     93  C4  UAP d 801      -2.916  53.655  -8.565  0.00  0.00    -0.034 C 
ATOM     94  C3  UAP d 801      -1.679  52.906  -8.514  0.00  0.00     0.086 C 
ATOM     95  O62 UAP d 801      -5.974  53.835 -10.158  0.00  0.00    -0.642 OA
ATOM     96  S   UAP d 801      -1.382  49.305  -7.937  0.00  0.00     0.252 S 
ATOM     97  C6  UAP d 801      -5.032  54.103  -9.378  0.00  0.00     0.233 C 
ATOM     98  C2  UAP d 801      -1.748  51.645  -9.370  0.00  0.00     0.135 C 
ATOM     99  C5  UAP d 801      -3.919  53.368  -9.421  0.00  0.00     0.147 C 
ATOM    100  O61 UAP d 801      -5.121  55.041  -8.551  0.00  0.00    -0.642 OA
ATOM    101  O3  UAP d 801      -0.608  53.724  -8.931  0.00  0.00    -0.389 OA
ATOM    102  H   UAP d 801      -2.634  50.990 -11.212  0.00  0.00     0.134 H 
ATOM    103  H   UAP d 801      -3.038  54.447  -7.914  0.00  0.00     0.085 H 
ATOM    104  H   UAP d 801      -1.518  52.599  -7.502  0.00  0.00     0.093 H 
ATOM    105  H   UAP d 801      -0.753  51.362  -9.638  0.00  0.00     0.097 H 
ATOM    106  H   UAP d 801      -0.752  54.002  -9.849  0.00  0.00     0.210 HD
ENDROOT
TORSDOF 33
ENDMDL
MODEL 56
REMARK VINA RESULT:      -5.3      3.428      6.904
REMARK  0 active torsions:
REMARK  status: ('A' for Active; 'I' for Inactive)
REMARK       I    between atoms: C2_1  and  O2_62 
REMARK       I    between atoms: O3_2  and  C3_65 
REMARK       I    between atoms: O1_3  and  C1_15 
REMARK       I    between atoms: C5_5  and  C6_58 
REMARK       I    between atoms: C1_6  and  O4_70 
REMARK       I    between atoms: S_7  and  O2_62 
REMARK       I    between atoms: O2_9  and  C2_55 
REMARK       I    between atoms: O2_9  and  S_49 
REMARK       I    between atoms: O4_11  and  C1_28 
REMARK       I    between atoms: O4_11  and  C4_41 
REMARK       I    between atoms: O6_12  and  C6_58 
REMARK       I    between atoms: O6_12  and  S2_38 
REMARK       I    between atoms: S1_16  and  N_21 
REMARK       I    between atoms: S1_16  and  O1S_32 
REMARK       I    between atoms: S1_16  and  O2S_53 
REMARK       I    between atoms: S1_16  and  O3S_24 
REMARK       I    between atoms: N_18  and  C2_66 
REMARK       I    between atoms: N_18  and  S1_37 
REMARK       I    between atoms: C3_19  and  O3_27 
REMARK       I    between atoms: N_21  and  C2_31 
REMARK       I    between atoms: C4_22  and  O4_70 
REMARK       I    between atoms: C6_25  and  C5_46 
REMARK       I    between atoms: C6_25  and  O6_45 
REMARK       I    between atoms: O1_33  and  C1_51 
REMARK       I    between atoms: O1_33  and  C4_34 
REMARK       I    between atoms: O3S_35  and  S1_37 
REMARK       I    between atoms: S1_37  and  O1S_42 
REMARK       I    between atoms: S1_37  and  O2S_63 
REMARK       I    between atoms: O3_39  and  C3_54 
REMARK       I    between atoms: C6_40  and  C5_60 
REMARK       I    between atoms: C3_44  and  O3_64 
REMARK       I    between atoms: O6_45  and  S2_59 
REMARK       I    between atoms: C6_50  and  C5_56 
ROOT
ATOM      1  C2  IDS d 803       6.653  57.149 -16.434  0.00  0.00     0.134 C 
ATOM      2  C1  IDS d 803       5.525  58.074 -15.978  0.00  0.00     0.161 C 
ATOM      3  S   IDS d 803       6.831  56.293 -19.054  0.00  0.00     0.252 S 
ATOM      4  O3S IDS d 803       6.097  57.305 -19.840  0.00  0.00    -0.572 OA
ATOM      5  O5  IDS d 803       4.552  57.325 -15.231  0.00  0.00    -0.340 OA
ATOM      6  C3  IDS d 803       7.253  56.413 -15.236  0.00  0.00     0.094 C 
ATOM      7  O2S IDS d 803       8.259  56.661 -19.000  0.00  0.00    -0.572 OA
ATOM      8  O3  IDS d 803       7.921  57.310 -14.375  0.00  0.00    -0.390 OA
ATOM      9  C4  IDS d 803       6.150  55.664 -14.488  0.00  0.00     0.103 C 
ATOM     10  C6  IDS d 803       3.928  55.943 -13.385  0.00  0.00     0.206 C 
ATOM     11  O61 IDS d 803       3.982  55.761 -12.149  0.00  0.00    -0.646 OA
ATOM     12  C5  IDS d 803       5.077  56.669 -14.066  0.00  0.00     0.152 C 
ATOM     13  O2  IDS d 803       6.176  56.228 -17.414  0.00  0.00    -0.244 OA
ATOM     14  O62 IDS d 803       2.955  55.577 -14.079  0.00  0.00    -0.646 OA
ATOM     15  O1S IDS d 803       6.685  54.973 -19.695  0.00  0.00    -0.572 OA
ATOM     16  H   IDS d 803       7.424  57.740 -16.883  0.00  0.00     0.097 H 
ATOM     17  H   IDS d 803       5.037  58.479 -16.840  0.00  0.00     0.133 H 
ATOM     18  H   IDS d 803       7.974  55.707 -15.591  0.00  0.00     0.091 H 
ATOM     19  H   IDS d 803       7.289  57.964 -14.036  0.00  0.00     0.210 HD
ATOM     20  H   IDS d 803       6.562  55.182 -13.627  0.00  0.00     0.092 H 
ATOM     21  H   IDS d 803       5.516  57.379 -13.397  0.00  0.00     0.104 H 
ATOM     22  O3  SGN d 802       4.353  51.593 -17.950  0.00  0.00    -0.391 OA
ATOM     23  O4  SGN d 802       2.304  51.621 -16.013  0.00  0.00    -0.348 OA
ATOM     24  S1  SGN d 802       8.378  52.633 -17.621  0.00  0.00     0.156 S 
ATOM     25  O5S SGN d 802       4.272  48.431 -11.575  0.00  0.00    -0.572 OA
ATOM     26  N   SGN d 802       6.687  53.109 -17.421  0.00  0.00    -0.210 NA
ATOM     27  O3S SGN d 802       9.199  53.319 -16.607  0.00  0.00    -0.296 OA
ATOM     28  C6  SGN d 802       3.153  51.863 -13.203  0.00  0.00     0.067 C 
ATOM     29  O5  SGN d 802       5.223  52.706 -14.062  0.00  0.00    -0.349 OA
ATOM     30  C2  SGN d 802       5.911  52.503 -16.360  0.00  0.00     0.081 C 
ATOM     31  O1S SGN d 802       8.837  53.014 -18.968  0.00  0.00    -0.296 OA
ATOM     32  O1  SGN d 802       5.569  54.671 -15.339  0.00  0.00    -0.348 OA
ATOM     33  C4  SGN d 802       3.682  51.715 -15.644  0.00  0.00     0.095 C 
ATOM     34  O6  SGN d 802       3.859  50.651 -12.947  0.00  0.00    -0.254 OA
ATOM     35  C5  SGN d 802       3.827  52.560 -14.375  0.00  0.00     0.091 C 
ATOM     36  O4S SGN d 802       1.981  49.136 -11.853  0.00  0.00    -0.572 OA
ATOM     37  C1  SGN d 802       6.011  53.335 -15.083  0.00  0.00     0.150 C 
ATOM     38  O6S SGN d 802       3.444  50.337 -10.352  0.00  0.00    -0.572 OA
ATOM     39  O2S SGN d 802       8.503  51.172 -17.449  0.00  0.00    -0.296 OA
ATOM     40  S2  SGN d 802       3.366  49.594 -11.625  0.00  0.00     0.251 S 
ATOM     41  C3  SGN d 802       4.453  52.373 -16.779  0.00  0.00     0.083 C 
ATOM     42  H   SGN d 802       4.847  52.021 -18.667  0.00  0.00     0.210 HD
ATOM     43  H   SGN d 802       6.211  52.897 -18.298  0.00  0.00     0.140 HD
ATOM     44  H   SGN d 802       9.117  54.278 -16.720  0.00  0.00     0.231 HD
ATOM     45  H   SGN d 802       2.134  51.645 -13.447  0.00  0.00     0.080 H 
ATOM     46  H   SGN d 802       3.168  52.492 -12.338  0.00  0.00     0.080 H 
ATOM     47  H   SGN d 802       6.307  51.527 -16.168  0.00  0.00     0.076 H 
ATOM     48  H   SGN d 802       8.296  52.561 -19.635  0.00  0.00     0.231 HD
ATOM     49  H   SGN d 802       4.068  50.734 -15.458  0.00  0.00     0.091 H 
ATOM     50  H   SGN d 802       3.374  53.515 -14.543  0.00  0.00     0.090 H 
ATOM     51  H   SGN d 802       7.027  53.389 -14.750  0.00  0.00     0.131 H 
ATOM     52  H   SGN d 802       7.963  50.721 -18.116  0.00  0.00     0.231 HD
ATOM     53  H   SGN d 802       4.045  53.341 -16.985  0.00  0.00     0.089 H 
ATOM     54  O1  SGN d 804       5.479  63.220 -13.249  0.00  0.00    -0.369 OA
ATOM     55  C5  SGN d 804       5.929  61.579 -15.585  0.00  0.00     0.091 C 
ATOM     56  O6  SGN d 804       5.570  61.434 -17.973  0.00  0.00    -0.254 OA
ATOM     57  O6S SGN d 804       4.883  61.595 -20.533  0.00  0.00    -0.572 OA
ATOM     58  C1  SGN d 804       4.471  62.934 -14.221  0.00  0.00     0.147 C 
ATOM     59  N   SGN d 804       3.150  61.875 -12.462  0.00  0.00    -0.210 NA
ATOM     60  C4  SGN d 804       5.153  60.311 -15.230  0.00  0.00     0.095 C 
ATOM     61  O5S SGN d 804       6.550  59.956 -19.948  0.00  0.00    -0.572 OA
ATOM     62  O3S SGN d 804       1.522  63.758 -13.385  0.00  0.00    -0.296 OA
ATOM     63  S1  SGN d 804       1.893  63.074 -12.130  0.00  0.00     0.156 S 
ATOM     64  S2  SGN d 804       6.049  61.316 -19.672  0.00  0.00     0.251 S 
ATOM     65  O3  SGN d 804       3.807  59.329 -13.492  0.00  0.00    -0.391 OA
ATOM     66  O1S SGN d 804       2.404  64.062 -11.162  0.00  0.00    -0.296 OA
ATOM     67  O5  SGN d 804       5.048  62.713 -15.518  0.00  0.00    -0.350 OA
ATOM     68  C3  SGN d 804       4.563  60.470 -13.832  0.00  0.00     0.083 C 
ATOM     69  C6  SGN d 804       6.576  61.486 -16.964  0.00  0.00     0.067 C 
ATOM     70  O2S SGN d 804       0.705  62.405 -11.566  0.00  0.00    -0.296 OA
ATOM     71  C2  SGN d 804       3.667  61.701 -13.806  0.00  0.00     0.081 C 
ATOM     72  O4S SGN d 804       7.114  62.296 -19.953  0.00  0.00    -0.572 OA
ATOM     73  O4  SGN d 804       6.035  59.187 -15.242  0.00  0.00    -0.348 OA
ATOM     74  H   SGN d 804       5.063  63.364 -12.385  0.00  0.00     0.212 HD
ATOM     75  H   SGN d 804       6.721  61.695 -14.875  0.00  0.00     0.090 H 
ATOM     76  H   SGN d 804       3.823  63.783 -14.276  0.00  0.00     0.131 H 
ATOM     77  H   SGN d 804       3.946  62.116 -11.872  0.00  0.00     0.140 HD
ATOM     78  H   SGN d 804       4.371  60.156 -15.944  0.00  0.00     0.091 H 
ATOM     79  H   SGN d 804       2.302  64.198 -13.756  0.00  0.00     0.231 HD
ATOM     80  H   SGN d 804       4.380  58.545 -13.509  0.00  0.00     0.210 HD
ATOM     81  H   SGN d 804       3.185  64.503 -11.532  0.00  0.00     0.231 HD
ATOM     82  H   SGN d 804       5.357  60.583 -13.123  0.00  0.00     0.089 H 
ATOM     83  H   SGN d 804       7.175  60.601 -17.015  0.00  0.00     0.080 H 
ATOM     84  H   SGN d 804       7.189  62.348 -17.123  0.00  0.00     0.080 H 
ATOM     85  H   SGN d 804       0.368  61.754 -12.201  0.00  0.00     0.231 HD
ATOM     86  H   SGN d 804       2.854  61.576 -14.490  0.00  0.00     0.076 H 
ATOM     87  O5  UAP d 801       2.256  49.289 -16.423  0.00  0.00    -0.311 OA
ATOM     88  O2  UAP d 801      -0.453  49.267 -15.560  0.00  0.00    -0.244 OA
ATOM     89  O1S UAP d 801      -2.375  48.039 -14.206  0.00  0.00    -0.572 OA
ATOM     90  O3S UAP d 801      -1.779  50.261 -13.490  0.00  0.00    -0.572 OA
ATOM     91  C1  UAP d 801       1.682  50.375 -15.693  0.00  0.00     0.167 C 
ATOM     92  O2S UAP d 801      -3.021  49.945 -15.527  0.00  0.00    -0.572 OA
ATOM     93  C4  UAP d 801       0.912  49.850 -18.286  0.00  0.00    -0.034 C 
ATOM     94  C3  UAP d 801      -0.036  50.620 -17.509  0.00  0.00     0.086 C 
ATOM     95  O62 UAP d 801       3.777  47.938 -18.041  0.00  0.00    -0.642 OA
ATOM     96  S   UAP d 801      -1.969  49.383 -14.659  0.00  0.00     0.252 S 
ATOM     97  C6  UAP d 801       2.790  48.527 -18.538  0.00  0.00     0.233 C 
ATOM     98  C2  UAP d 801       0.196  50.454 -16.011  0.00  0.00     0.135 C 
ATOM     99  C5  UAP d 801       1.983  49.232 -17.743  0.00  0.00     0.147 C 
ATOM    100  O61 UAP d 801       2.540  48.456 -19.764  0.00  0.00    -0.642 OA
ATOM    101  O3  UAP d 801       0.043  51.981 -17.871  0.00  0.00    -0.389 OA
ATOM    102  H   UAP d 801       1.835  50.194 -14.650  0.00  0.00     0.134 H 
ATOM    103  H   UAP d 801       0.763  49.769 -19.303  0.00  0.00     0.085 H 
ATOM    104  H   UAP d 801      -1.018  50.251 -17.725  0.00  0.00     0.093 H 
ATOM    105  H   UAP d 801      -0.209  51.307 -15.509  0.00  0.00     0.097 H 
ATOM    106  H   UAP d 801       0.932  52.316 -17.676  0.00  0.00     0.210 HD
ENDROOT
TORSDOF 33
ENDMDL
MODEL 57
REMARK VINA RESULT:      -5.3      3.146     11.230
REMARK  0 active torsions:
REMARK  status: ('A' for Active; 'I' for Inactive)
REMARK       I    between atoms: C2_1  and  O2_62 
REMARK       I    between atoms: O3_2  and  C3_65 
REMARK       I    between atoms: O1_3  and  C1_15 
REMARK       I    between atoms: C5_5  and  C6_58 
REMARK       I    between atoms: C1_6  and  O4_70 
REMARK       I    between atoms: S_7  and  O2_62 
REMARK       I    between atoms: O2_9  and  C2_55 
REMARK       I    between atoms: O2_9  and  S_49 
REMARK       I    between atoms: O4_11  and  C1_28 
REMARK       I    between atoms: O4_11  and  C4_41 
REMARK       I    between atoms: O6_12  and  C6_58 
REMARK       I    between atoms: O6_12  and  S2_38 
REMARK       I    between atoms: S1_16  and  N_21 
REMARK       I    between atoms: S1_16  and  O1S_32 
REMARK       I    between atoms: S1_16  and  O2S_53 
REMARK       I    between atoms: S1_16  and  O3S_24 
REMARK       I    between atoms: N_18  and  C2_66 
REMARK       I    between atoms: N_18  and  S1_37 
REMARK       I    between atoms: C3_19  and  O3_27 
REMARK       I    between atoms: N_21  and  C2_31 
REMARK       I    between atoms: C4_22  and  O4_70 
REMARK       I    between atoms: C6_25  and  C5_46 
REMARK       I    between atoms: C6_25  and  O6_45 
REMARK       I    between atoms: O1_33  and  C1_51 
REMARK       I    between atoms: O1_33  and  C4_34 
REMARK       I    between atoms: O3S_35  and  S1_37 
REMARK       I    between atoms: S1_37  and  O1S_42 
REMARK       I    between atoms: S1_37  and  O2S_63 
REMARK       I    between atoms: O3_39  and  C3_54 
REMARK       I    between atoms: C6_40  and  C5_60 
REMARK       I    between atoms: C3_44  and  O3_64 
REMARK       I    between atoms: O6_45  and  S2_59 
REMARK       I    between atoms: C6_50  and  C5_56 
ROOT
ATOM      1  C2  IDS d 803      -3.689  51.129 -14.673  0.00  0.00     0.134 C 
ATOM      2  C1  IDS d 803      -4.393  52.432 -15.048  0.00  0.00     0.161 C 
ATOM      3  S   IDS d 803      -2.917  50.616 -12.072  0.00  0.00     0.252 S 
ATOM      4  O3S IDS d 803      -3.794  51.460 -11.236  0.00  0.00    -0.572 OA
ATOM      5  O5  IDS d 803      -3.474  53.307 -15.721  0.00  0.00    -0.340 OA
ATOM      6  C3  IDS d 803      -3.053  50.494 -15.911  0.00  0.00     0.094 C 
ATOM      7  O2S IDS d 803      -3.530  49.284 -12.230  0.00  0.00    -0.572 OA
ATOM      8  O3  IDS d 803      -4.042  50.059 -16.819  0.00  0.00    -0.390 OA
ATOM      9  C4  IDS d 803      -2.111  51.497 -16.575  0.00  0.00     0.103 C 
ATOM     10  C6  IDS d 803      -1.976  53.807 -17.515  0.00  0.00     0.206 C 
ATOM     11  O61 IDS d 803      -1.789  53.809 -18.751  0.00  0.00    -0.646 OA
ATOM     12  C5  IDS d 803      -2.904  52.759 -16.920  0.00  0.00     0.152 C 
ATOM     13  O2  IDS d 803      -2.713  51.364 -13.660  0.00  0.00    -0.244 OA
ATOM     14  O62 IDS d 803      -1.454  54.648 -16.752  0.00  0.00    -0.646 OA
ATOM     15  O1S IDS d 803      -1.601  50.479 -11.420  0.00  0.00    -0.572 OA
ATOM     16  H   IDS d 803      -4.413  50.445 -14.283  0.00  0.00     0.097 H 
ATOM     17  H   IDS d 803      -4.718  52.922 -14.154  0.00  0.00     0.133 H 
ATOM     18  H   IDS d 803      -2.491  49.636 -15.608  0.00  0.00     0.091 H 
ATOM     19  H   IDS d 803      -4.569  50.820 -17.112  0.00  0.00     0.210 HD
ATOM     20  H   IDS d 803      -1.696  51.069 -17.463  0.00  0.00     0.092 H 
ATOM     21  H   IDS d 803      -3.670  52.502 -17.621  0.00  0.00     0.104 H 
ATOM     22  O3  SGN d 802       2.163  52.293 -12.985  0.00  0.00    -0.391 OA
ATOM     23  O4  SGN d 802       2.526  54.447 -14.769  0.00  0.00    -0.348 OA
ATOM     24  S1  SGN d 802       0.433  48.551 -13.607  0.00  0.00     0.156 S 
ATOM     25  O5S SGN d 802       5.382  52.265 -19.332  0.00  0.00    -0.572 OA
ATOM     26  N   SGN d 802       0.267  50.309 -13.685  0.00  0.00    -0.210 NA
ATOM     27  O3S SGN d 802      -0.372  47.938 -14.680  0.00  0.00    -0.296 OA
ATOM     28  C6  SGN d 802       2.179  53.857 -17.633  0.00  0.00     0.067 C 
ATOM     29  O5  SGN d 802       0.971  51.914 -16.928  0.00  0.00    -0.349 OA
ATOM     30  C2  SGN d 802       1.016  51.038 -14.686  0.00  0.00     0.081 C 
ATOM     31  O1S SGN d 802      -0.042  48.071 -12.297  0.00  0.00    -0.296 OA
ATOM     32  O1  SGN d 802      -1.043  51.831 -15.683  0.00  0.00    -0.348 OA
ATOM     33  C4  SGN d 802       2.196  53.138 -15.236  0.00  0.00     0.095 C 
ATOM     34  O6  SGN d 802       3.251  52.967 -17.938  0.00  0.00    -0.254 OA
ATOM     35  C5  SGN d 802       1.356  53.235 -16.514  0.00  0.00     0.091 C 
ATOM     36  O4S SGN d 802       5.089  54.620 -18.890  0.00  0.00    -0.572 OA
ATOM     37  C1  SGN d 802       0.198  51.179 -15.968  0.00  0.00     0.150 C 
ATOM     38  O6S SGN d 802       3.671  53.503 -20.495  0.00  0.00    -0.572 OA
ATOM     39  O2S SGN d 802       1.851  48.181 -13.785  0.00  0.00    -0.296 OA
ATOM     40  S2  SGN d 802       4.397  53.357 -19.218  0.00  0.00     0.251 S 
ATOM     41  C3  SGN d 802       1.395  52.417 -14.161  0.00  0.00     0.083 C 
ATOM     42  H   SGN d 802       1.645  51.833 -12.307  0.00  0.00     0.210 HD
ATOM     43  H   SGN d 802       0.546  50.676 -12.775  0.00  0.00     0.140 HD
ATOM     44  H   SGN d 802      -1.304  48.180 -14.563  0.00  0.00     0.231 HD
ATOM     45  H   SGN d 802       2.570  54.801 -17.315  0.00  0.00     0.080 H 
ATOM     46  H   SGN d 802       1.570  54.015 -18.498  0.00  0.00     0.080 H 
ATOM     47  H   SGN d 802       1.909  50.490 -14.904  0.00  0.00     0.076 H 
ATOM     48  H   SGN d 802       0.489  48.475 -11.593  0.00  0.00     0.231 HD
ATOM     49  H   SGN d 802       3.095  52.598 -15.448  0.00  0.00     0.091 H 
ATOM     50  H   SGN d 802       0.495  53.838 -16.315  0.00  0.00     0.090 H 
ATOM     51  H   SGN d 802      -0.030  50.215 -16.374  0.00  0.00     0.131 H 
ATOM     52  H   SGN d 802       2.381  48.584 -13.080  0.00  0.00     0.231 HD
ATOM     53  H   SGN d 802       0.511  52.974 -13.929  0.00  0.00     0.089 H 
ATOM     54  O1  SGN d 804      -9.409  53.584 -17.775  0.00  0.00    -0.369 OA
ATOM     55  C5  SGN d 804      -7.909  52.685 -15.475  0.00  0.00     0.091 C 
ATOM     56  O6  SGN d 804      -7.737  52.843 -13.068  0.00  0.00    -0.254 OA
ATOM     57  O6S SGN d 804      -7.812  53.363 -10.465  0.00  0.00    -0.572 OA
ATOM     58  C1  SGN d 804      -8.964  54.453 -16.732  0.00  0.00     0.147 C 
ATOM     59  N   SGN d 804      -7.663  55.688 -18.389  0.00  0.00    -0.210 NA
ATOM     60  C4  SGN d 804      -6.518  53.248 -15.771  0.00  0.00     0.095 C 
ATOM     61  O5S SGN d 804      -6.485  51.478 -11.166  0.00  0.00    -0.572 OA
ATOM     62  O3S SGN d 804      -9.242  57.554 -17.354  0.00  0.00    -0.296 OA
ATOM     63  S1  SGN d 804      -8.616  57.158 -18.631  0.00  0.00     0.156 S 
ATOM     64  S2  SGN d 804      -7.731  52.231 -11.407  0.00  0.00     0.251 S 
ATOM     65  O3  SGN d 804      -5.288  54.518 -17.405  0.00  0.00    -0.391 OA
ATOM     66  O1S SGN d 804      -9.665  56.900 -19.635  0.00  0.00    -0.296 OA
ATOM     67  O5  SGN d 804      -8.868  53.756 -15.480  0.00  0.00    -0.350 OA
ATOM     68  C3  SGN d 804      -6.550  53.955 -17.123  0.00  0.00     0.083 C 
ATOM     69  C6  SGN d 804      -7.951  51.936 -14.147  0.00  0.00     0.067 C 
ATOM     70  O2S SGN d 804      -7.739  58.245 -19.107  0.00  0.00    -0.296 OA
ATOM     71  C2  SGN d 804      -7.603  55.054 -17.086  0.00  0.00     0.081 C 
ATOM     72  O4S SGN d 804      -8.887  51.338 -11.206  0.00  0.00    -0.572 OA
ATOM     73  O4  SGN d 804      -5.568  52.182 -15.821  0.00  0.00    -0.348 OA
ATOM     74  H   SGN d 804      -9.465  54.080 -18.608  0.00  0.00     0.212 HD
ATOM     75  H   SGN d 804      -8.152  51.979 -16.241  0.00  0.00     0.090 H 
ATOM     76  H   SGN d 804      -9.686  55.237 -16.632  0.00  0.00     0.131 H 
ATOM     77  H   SGN d 804      -8.032  54.991 -19.036  0.00  0.00     0.140 HD
ATOM     78  H   SGN d 804      -6.238  53.937 -15.002  0.00  0.00     0.091 H 
ATOM     79  H   SGN d 804      -9.818  56.840 -17.041  0.00  0.00     0.231 HD
ATOM     80  H   SGN d 804      -4.619  53.816 -17.429  0.00  0.00     0.210 HD
ATOM     81  H   SGN d 804     -10.242  56.185 -19.324  0.00  0.00     0.231 HD
ATOM     82  H   SGN d 804      -6.791  53.246 -17.888  0.00  0.00     0.089 H 
ATOM     83  H   SGN d 804      -7.187  51.188 -14.138  0.00  0.00     0.080 H 
ATOM     84  H   SGN d 804      -8.911  51.476 -14.035  0.00  0.00     0.080 H 
ATOM     85  H   SGN d 804      -7.049  58.416 -18.447  0.00  0.00     0.231 HD
ATOM     86  H   SGN d 804      -7.346  55.781 -16.345  0.00  0.00     0.076 H 
ATOM     87  O5  UAP d 801       4.824  54.052 -14.352  0.00  0.00    -0.311 OA
ATOM     88  O2  UAP d 801       5.337  56.768 -15.016  0.00  0.00    -0.244 OA
ATOM     89  O1S UAP d 801       6.904  58.533 -16.225  0.00  0.00    -0.572 OA
ATOM     90  O3S UAP d 801       4.623  58.393 -16.986  0.00  0.00    -0.572 OA
ATOM     91  C1  UAP d 801       3.867  54.860 -15.040  0.00  0.00     0.167 C 
ATOM     92  O2S UAP d 801       5.124  59.412 -14.864  0.00  0.00    -0.572 OA
ATOM     93  C4  UAP d 801       4.482  55.338 -12.398  0.00  0.00    -0.034 C 
ATOM     94  C3  UAP d 801       3.903  56.461 -13.105  0.00  0.00     0.086 C 
ATOM     95  O62 UAP d 801       5.861  52.204 -12.846  0.00  0.00    -0.642 OA
ATOM     96  S   UAP d 801       5.504  58.341 -15.805  0.00  0.00     0.252 S 
ATOM     97  C6  UAP d 801       5.448  53.242 -12.280  0.00  0.00     0.233 C 
ATOM     98  C2  UAP d 801       4.047  56.309 -14.615  0.00  0.00     0.135 C 
ATOM     99  C5  UAP d 801       4.909  54.216 -13.015  0.00  0.00     0.147 C 
ATOM    100  O61 UAP d 801       5.545  53.387 -11.039  0.00  0.00    -0.642 OA
ATOM    101  O3  UAP d 801       2.545  56.598 -12.752  0.00  0.00    -0.389 OA
ATOM    102  H   UAP d 801       4.033  54.751 -16.092  0.00  0.00     0.134 H 
ATOM    103  H   UAP d 801       4.573  55.398 -11.371  0.00  0.00     0.085 H 
ATOM    104  H   UAP d 801       4.436  57.343 -12.818  0.00  0.00     0.093 H 
ATOM    105  H   UAP d 801       3.287  56.894 -15.088  0.00  0.00     0.097 H 
ATOM    106  H   UAP d 801       2.061  55.799 -13.012  0.00  0.00     0.210 HD
ENDROOT
TORSDOF 33
ENDMDL
MODEL 58
REMARK VINA RESULT:      -5.3      4.604     11.654
REMARK  0 active torsions:
REMARK  status: ('A' for Active; 'I' for Inactive)
REMARK       I    between atoms: C2_1  and  O2_62 
REMARK       I    between atoms: O3_2  and  C3_65 
REMARK       I    between atoms: O1_3  and  C1_15 
REMARK       I    between atoms: C5_5  and  C6_58 
REMARK       I    between atoms: C1_6  and  O4_70 
REMARK       I    between atoms: S_7  and  O2_62 
REMARK       I    between atoms: O2_9  and  C2_55 
REMARK       I    between atoms: O2_9  and  S_49 
REMARK       I    between atoms: O4_11  and  C1_28 
REMARK       I    between atoms: O4_11  and  C4_41 
REMARK       I    between atoms: O6_12  and  C6_58 
REMARK       I    between atoms: O6_12  and  S2_38 
REMARK       I    between atoms: S1_16  and  N_21 
REMARK       I    between atoms: S1_16  and  O1S_32 
REMARK       I    between atoms: S1_16  and  O2S_53 
REMARK       I    between atoms: S1_16  and  O3S_24 
REMARK       I    between atoms: N_18  and  C2_66 
REMARK       I    between atoms: N_18  and  S1_37 
REMARK       I    between atoms: C3_19  and  O3_27 
REMARK       I    between atoms: N_21  and  C2_31 
REMARK       I    between atoms: C4_22  and  O4_70 
REMARK       I    between atoms: C6_25  and  C5_46 
REMARK       I    between atoms: C6_25  and  O6_45 
REMARK       I    between atoms: O1_33  and  C1_51 
REMARK       I    between atoms: O1_33  and  C4_34 
REMARK       I    between atoms: O3S_35  and  S1_37 
REMARK       I    between atoms: S1_37  and  O1S_42 
REMARK       I    between atoms: S1_37  and  O2S_63 
REMARK       I    between atoms: O3_39  and  C3_54 
REMARK       I    between atoms: C6_40  and  C5_60 
REMARK       I    between atoms: C3_44  and  O3_64 
REMARK       I    between atoms: O6_45  and  S2_59 
REMARK       I    between atoms: C6_50  and  C5_56 
ROOT
ATOM      1  C2  IDS d 803      -1.487  54.123 -11.997  0.00  0.00     0.134 C 
ATOM      2  C1  IDS d 803      -2.953  54.083 -12.426  0.00  0.00     0.161 C 
ATOM      3  S   IDS d 803      -0.628  55.823  -9.997  0.00  0.00     0.252 S 
ATOM      4  O3S IDS d 803      -1.830  56.105  -9.188  0.00  0.00    -0.572 OA
ATOM      5  O5  IDS d 803      -3.113  54.764 -13.681  0.00  0.00    -0.340 OA
ATOM      6  C3  IDS d 803      -0.594  53.560 -13.103  0.00  0.00     0.094 C 
ATOM      7  O2S IDS d 803       0.085  54.666  -9.421  0.00  0.00    -0.572 OA
ATOM      8  O3  IDS d 803      -0.824  52.179 -13.283  0.00  0.00    -0.390 OA
ATOM      9  C4  IDS d 803      -0.843  54.324 -14.403  0.00  0.00     0.103 C 
ATOM     10  C6  IDS d 803      -2.622  55.034 -16.004  0.00  0.00     0.206 C 
ATOM     11  O61 IDS d 803      -2.508  54.482 -17.120  0.00  0.00    -0.646 OA
ATOM     12  C5  IDS d 803      -2.329  54.219 -14.755  0.00  0.00     0.152 C 
ATOM     13  O2  IDS d 803      -1.104  55.455 -11.659  0.00  0.00    -0.244 OA
ATOM     14  O62 IDS d 803      -2.995  56.220 -15.873  0.00  0.00    -0.646 OA
ATOM     15  O1S IDS d 803       0.257  57.002  -9.988  0.00  0.00    -0.572 OA
ATOM     16  H   IDS d 803      -1.365  53.512 -11.127  0.00  0.00     0.097 H 
ATOM     17  H   IDS d 803      -3.545  54.596 -11.697  0.00  0.00     0.133 H 
ATOM     18  H   IDS d 803       0.429  53.684 -12.817  0.00  0.00     0.091 H 
ATOM     19  H   IDS d 803      -1.748  52.036 -13.544  0.00  0.00     0.210 HD
ATOM     20  H   IDS d 803      -0.249  53.904 -15.187  0.00  0.00     0.092 H 
ATOM     21  H   IDS d 803      -2.571  53.190 -14.917  0.00  0.00     0.104 H 
ATOM     22  O3  SGN d 802       1.026  59.574 -13.552  0.00  0.00    -0.391 OA
ATOM     23  O4  SGN d 802      -0.489  59.898 -15.908  0.00  0.00    -0.348 OA
ATOM     24  S1  SGN d 802       3.025  56.224 -12.081  0.00  0.00     0.156 S 
ATOM     25  O5S SGN d 802       2.979  58.244 -20.265  0.00  0.00    -0.572 OA
ATOM     26  N   SGN d 802       1.509  56.933 -12.648  0.00  0.00    -0.210 NA
ATOM     27  O3S SGN d 802       3.047  54.789 -12.420  0.00  0.00    -0.296 OA
ATOM     28  C6  SGN d 802      -0.206  57.798 -17.953  0.00  0.00     0.067 C 
ATOM     29  O5  SGN d 802       0.644  56.415 -16.194  0.00  0.00    -0.349 OA
ATOM     30  C2  SGN d 802       1.367  57.247 -14.054  0.00  0.00     0.081 C 
ATOM     31  O1S SGN d 802       3.125  56.387 -10.619  0.00  0.00    -0.296 OA
ATOM     32  O1  SGN d 802      -0.485  55.699 -14.239  0.00  0.00    -0.348 OA
ATOM     33  C4  SGN d 802       0.374  58.774 -15.724  0.00  0.00     0.095 C 
ATOM     34  O6  SGN d 802       1.146  57.917 -18.389  0.00  0.00    -0.254 OA
ATOM     35  C5  SGN d 802      -0.195  57.553 -16.452  0.00  0.00     0.091 C 
ATOM     36  O4S SGN d 802       0.905  59.447 -20.538  0.00  0.00    -0.572 OA
ATOM     37  C1  SGN d 802       0.776  56.059 -14.810  0.00  0.00     0.150 C 
ATOM     38  O6S SGN d 802       0.974  57.058 -20.886  0.00  0.00    -0.572 OA
ATOM     39  O2S SGN d 802       4.162  56.901 -12.734  0.00  0.00    -0.296 OA
ATOM     40  S2  SGN d 802       1.515  58.178 -20.093  0.00  0.00     0.251 S 
ATOM     41  C3  SGN d 802       0.477  58.470 -14.235  0.00  0.00     0.083 C 
ATOM     42  H   SGN d 802       1.088  59.371 -12.605  0.00  0.00     0.210 HD
ATOM     43  H   SGN d 802       1.374  57.803 -12.132  0.00  0.00     0.140 HD
ATOM     44  H   SGN d 802       2.300  54.344 -11.990  0.00  0.00     0.231 HD
ATOM     45  H   SGN d 802      -0.737  58.701 -18.170  0.00  0.00     0.080 H 
ATOM     46  H   SGN d 802      -0.689  56.989 -18.459  0.00  0.00     0.080 H 
ATOM     47  H   SGN d 802       2.338  57.461 -14.451  0.00  0.00     0.076 H 
ATOM     48  H   SGN d 802       3.110  57.332 -10.398  0.00  0.00     0.231 HD
ATOM     49  H   SGN d 802       1.342  58.999 -16.120  0.00  0.00     0.091 H 
ATOM     50  H   SGN d 802      -1.191  57.377 -16.103  0.00  0.00     0.090 H 
ATOM     51  H   SGN d 802       1.420  55.208 -14.733  0.00  0.00     0.131 H 
ATOM     52  H   SGN d 802       4.147  57.845 -12.510  0.00  0.00     0.231 HD
ATOM     53  H   SGN d 802      -0.496  58.276 -13.834  0.00  0.00     0.089 H 
ATOM     54  O1  SGN d 804      -6.836  49.764 -12.868  0.00  0.00    -0.369 OA
ATOM     55  C5  SGN d 804      -5.234  51.599 -11.314  0.00  0.00     0.091 C 
ATOM     56  O6  SGN d 804      -5.270  53.116  -9.431  0.00  0.00    -0.254 OA
ATOM     57  O6S SGN d 804      -5.744  54.753  -7.395  0.00  0.00    -0.572 OA
ATOM     58  C1  SGN d 804      -7.278  51.065 -12.478  0.00  0.00     0.147 C 
ATOM     59  N   SGN d 804      -7.498  51.640 -14.841  0.00  0.00    -0.210 NA
ATOM     60  C4  SGN d 804      -4.864  52.652 -12.360  0.00  0.00     0.095 C 
ATOM     61  O5S SGN d 804      -3.437  54.336  -7.948  0.00  0.00    -0.572 OA
ATOM     62  O3S SGN d 804      -9.940  52.061 -13.892  0.00  0.00    -0.296 OA
ATOM     63  S1  SGN d 804      -9.246  51.586 -15.105  0.00  0.00     0.156 S 
ATOM     64  S2  SGN d 804      -4.779  53.733  -7.846  0.00  0.00     0.251 S 
ATOM     65  O3  SGN d 804      -5.154  53.208 -14.684  0.00  0.00    -0.391 OA
ATOM     66  O1S SGN d 804      -9.654  50.199 -15.396  0.00  0.00    -0.296 OA
ATOM     67  O5  SGN d 804      -6.664  51.476 -11.246  0.00  0.00    -0.350 OA
ATOM     68  C3  SGN d 804      -5.447  52.235 -13.706  0.00  0.00     0.083 C 
ATOM     69  C6  SGN d 804      -4.660  51.932  -9.940  0.00  0.00     0.067 C 
ATOM     70  O2S SGN d 804      -9.602  52.452 -16.246  0.00  0.00    -0.296 OA
ATOM     71  C2  SGN d 804      -6.957  52.085 -13.572  0.00  0.00     0.081 C 
ATOM     72  O4S SGN d 804      -4.744  52.624  -6.875  0.00  0.00    -0.572 OA
ATOM     73  O4  SGN d 804      -3.443  52.741 -12.471  0.00  0.00    -0.348 OA
ATOM     74  H   SGN d 804      -7.266  49.512 -13.701  0.00  0.00     0.212 HD
ATOM     75  H   SGN d 804      -4.805  50.666 -11.615  0.00  0.00     0.090 H 
ATOM     76  H   SGN d 804      -8.338  51.018 -12.333  0.00  0.00     0.131 H 
ATOM     77  H   SGN d 804      -7.151  50.692 -14.990  0.00  0.00     0.140 HD
ATOM     78  H   SGN d 804      -5.258  53.603 -12.068  0.00  0.00     0.091 H 
ATOM     79  H   SGN d 804      -9.707  51.492 -13.142  0.00  0.00     0.231 HD
ATOM     80  H   SGN d 804      -4.192  53.302 -14.769  0.00  0.00     0.210 HD
ATOM     81  H   SGN d 804      -9.420  49.629 -14.647  0.00  0.00     0.231 HD
ATOM     82  H   SGN d 804      -5.015  51.302 -14.006  0.00  0.00     0.089 H 
ATOM     83  H   SGN d 804      -3.605  52.085 -10.025  0.00  0.00     0.080 H 
ATOM     84  H   SGN d 804      -4.857  51.120  -9.272  0.00  0.00     0.080 H 
ATOM     85  H   SGN d 804      -9.335  53.364 -16.055  0.00  0.00     0.231 HD
ATOM     86  H   SGN d 804      -7.395  53.024 -13.304  0.00  0.00     0.076 H 
ATOM     87  O5  UAP d 801       1.187  61.484 -16.445  0.00  0.00    -0.311 OA
ATOM     88  O2  UAP d 801      -0.698  62.801 -18.117  0.00  0.00    -0.244 OA
ATOM     89  O1S UAP d 801      -1.190  64.062 -20.397  0.00  0.00    -0.572 OA
ATOM     90  O3S UAP d 801      -2.422  62.035 -19.980  0.00  0.00    -0.572 OA
ATOM     91  C1  UAP d 801      -0.027  60.857 -16.862  0.00  0.00     0.167 C 
ATOM     92  O2S UAP d 801      -2.957  64.041 -18.762  0.00  0.00    -0.572 OA
ATOM     93  C4  UAP d 801      -0.061  62.960 -15.083  0.00  0.00    -0.034 C 
ATOM     94  C3  UAP d 801      -1.306  62.733 -15.786  0.00  0.00     0.086 C 
ATOM     95  O62 UAP d 801       3.284  62.103 -15.039  0.00  0.00    -0.642 OA
ATOM     96  S   UAP d 801      -1.865  63.254 -19.365  0.00  0.00     0.252 S 
ATOM     97  C6  UAP d 801       2.200  62.646 -14.724  0.00  0.00     0.233 C 
ATOM     98  C2  UAP d 801      -1.092  61.925 -17.062  0.00  0.00     0.135 C 
ATOM     99  C5  UAP d 801       1.099  62.357 -15.419  0.00  0.00     0.147 C 
ATOM    100  O61 UAP d 801       2.135  63.466 -13.778  0.00  0.00    -0.642 OA
ATOM    101  O3  UAP d 801      -2.222  62.078 -14.937  0.00  0.00    -0.389 OA
ATOM    102  H   UAP d 801       0.163  60.338 -17.778  0.00  0.00     0.134 H 
ATOM    103  H   UAP d 801      -0.060  63.616 -14.286  0.00  0.00     0.085 H 
ATOM    104  H   UAP d 801      -1.704  63.685 -16.072  0.00  0.00     0.093 H 
ATOM    105  H   UAP d 801      -2.011  61.440 -17.313  0.00  0.00     0.097 H 
ATOM    106  H   UAP d 801      -1.862  61.215 -14.679  0.00  0.00     0.210 HD
ENDROOT
TORSDOF 33
ENDMDL
MODEL 59
REMARK VINA RESULT:      -5.3      4.006      7.849
REMARK  0 active torsions:
REMARK  status: ('A' for Active; 'I' for Inactive)
REMARK       I    between atoms: C2_1  and  O2_62 
REMARK       I    between atoms: O3_2  and  C3_65 
REMARK       I    between atoms: O1_3  and  C1_15 
REMARK       I    between atoms: C5_5  and  C6_58 
REMARK       I    between atoms: C1_6  and  O4_70 
REMARK       I    between atoms: S_7  and  O2_62 
REMARK       I    between atoms: O2_9  and  C2_55 
REMARK       I    between atoms: O2_9  and  S_49 
REMARK       I    between atoms: O4_11  and  C1_28 
REMARK       I    between atoms: O4_11  and  C4_41 
REMARK       I    between atoms: O6_12  and  C6_58 
REMARK       I    between atoms: O6_12  and  S2_38 
REMARK       I    between atoms: S1_16  and  N_21 
REMARK       I    between atoms: S1_16  and  O1S_32 
REMARK       I    between atoms: S1_16  and  O2S_53 
REMARK       I    between atoms: S1_16  and  O3S_24 
REMARK       I    between atoms: N_18  and  C2_66 
REMARK       I    between atoms: N_18  and  S1_37 
REMARK       I    between atoms: C3_19  and  O3_27 
REMARK       I    between atoms: N_21  and  C2_31 
REMARK       I    between atoms: C4_22  and  O4_70 
REMARK       I    between atoms: C6_25  and  C5_46 
REMARK       I    between atoms: C6_25  and  O6_45 
REMARK       I    between atoms: O1_33  and  C1_51 
REMARK       I    between atoms: O1_33  and  C4_34 
REMARK       I    between atoms: O3S_35  and  S1_37 
REMARK       I    between atoms: S1_37  and  O1S_42 
REMARK       I    between atoms: S1_37  and  O2S_63 
REMARK       I    between atoms: O3_39  and  C3_54 
REMARK       I    between atoms: C6_40  and  C5_60 
REMARK       I    between atoms: C3_44  and  O3_64 
REMARK       I    between atoms: O6_45  and  S2_59 
REMARK       I    between atoms: C6_50  and  C5_56 
ROOT
ATOM      1  C2  IDS d 803      -0.042  58.013 -17.644  0.00  0.00     0.134 C 
ATOM      2  C1  IDS d 803       0.609  58.951 -16.627  0.00  0.00     0.161 C 
ATOM      3  S   IDS d 803      -2.737  58.183 -18.225  0.00  0.00     0.252 S 
ATOM      4  O3S IDS d 803      -3.122  59.562 -17.869  0.00  0.00    -0.572 OA
ATOM      5  O5  IDS d 803       0.853  58.245 -15.400  0.00  0.00    -0.340 OA
ATOM      6  C3  IDS d 803       0.811  56.759 -17.832  0.00  0.00     0.094 C 
ATOM      7  O2S IDS d 803      -2.358  58.135 -19.650  0.00  0.00    -0.572 OA
ATOM      8  O3  IDS d 803       2.042  57.074 -18.448  0.00  0.00    -0.390 OA
ATOM      9  C4  IDS d 803       1.040  56.086 -16.479  0.00  0.00     0.103 C 
ATOM     10  C6  IDS d 803       1.871  56.476 -14.158  0.00  0.00     0.206 C 
ATOM     11  O61 IDS d 803       2.919  55.839 -13.913  0.00  0.00    -0.646 OA
ATOM     12  C5  IDS d 803       1.700  57.094 -15.537  0.00  0.00     0.152 C 
ATOM     13  O2  IDS d 803      -1.365  57.675 -17.232  0.00  0.00    -0.244 OA
ATOM     14  O62 IDS d 803       0.972  56.650 -13.307  0.00  0.00    -0.646 OA
ATOM     15  O1S IDS d 803      -3.877  57.278 -17.988  0.00  0.00    -0.572 OA
ATOM     16  H   IDS d 803      -0.107  58.517 -18.586  0.00  0.00     0.097 H 
ATOM     17  H   IDS d 803      -0.063  59.756 -16.415  0.00  0.00     0.133 H 
ATOM     18  H   IDS d 803       0.291  56.081 -18.476  0.00  0.00     0.091 H 
ATOM     19  H   IDS d 803       2.538  57.689 -17.885  0.00  0.00     0.210 HD
ATOM     20  H   IDS d 803       1.670  55.231 -16.604  0.00  0.00     0.092 H 
ATOM     21  H   IDS d 803       2.651  57.369 -15.941  0.00  0.00     0.104 H 
ATOM     22  O3  SGN d 802      -3.987  54.186 -14.773  0.00  0.00    -0.391 OA
ATOM     23  O4  SGN d 802      -2.484  53.998 -12.394  0.00  0.00    -0.348 OA
ATOM     24  S1  SGN d 802      -2.756  53.991 -18.752  0.00  0.00     0.156 S 
ATOM     25  O5S SGN d 802       0.455  49.001 -12.764  0.00  0.00    -0.572 OA
ATOM     26  N   SGN d 802      -2.592  54.762 -17.170  0.00  0.00    -0.210 NA
ATOM     27  O3S SGN d 802      -1.455  54.021 -19.446  0.00  0.00    -0.296 OA
ATOM     28  C6  SGN d 802       0.258  52.955 -12.649  0.00  0.00     0.067 C 
ATOM     29  O5  SGN d 802       0.090  53.514 -14.971  0.00  0.00    -0.349 OA
ATOM     30  C2  SGN d 802      -1.981  54.018 -16.090  0.00  0.00     0.081 C 
ATOM     31  O1S SGN d 802      -3.758  54.720 -19.550  0.00  0.00    -0.296 OA
ATOM     32  O1  SGN d 802      -0.210  55.660 -15.928  0.00  0.00    -0.348 OA
ATOM     33  C4  SGN d 802      -1.940  53.601 -13.655  0.00  0.00     0.095 C 
ATOM     34  O6  SGN d 802       0.079  51.600 -13.056  0.00  0.00    -0.254 OA
ATOM     35  C5  SGN d 802      -0.428  53.848 -13.672  0.00  0.00     0.091 C 
ATOM     36  O4S SGN d 802       0.207  50.305 -10.749  0.00  0.00    -0.572 OA
ATOM     37  C1  SGN d 802      -0.474  54.261 -16.059  0.00  0.00     0.150 C 
ATOM     38  O6S SGN d 802       2.239  50.454 -12.046  0.00  0.00    -0.572 OA
ATOM     39  O2S SGN d 802      -3.187  52.590 -18.576  0.00  0.00    -0.296 OA
ATOM     40  S2  SGN d 802       0.775  50.285 -12.112  0.00  0.00     0.251 S 
ATOM     41  C3  SGN d 802      -2.597  54.422 -14.756  0.00  0.00     0.083 C 
ATOM     42  H   SGN d 802      -4.396  54.713 -15.477  0.00  0.00     0.210 HD
ATOM     43  H   SGN d 802      -3.531  55.019 -16.864  0.00  0.00     0.140 HD
ATOM     44  H   SGN d 802      -1.173  54.941 -19.562  0.00  0.00     0.231 HD
ATOM     45  H   SGN d 802      -0.180  53.104 -11.684  0.00  0.00     0.080 H 
ATOM     46  H   SGN d 802       1.300  53.190 -12.590  0.00  0.00     0.080 H 
ATOM     47  H   SGN d 802      -2.161  52.976 -16.255  0.00  0.00     0.076 H 
ATOM     48  H   SGN d 802      -4.614  54.699 -19.093  0.00  0.00     0.231 HD
ATOM     49  H   SGN d 802      -2.127  52.560 -13.812  0.00  0.00     0.091 H 
ATOM     50  H   SGN d 802      -0.244  54.876 -13.443  0.00  0.00     0.090 H 
ATOM     51  H   SGN d 802      -0.023  53.931 -16.973  0.00  0.00     0.131 H 
ATOM     52  H   SGN d 802      -4.043  52.571 -18.120  0.00  0.00     0.231 HD
ATOM     53  H   SGN d 802      -2.434  55.465 -14.580  0.00  0.00     0.089 H 
ATOM     54  O1  SGN d 804       5.185  62.543 -16.912  0.00  0.00    -0.369 OA
ATOM     55  C5  SGN d 804       2.458  61.837 -17.554  0.00  0.00     0.091 C 
ATOM     56  O6  SGN d 804       0.198  62.688 -17.696  0.00  0.00    -0.254 OA
ATOM     57  O6S SGN d 804      -2.132  63.958 -17.615  0.00  0.00    -0.572 OA
ATOM     58  C1  SGN d 804       4.064  62.901 -16.102  0.00  0.00     0.147 C 
ATOM     59  N   SGN d 804       5.050  61.627 -14.267  0.00  0.00    -0.210 NA
ATOM     60  C4  SGN d 804       2.159  60.764 -16.507  0.00  0.00     0.095 C 
ATOM     61  O5S SGN d 804      -2.070  61.860 -18.798  0.00  0.00    -0.572 OA
ATOM     62  O3S SGN d 804       4.788  64.059 -13.237  0.00  0.00    -0.296 OA
ATOM     63  S1  SGN d 804       5.686  62.888 -13.202  0.00  0.00     0.156 S 
ATOM     64  S2  SGN d 804      -1.324  63.097 -18.500  0.00  0.00     0.251 S 
ATOM     65  O3  SGN d 804       3.154  59.572 -14.667  0.00  0.00    -0.391 OA
ATOM     66  O1S SGN d 804       7.030  63.283 -13.661  0.00  0.00    -0.296 OA
ATOM     67  O5  SGN d 804       2.874  63.044 -16.895  0.00  0.00    -0.350 OA
ATOM     68  C3  SGN d 804       3.412  60.531 -15.668  0.00  0.00     0.083 C 
ATOM     69  C6  SGN d 804       1.256  62.107 -18.455  0.00  0.00     0.067 C 
ATOM     70  O2S SGN d 804       5.770  62.374 -11.821  0.00  0.00    -0.296 OA
ATOM     71  C2  SGN d 804       3.830  61.845 -15.021  0.00  0.00     0.081 C 
ATOM     72  O4S SGN d 804      -1.041  63.812 -19.758  0.00  0.00    -0.572 OA
ATOM     73  O4  SGN d 804       1.796  59.545 -17.157  0.00  0.00    -0.348 OA
ATOM     74  H   SGN d 804       5.973  62.453 -16.352  0.00  0.00     0.212 HD
ATOM     75  H   SGN d 804       3.246  61.478 -18.183  0.00  0.00     0.090 H 
ATOM     76  H   SGN d 804       4.283  63.842 -15.642  0.00  0.00     0.131 H 
ATOM     77  H   SGN d 804       5.781  61.424 -14.948  0.00  0.00     0.140 HD
ATOM     78  H   SGN d 804       1.353  61.086 -15.881  0.00  0.00     0.091 H 
ATOM     79  H   SGN d 804       4.732  64.397 -14.144  0.00  0.00     0.231 HD
ATOM     80  H   SGN d 804       2.888  58.736 -15.081  0.00  0.00     0.210 HD
ATOM     81  H   SGN d 804       6.976  63.620 -14.569  0.00  0.00     0.231 HD
ATOM     82  H   SGN d 804       4.198  60.170 -16.299  0.00  0.00     0.089 H 
ATOM     83  H   SGN d 804       0.921  61.186 -18.883  0.00  0.00     0.080 H 
ATOM     84  H   SGN d 804       1.545  62.784 -19.231  0.00  0.00     0.080 H 
ATOM     85  H   SGN d 804       4.886  62.114 -11.518  0.00  0.00     0.231 HD
ATOM     86  H   SGN d 804       3.059  62.190 -14.365  0.00  0.00     0.076 H 
ATOM     87  O5  UAP d 801      -3.821  52.079 -12.021  0.00  0.00    -0.311 OA
ATOM     88  O2  UAP d 801      -3.391  52.411  -9.231  0.00  0.00    -0.244 OA
ATOM     89  O1S UAP d 801      -2.915  51.287  -6.876  0.00  0.00    -0.572 OA
ATOM     90  O3S UAP d 801      -1.279  52.857  -7.689  0.00  0.00    -0.572 OA
ATOM     91  C1  UAP d 801      -2.787  52.920 -11.506  0.00  0.00     0.167 C 
ATOM     92  O2S UAP d 801      -3.404  53.644  -6.878  0.00  0.00    -0.572 OA
ATOM     93  C4  UAP d 801      -5.440  53.610 -11.230  0.00  0.00    -0.034 C 
ATOM     94  C3  UAP d 801      -4.541  54.244 -10.290  0.00  0.00     0.086 C 
ATOM     95  O62 UAP d 801      -5.647  51.096 -13.589  0.00  0.00    -0.642 OA
ATOM     96  S   UAP d 801      -2.720  52.556  -7.601  0.00  0.00     0.252 S 
ATOM     97  C6  UAP d 801      -5.976  52.055 -12.853  0.00  0.00     0.233 C 
ATOM     98  C2  UAP d 801      -3.228  53.479 -10.162  0.00  0.00     0.135 C 
ATOM     99  C5  UAP d 801      -5.070  52.589 -12.032  0.00  0.00     0.147 C 
ATOM    100  O61 UAP d 801      -7.144  52.511 -12.863  0.00  0.00    -0.642 OA
ATOM    101  O3  UAP d 801      -4.297  55.576 -10.685  0.00  0.00    -0.389 OA
ATOM    102  H   UAP d 801      -1.900  52.331 -11.398  0.00  0.00     0.134 H 
ATOM    103  H   UAP d 801      -6.410  53.955 -11.291  0.00  0.00     0.085 H 
ATOM    104  H   UAP d 801      -5.010  54.240  -9.328  0.00  0.00     0.093 H 
ATOM    105  H   UAP d 801      -2.474  54.155  -9.817  0.00  0.00     0.097 H 
ATOM    106  H   UAP d 801      -3.871  55.581 -11.557  0.00  0.00     0.210 HD
ENDROOT
TORSDOF 33
ENDMDL
MODEL 60
REMARK VINA RESULT:      -5.2      4.241     10.198
REMARK  0 active torsions:
REMARK  status: ('A' for Active; 'I' for Inactive)
REMARK       I    between atoms: C2_1  and  O2_62 
REMARK       I    between atoms: O3_2  and  C3_65 
REMARK       I    between atoms: O1_3  and  C1_15 
REMARK       I    between atoms: C5_5  and  C6_58 
REMARK       I    between atoms: C1_6  and  O4_70 
REMARK       I    between atoms: S_7  and  O2_62 
REMARK       I    between atoms: O2_9  and  C2_55 
REMARK       I    between atoms: O2_9  and  S_49 
REMARK       I    between atoms: O4_11  and  C1_28 
REMARK       I    between atoms: O4_11  and  C4_41 
REMARK       I    between atoms: O6_12  and  C6_58 
REMARK       I    between atoms: O6_12  and  S2_38 
REMARK       I    between atoms: S1_16  and  N_21 
REMARK       I    between atoms: S1_16  and  O1S_32 
REMARK       I    between atoms: S1_16  and  O2S_53 
REMARK       I    between atoms: S1_16  and  O3S_24 
REMARK       I    between atoms: N_18  and  C2_66 
REMARK       I    between atoms: N_18  and  S1_37 
REMARK       I    between atoms: C3_19  and  O3_27 
REMARK       I    between atoms: N_21  and  C2_31 
REMARK       I    between atoms: C4_22  and  O4_70 
REMARK       I    between atoms: C6_25  and  C5_46 
REMARK       I    between atoms: C6_25  and  O6_45 
REMARK       I    between atoms: O1_33  and  C1_51 
REMARK       I    between atoms: O1_33  and  C4_34 
REMARK       I    between atoms: O3S_35  and  S1_37 
REMARK       I    between atoms: S1_37  and  O1S_42 
REMARK       I    between atoms: S1_37  and  O2S_63 
REMARK       I    between atoms: O3_39  and  C3_54 
REMARK       I    between atoms: C6_40  and  C5_60 
REMARK       I    between atoms: C3_44  and  O3_64 
REMARK       I    between atoms: O6_45  and  S2_59 
REMARK       I    between atoms: C6_50  and  C5_56 
ROOT
ATOM      1  C2  IDS d 803       2.672  53.822 -15.676  0.00  0.00     0.134 C 
ATOM      2  C1  IDS d 803       1.896  53.076 -14.590  0.00  0.00     0.161 C 
ATOM      3  S   IDS d 803       5.352  54.413 -15.370  0.00  0.00     0.252 S 
ATOM      4  O3S IDS d 803       5.855  53.425 -14.395  0.00  0.00    -0.572 OA
ATOM      5  O5  IDS d 803       1.056  53.994 -13.873  0.00  0.00    -0.340 OA
ATOM      6  C3  IDS d 803       1.709  54.589 -16.583  0.00  0.00     0.094 C 
ATOM      7  O2S IDS d 803       5.548  53.892 -16.736  0.00  0.00    -0.572 OA
ATOM      8  O3  IDS d 803       0.907  53.703 -17.333  0.00  0.00    -0.390 OA
ATOM      9  C4  IDS d 803       0.842  55.522 -15.739  0.00  0.00     0.103 C 
ATOM     10  C6  IDS d 803      -0.713  55.599 -13.786  0.00  0.00     0.206 C 
ATOM     11  O61 IDS d 803      -1.884  55.883 -14.120  0.00  0.00    -0.646 OA
ATOM     12  C5  IDS d 803       0.102  54.688 -14.692  0.00  0.00     0.152 C 
ATOM     13  O2  IDS d 803       3.630  54.699 -15.088  0.00  0.00    -0.244 OA
ATOM     14  O62 IDS d 803      -0.194  56.010 -12.726  0.00  0.00    -0.646 OA
ATOM     15  O1S IDS d 803       6.093  55.678 -15.213  0.00  0.00    -0.572 OA
ATOM     16  H   IDS d 803       3.198  53.109 -16.275  0.00  0.00     0.097 H 
ATOM     17  H   IDS d 803       2.590  52.653 -13.894  0.00  0.00     0.133 H 
ATOM     18  H   IDS d 803       2.279  55.174 -17.274  0.00  0.00     0.091 H 
ATOM     19  H   IDS d 803       0.376  53.158 -16.730  0.00  0.00     0.210 HD
ATOM     20  H   IDS d 803       0.141  56.030 -16.368  0.00  0.00     0.092 H 
ATOM     21  H   IDS d 803      -0.540  53.996 -15.195  0.00  0.00     0.104 H 
ATOM     22  O3  SGN d 802       4.299  59.445 -13.630  0.00  0.00    -0.391 OA
ATOM     23  O4  SGN d 802       1.997  59.824 -12.048  0.00  0.00    -0.348 OA
ATOM     24  S1  SGN d 802       4.679  57.987 -17.518  0.00  0.00     0.156 S 
ATOM     25  O5S SGN d 802      -1.567  63.155 -15.202  0.00  0.00    -0.572 OA
ATOM     26  N   SGN d 802       4.089  57.727 -15.873  0.00  0.00    -0.210 NA
ATOM     27  O3S SGN d 802       3.782  57.306 -18.470  0.00  0.00    -0.296 OA
ATOM     28  C6  SGN d 802      -0.592  59.740 -13.449  0.00  0.00     0.067 C 
ATOM     29  O5  SGN d 802       0.569  58.593 -15.201  0.00  0.00    -0.349 OA
ATOM     30  C2  SGN d 802       2.967  58.510 -15.400  0.00  0.00     0.081 C 
ATOM     31  O1S SGN d 802       6.040  57.438 -17.643  0.00  0.00    -0.296 OA
ATOM     32  O1  SGN d 802       1.662  56.495 -15.084  0.00  0.00    -0.348 OA
ATOM     33  C4  SGN d 802       1.907  59.608 -13.457  0.00  0.00     0.095 C 
ATOM     34  O6  SGN d 802      -0.563  60.882 -14.302  0.00  0.00    -0.254 OA
ATOM     35  C5  SGN d 802       0.607  58.868 -13.791  0.00  0.00     0.091 C 
ATOM     36  O4S SGN d 802      -1.839  62.693 -12.849  0.00  0.00    -0.572 OA
ATOM     37  C1  SGN d 802       1.652  57.790 -15.692  0.00  0.00     0.150 C 
ATOM     38  O6S SGN d 802      -3.136  61.473 -14.481  0.00  0.00    -0.572 OA
ATOM     39  O2S SGN d 802       4.700  59.434 -17.812  0.00  0.00    -0.296 OA
ATOM     40  S2  SGN d 802      -1.831  62.103 -14.203  0.00  0.00     0.251 S 
ATOM     41  C3  SGN d 802       3.094  58.766 -13.904  0.00  0.00     0.083 C 
ATOM     42  H   SGN d 802       5.049  58.901 -13.918  0.00  0.00     0.210 HD
ATOM     43  H   SGN d 802       4.869  57.912 -15.243  0.00  0.00     0.140 HD
ATOM     44  H   SGN d 802       3.768  56.356 -18.277  0.00  0.00     0.231 HD
ATOM     45  H   SGN d 802      -0.537  60.050 -12.427  0.00  0.00     0.080 H 
ATOM     46  H   SGN d 802      -1.501  59.194 -13.590  0.00  0.00     0.080 H 
ATOM     47  H   SGN d 802       2.969  59.448 -15.916  0.00  0.00     0.076 H 
ATOM     48  H   SGN d 802       6.629  57.887 -17.016  0.00  0.00     0.231 HD
ATOM     49  H   SGN d 802       1.913  60.551 -13.963  0.00  0.00     0.091 H 
ATOM     50  H   SGN d 802       0.573  57.961 -13.226  0.00  0.00     0.090 H 
ATOM     51  H   SGN d 802       1.528  57.651 -16.746  0.00  0.00     0.131 H 
ATOM     52  H   SGN d 802       5.290  59.882 -17.186  0.00  0.00     0.231 HD
ATOM     53  H   SGN d 802       3.103  57.837 -13.374  0.00  0.00     0.089 H 
ATOM     54  O1  SGN d 804      -1.342  48.235 -14.651  0.00  0.00    -0.369 OA
ATOM     55  C5  SGN d 804       1.205  49.597 -14.743  0.00  0.00     0.091 C 
ATOM     56  O6  SGN d 804       3.471  49.567 -13.897  0.00  0.00    -0.254 OA
ATOM     57  O6S SGN d 804       5.804  49.256 -12.670  0.00  0.00    -0.572 OA
ATOM     58  C1  SGN d 804      -0.569  48.545 -13.490  0.00  0.00     0.147 C 
ATOM     59  N   SGN d 804      -2.430  49.901 -12.678  0.00  0.00    -0.210 NA
ATOM     60  C4  SGN d 804       0.843  50.972 -14.180  0.00  0.00     0.095 C 
ATOM     61  O5S SGN d 804       5.756  50.740 -14.567  0.00  0.00    -0.572 OA
ATOM     62  O3S SGN d 804      -2.072  48.140 -10.723  0.00  0.00    -0.296 OA
ATOM     63  S1  SGN d 804      -3.141  48.887 -11.415  0.00  0.00     0.156 S 
ATOM     64  S2  SGN d 804       5.234  49.477 -14.012  0.00  0.00     0.251 S 
ATOM     65  O3  SGN d 804      -1.011  52.253 -13.333  0.00  0.00    -0.391 OA
ATOM     66  O1S SGN d 804      -4.090  47.938 -12.027  0.00  0.00    -0.296 OA
ATOM     67  O5  SGN d 804       0.835  48.581 -13.795  0.00  0.00    -0.350 OA
ATOM     68  C3  SGN d 804      -0.654  51.007 -13.890  0.00  0.00     0.083 C 
ATOM     69  C6  SGN d 804       2.687  49.492 -15.087  0.00  0.00     0.067 C 
ATOM     70  O2S SGN d 804      -3.856  49.735 -10.442  0.00  0.00    -0.296 OA
ATOM     71  C2  SGN d 804      -0.998  49.893 -12.910  0.00  0.00     0.081 C 
ATOM     72  O4S SGN d 804       5.614  48.361 -14.898  0.00  0.00    -0.572 OA
ATOM     73  O4  SGN d 804       1.159  51.982 -15.140  0.00  0.00    -0.348 OA
ATOM     74  H   SGN d 804      -2.284  48.217 -14.417  0.00  0.00     0.212 HD
ATOM     75  H   SGN d 804       0.661  49.456 -15.654  0.00  0.00     0.090 H 
ATOM     76  H   SGN d 804      -0.742  47.773 -12.769  0.00  0.00     0.131 H 
ATOM     77  H   SGN d 804      -2.870  49.625 -13.555  0.00  0.00     0.140 HD
ATOM     78  H   SGN d 804       1.396  51.150 -13.282  0.00  0.00     0.091 H 
ATOM     79  H   SGN d 804      -1.602  47.582 -11.363  0.00  0.00     0.231 HD
ATOM     80  H   SGN d 804      -0.791  52.961 -13.959  0.00  0.00     0.210 HD
ATOM     81  H   SGN d 804      -3.621  47.380 -12.667  0.00  0.00     0.231 HD
ATOM     82  H   SGN d 804      -1.196  50.868 -14.803  0.00  0.00     0.089 H 
ATOM     83  H   SGN d 804       2.957  50.295 -15.740  0.00  0.00     0.080 H 
ATOM     84  H   SGN d 804       2.870  48.554 -15.569  0.00  0.00     0.080 H 
ATOM     85  H   SGN d 804      -3.234  50.360 -10.038  0.00  0.00     0.231 HD
ATOM     86  H   SGN d 804      -0.484  50.048 -11.985  0.00  0.00     0.076 H 
ATOM     87  O5  UAP d 801       2.646  62.101 -12.129  0.00  0.00    -0.311 OA
ATOM     88  O2  UAP d 801       1.260  62.508  -9.680  0.00  0.00    -0.244 OA
ATOM     89  O1S UAP d 801      -0.310  64.062  -8.213  0.00  0.00    -0.572 OA
ATOM     90  O3S UAP d 801      -1.133  61.861  -8.739  0.00  0.00    -0.572 OA
ATOM     91  C1  UAP d 801       1.699  61.157 -11.626  0.00  0.00     0.167 C 
ATOM     92  O2S UAP d 801       0.632  62.132  -7.126  0.00  0.00    -0.572 OA
ATOM     93  C4  UAP d 801       4.124  61.531 -10.373  0.00  0.00    -0.034 C 
ATOM     94  C3  UAP d 801       3.090  60.947  -9.545  0.00  0.00     0.086 C 
ATOM     95  O62 UAP d 801       4.679  63.119 -13.389  0.00  0.00    -0.642 OA
ATOM     96  S   UAP d 801       0.064  62.647  -8.386  0.00  0.00     0.252 S 
ATOM     97  C6  UAP d 801       4.897  62.603 -12.268  0.00  0.00     0.233 C 
ATOM     98  C2  UAP d 801       1.699  61.219 -10.106  0.00  0.00     0.135 C 
ATOM     99  C5  UAP d 801       3.882  62.069 -11.587  0.00  0.00     0.147 C 
ATOM    100  O61 UAP d 801       6.047  62.592 -11.770  0.00  0.00    -0.642 OA
ATOM    101  O3  UAP d 801       3.306  59.559  -9.419  0.00  0.00    -0.389 OA
ATOM    102  H   UAP d 801       0.735  61.412 -12.014  0.00  0.00     0.134 H 
ATOM    103  H   UAP d 801       5.093  61.537 -10.018  0.00  0.00     0.085 H 
ATOM    104  H   UAP d 801       3.142  61.404  -8.578  0.00  0.00     0.093 H 
ATOM    105  H   UAP d 801       1.033  60.466  -9.740  0.00  0.00     0.097 H 
ATOM    106  H   UAP d 801       3.259  59.144 -10.294  0.00  0.00     0.210 HD
ENDROOT
TORSDOF 33
ENDMDL
MODEL 61
REMARK VINA RESULT:      -5.2      4.980     11.869
REMARK  0 active torsions:
REMARK  status: ('A' for Active; 'I' for Inactive)
REMARK       I    between atoms: C2_1  and  O2_62 
REMARK       I    between atoms: O3_2  and  C3_65 
REMARK       I    between atoms: O1_3  and  C1_15 
REMARK       I    between atoms: C5_5  and  C6_58 
REMARK       I    between atoms: C1_6  and  O4_70 
REMARK       I    between atoms: S_7  and  O2_62 
REMARK       I    between atoms: O2_9  and  C2_55 
REMARK       I    between atoms: O2_9  and  S_49 
REMARK       I    between atoms: O4_11  and  C1_28 
REMARK       I    between atoms: O4_11  and  C4_41 
REMARK       I    between atoms: O6_12  and  C6_58 
REMARK       I    between atoms: O6_12  and  S2_38 
REMARK       I    between atoms: S1_16  and  N_21 
REMARK       I    between atoms: S1_16  and  O1S_32 
REMARK       I    between atoms: S1_16  and  O2S_53 
REMARK       I    between atoms: S1_16  and  O3S_24 
REMARK       I    between atoms: N_18  and  C2_66 
REMARK       I    between atoms: N_18  and  S1_37 
REMARK       I    between atoms: C3_19  and  O3_27 
REMARK       I    between atoms: N_21  and  C2_31 
REMARK       I    between atoms: C4_22  and  O4_70 
REMARK       I    between atoms: C6_25  and  C5_46 
REMARK       I    between atoms: C6_25  and  O6_45 
REMARK       I    between atoms: O1_33  and  C1_51 
REMARK       I    between atoms: O1_33  and  C4_34 
REMARK       I    between atoms: O3S_35  and  S1_37 
REMARK       I    between atoms: S1_37  and  O1S_42 
REMARK       I    between atoms: S1_37  and  O2S_63 
REMARK       I    between atoms: O3_39  and  C3_54 
REMARK       I    between atoms: C6_40  and  C5_60 
REMARK       I    between atoms: C3_44  and  O3_64 
REMARK       I    between atoms: O6_45  and  S2_59 
REMARK       I    between atoms: C6_50  and  C5_56 
ROOT
ATOM      1  C2  IDS d 803      -4.067  54.165 -15.696  0.00  0.00     0.134 C 
ATOM      2  C1  IDS d 803      -4.187  53.645 -14.264  0.00  0.00     0.161 C 
ATOM      3  S   IDS d 803      -1.983  53.384 -17.332  0.00  0.00     0.252 S 
ATOM      4  O3S IDS d 803      -1.523  52.094 -16.781  0.00  0.00    -0.572 OA
ATOM      5  O5  IDS d 803      -3.791  54.670 -13.338  0.00  0.00    -0.340 OA
ATOM      6  C3  IDS d 803      -4.863  55.460 -15.859  0.00  0.00     0.094 C 
ATOM      7  O2S IDS d 803      -2.994  53.134 -18.377  0.00  0.00    -0.572 OA
ATOM      8  O3  IDS d 803      -6.249  55.220 -15.734  0.00  0.00    -0.390 OA
ATOM      9  C4  IDS d 803      -4.395  56.483 -14.825  0.00  0.00     0.103 C 
ATOM     10  C6  IDS d 803      -4.032  56.846 -12.382  0.00  0.00     0.206 C 
ATOM     11  O61 IDS d 803      -4.813  57.698 -11.905  0.00  0.00    -0.646 OA
ATOM     12  C5  IDS d 803      -4.561  55.879 -13.429  0.00  0.00     0.152 C 
ATOM     13  O2  IDS d 803      -2.697  54.359 -16.042  0.00  0.00    -0.244 OA
ATOM     14  O62 IDS d 803      -2.843  56.739 -12.012  0.00  0.00    -0.646 OA
ATOM     15  O1S IDS d 803      -0.837  54.105 -17.916  0.00  0.00    -0.572 OA
ATOM     16  H   IDS d 803      -4.477  53.436 -16.363  0.00  0.00     0.097 H 
ATOM     17  H   IDS d 803      -3.524  52.815 -14.138  0.00  0.00     0.133 H 
ATOM     18  H   IDS d 803      -4.689  55.851 -16.840  0.00  0.00     0.091 H 
ATOM     19  H   IDS d 803      -6.437  54.864 -14.851  0.00  0.00     0.210 HD
ATOM     20  H   IDS d 803      -4.979  57.375 -14.912  0.00  0.00     0.092 H 
ATOM     21  H   IDS d 803      -5.599  55.682 -13.262  0.00  0.00     0.104 H 
ATOM     22  O3  SGN d 802       0.900  57.842 -16.205  0.00  0.00    -0.391 OA
ATOM     23  O4  SGN d 802       0.720  58.888 -13.593  0.00  0.00    -0.348 OA
ATOM     24  S1  SGN d 802      -2.071  57.235 -19.068  0.00  0.00     0.156 S 
ATOM     25  O5S SGN d 802      -1.864  64.062 -14.128  0.00  0.00    -0.572 OA
ATOM     26  N   SGN d 802      -1.488  56.931 -17.427  0.00  0.00    -0.210 NA
ATOM     27  O3S SGN d 802      -3.546  57.258 -19.064  0.00  0.00    -0.296 OA
ATOM     28  C6  SGN d 802      -1.774  60.296 -12.908  0.00  0.00     0.067 C 
ATOM     29  O5  SGN d 802      -2.752  59.146 -14.766  0.00  0.00    -0.349 OA
ATOM     30  C2  SGN d 802      -1.484  58.020 -16.474  0.00  0.00     0.081 C 
ATOM     31  O1S SGN d 802      -1.597  56.163 -19.962  0.00  0.00    -0.296 OA
ATOM     32  O1  SGN d 802      -3.020  56.809 -15.047  0.00  0.00    -0.348 OA
ATOM     33  C4  SGN d 802      -0.345  59.041 -14.533  0.00  0.00     0.095 C 
ATOM     34  O6  SGN d 802      -1.763  61.450 -13.745  0.00  0.00    -0.254 OA
ATOM     35  C5  SGN d 802      -1.690  59.067 -13.801  0.00  0.00     0.091 C 
ATOM     36  O4S SGN d 802      -0.731  63.289 -12.142  0.00  0.00    -0.572 OA
ATOM     37  C1  SGN d 802      -2.802  58.061 -15.704  0.00  0.00     0.150 C 
ATOM     38  O6S SGN d 802      -3.139  63.175 -12.284  0.00  0.00    -0.572 OA
ATOM     39  O2S SGN d 802      -1.560  58.536 -19.540  0.00  0.00    -0.296 OA
ATOM     40  S2  SGN d 802      -1.879  63.063 -13.043  0.00  0.00     0.251 S 
ATOM     41  C3  SGN d 802      -0.322  57.866 -15.501  0.00  0.00     0.083 C 
ATOM     42  H   SGN d 802       0.905  57.091 -16.819  0.00  0.00     0.210 HD
ATOM     43  H   SGN d 802      -0.527  56.600 -17.508  0.00  0.00     0.140 HD
ATOM     44  H   SGN d 802      -3.881  56.403 -18.754  0.00  0.00     0.231 HD
ATOM     45  H   SGN d 802      -0.935  60.322 -12.244  0.00  0.00     0.080 H 
ATOM     46  H   SGN d 802      -2.669  60.270 -12.322  0.00  0.00     0.080 H 
ATOM     47  H   SGN d 802      -1.369  58.938 -17.012  0.00  0.00     0.076 H 
ATOM     48  H   SGN d 802      -0.627  56.149 -19.964  0.00  0.00     0.231 HD
ATOM     49  H   SGN d 802      -0.219  59.959 -15.068  0.00  0.00     0.091 H 
ATOM     50  H   SGN d 802      -1.778  58.179 -13.210  0.00  0.00     0.090 H 
ATOM     51  H   SGN d 802      -3.622  58.222 -16.373  0.00  0.00     0.131 H 
ATOM     52  H   SGN d 802      -0.590  58.521 -19.543  0.00  0.00     0.231 HD
ATOM     53  H   SGN d 802      -0.417  56.946 -14.962  0.00  0.00     0.089 H 
ATOM     54  O1  SGN d 804      -8.468  50.958 -11.368  0.00  0.00    -0.369 OA
ATOM     55  C5  SGN d 804      -6.354  50.989 -13.338  0.00  0.00     0.091 C 
ATOM     56  O6  SGN d 804      -4.466  49.747 -14.202  0.00  0.00    -0.254 OA
ATOM     57  O6S SGN d 804      -2.425  48.151 -14.781  0.00  0.00    -0.572 OA
ATOM     58  C1  SGN d 804      -7.109  50.626 -11.076  0.00  0.00     0.147 C 
ATOM     59  N   SGN d 804      -7.056  52.476  -9.483  0.00  0.00    -0.210 NA
ATOM     60  C4  SGN d 804      -5.554  52.222 -12.918  0.00  0.00     0.095 C 
ATOM     61  O5S SGN d 804      -2.970  49.857 -16.392  0.00  0.00    -0.572 OA
ATOM     62  O3S SGN d 804      -6.419  50.377  -7.987  0.00  0.00    -0.296 OA
ATOM     63  S1  SGN d 804      -7.150  51.658  -7.918  0.00  0.00     0.156 S 
ATOM     64  S2  SGN d 804      -3.526  48.887 -15.430  0.00  0.00     0.251 S 
ATOM     65  O3  SGN d 804      -5.510  53.997 -11.292  0.00  0.00    -0.391 OA
ATOM     66  O1S SGN d 804      -8.564  51.402  -7.585  0.00  0.00    -0.296 OA
ATOM     67  O5  SGN d 804      -6.447  50.080 -12.228  0.00  0.00    -0.350 OA
ATOM     68  C3  SGN d 804      -6.247  52.876 -11.726  0.00  0.00     0.083 C 
ATOM     69  C6  SGN d 804      -5.737  50.293 -14.548  0.00  0.00     0.067 C 
ATOM     70  O2S SGN d 804      -6.549  52.511  -6.875  0.00  0.00    -0.296 OA
ATOM     71  C2  SGN d 804      -6.352  51.864 -10.593  0.00  0.00     0.081 C 
ATOM     72  O4S SGN d 804      -4.400  47.938 -16.143  0.00  0.00    -0.572 OA
ATOM     73  O4  SGN d 804      -5.502  53.154 -14.000  0.00  0.00    -0.348 OA
ATOM     74  H   SGN d 804      -8.889  51.323 -10.575  0.00  0.00     0.212 HD
ATOM     75  H   SGN d 804      -7.333  51.308 -13.627  0.00  0.00     0.090 H 
ATOM     76  H   SGN d 804      -7.115  49.886 -10.303  0.00  0.00     0.131 H 
ATOM     77  H   SGN d 804      -8.016  52.625  -9.793  0.00  0.00     0.140 HD
ATOM     78  H   SGN d 804      -4.559  51.933 -12.651  0.00  0.00     0.091 H 
ATOM     79  H   SGN d 804      -6.815  49.816  -8.672  0.00  0.00     0.231 HD
ATOM     80  H   SGN d 804      -5.444  54.641 -12.015  0.00  0.00     0.210 HD
ATOM     81  H   SGN d 804      -8.961  50.841  -8.270  0.00  0.00     0.231 HD
ATOM     82  H   SGN d 804      -7.226  53.197 -12.018  0.00  0.00     0.089 H 
ATOM     83  H   SGN d 804      -5.614  51.002 -15.340  0.00  0.00     0.080 H 
ATOM     84  H   SGN d 804      -6.384  49.502 -14.865  0.00  0.00     0.080 H 
ATOM     85  H   SGN d 804      -5.619  52.680  -7.093  0.00  0.00     0.231 HD
ATOM     86  H   SGN d 804      -5.374  51.566 -10.278  0.00  0.00     0.076 H 
ATOM     87  O5  UAP d 801       2.139  60.574 -14.461  0.00  0.00    -0.311 OA
ATOM     88  O2  UAP d 801       3.080  61.040 -11.820  0.00  0.00    -0.244 OA
ATOM     89  O1S UAP d 801       3.824  62.790  -9.970  0.00  0.00    -0.572 OA
ATOM     90  O3S UAP d 801       1.945  61.377  -9.447  0.00  0.00    -0.572 OA
ATOM     91  C1  UAP d 801       1.447  60.085 -13.311  0.00  0.00     0.167 C 
ATOM     92  O2S UAP d 801       4.170  60.461  -9.467  0.00  0.00    -0.572 OA
ATOM     93  C4  UAP d 801       3.885  59.034 -14.047  0.00  0.00    -0.034 C 
ATOM     94  C3  UAP d 801       3.521  58.826 -12.661  0.00  0.00     0.086 C 
ATOM     95  O62 UAP d 801       3.029  60.791 -16.894  0.00  0.00    -0.642 OA
ATOM     96  S   UAP d 801       3.263  61.433 -10.106  0.00  0.00     0.252 S 
ATOM     97  C6  UAP d 801       3.637  60.008 -16.127  0.00  0.00     0.233 C 
ATOM     98  C2  UAP d 801       2.456  59.817 -12.204  0.00  0.00     0.135 C 
ATOM     99  C5  UAP d 801       3.213  59.867 -14.870  0.00  0.00     0.147 C 
ATOM    100  O61 UAP d 801       4.641  59.367 -16.516  0.00  0.00    -0.642 OA
ATOM    101  O3  UAP d 801       3.072  57.502 -12.477  0.00  0.00    -0.389 OA
ATOM    102  H   UAP d 801       0.740  60.829 -13.005  0.00  0.00     0.134 H 
ATOM    103  H   UAP d 801       4.696  58.520 -14.423  0.00  0.00     0.085 H 
ATOM    104  H   UAP d 801       4.392  58.992 -12.061  0.00  0.00     0.093 H 
ATOM    105  H   UAP d 801       1.935  59.394 -11.371  0.00  0.00     0.097 H 
ATOM    106  H   UAP d 801       2.282  57.351 -13.020  0.00  0.00     0.210 HD
ENDROOT
TORSDOF 33
ENDMDL
MODEL 62
REMARK VINA RESULT:      -5.2      3.750     12.174
REMARK  0 active torsions:
REMARK  status: ('A' for Active; 'I' for Inactive)
REMARK       I    between atoms: C2_1  and  O2_62 
REMARK       I    between atoms: O3_2  and  C3_65 
REMARK       I    between atoms: O1_3  and  C1_15 
REMARK       I    between atoms: C5_5  and  C6_58 
REMARK       I    between atoms: C1_6  and  O4_70 
REMARK       I    between atoms: S_7  and  O2_62 
REMARK       I    between atoms: O2_9  and  C2_55 
REMARK       I    between atoms: O2_9  and  S_49 
REMARK       I    between atoms: O4_11  and  C1_28 
REMARK       I    between atoms: O4_11  and  C4_41 
REMARK       I    between atoms: O6_12  and  C6_58 
REMARK       I    between atoms: O6_12  and  S2_38 
REMARK       I    between atoms: S1_16  and  N_21 
REMARK       I    between atoms: S1_16  and  O1S_32 
REMARK       I    between atoms: S1_16  and  O2S_53 
REMARK       I    between atoms: S1_16  and  O3S_24 
REMARK       I    between atoms: N_18  and  C2_66 
REMARK       I    between atoms: N_18  and  S1_37 
REMARK       I    between atoms: C3_19  and  O3_27 
REMARK       I    between atoms: N_21  and  C2_31 
REMARK       I    between atoms: C4_22  and  O4_70 
REMARK       I    between atoms: C6_25  and  C5_46 
REMARK       I    between atoms: C6_25  and  O6_45 
REMARK       I    between atoms: O1_33  and  C1_51 
REMARK       I    between atoms: O1_33  and  C4_34 
REMARK       I    between atoms: O3S_35  and  S1_37 
REMARK       I    between atoms: S1_37  and  O1S_42 
REMARK       I    between atoms: S1_37  and  O2S_63 
REMARK       I    between atoms: O3_39  and  C3_54 
REMARK       I    between atoms: C6_40  and  C5_60 
REMARK       I    between atoms: C3_44  and  O3_64 
REMARK       I    between atoms: O6_45  and  S2_59 
REMARK       I    between atoms: C6_50  and  C5_56 
ROOT
ATOM      1  C2  IDS d 803      -4.366  56.953 -14.528  0.00  0.00     0.134 C 
ATOM      2  C1  IDS d 803      -4.308  56.066 -15.771  0.00  0.00     0.161 C 
ATOM      3  S   IDS d 803      -4.439  59.706 -14.738  0.00  0.00     0.252 S 
ATOM      4  O3S IDS d 803      -4.978  59.975 -16.085  0.00  0.00    -0.572 OA
ATOM      5  O5  IDS d 803      -2.979  55.547 -15.940  0.00  0.00    -0.340 OA
ATOM      6  C3  IDS d 803      -3.862  56.187 -13.305  0.00  0.00     0.094 C 
ATOM      7  O2S IDS d 803      -5.548  59.677 -13.766  0.00  0.00    -0.572 OA
ATOM      8  O3  IDS d 803      -4.741  55.133 -12.972  0.00  0.00    -0.390 OA
ATOM      9  C4  IDS d 803      -2.456  55.653 -13.578  0.00  0.00     0.103 C 
ATOM     10  C6  IDS d 803      -1.101  54.287 -15.169  0.00  0.00     0.206 C 
ATOM     11  O61 IDS d 803      -0.695  53.221 -14.658  0.00  0.00    -0.646 OA
ATOM     12  C5  IDS d 803      -2.501  54.773 -14.828  0.00  0.00     0.152 C 
ATOM     13  O2  IDS d 803      -3.609  58.145 -14.733  0.00  0.00    -0.244 OA
ATOM     14  O62 IDS d 803      -0.413  54.955 -15.970  0.00  0.00    -0.646 OA
ATOM     15  O1S IDS d 803      -3.486  60.770 -14.368  0.00  0.00    -0.572 OA
ATOM     16  H   IDS d 803      -5.383  57.233 -14.350  0.00  0.00     0.097 H 
ATOM     17  H   IDS d 803      -4.542  56.656 -16.633  0.00  0.00     0.133 H 
ATOM     18  H   IDS d 803      -3.825  56.855 -12.470  0.00  0.00     0.091 H 
ATOM     19  H   IDS d 803      -4.794  54.509 -13.713  0.00  0.00     0.210 HD
ATOM     20  H   IDS d 803      -2.118  55.082 -12.738  0.00  0.00     0.092 H 
ATOM     21  H   IDS d 803      -3.146  53.941 -14.640  0.00  0.00     0.104 H 
ATOM     22  O3  SGN d 802       0.915  60.155 -13.968  0.00  0.00    -0.391 OA
ATOM     23  O4  SGN d 802       2.562  58.132 -15.039  0.00  0.00    -0.348 OA
ATOM     24  S1  SGN d 802      -2.174  59.910 -11.178  0.00  0.00     0.156 S 
ATOM     25  O5S SGN d 802       4.937  55.437 -10.474  0.00  0.00    -0.572 OA
ATOM     26  N   SGN d 802      -1.500  59.363 -12.718  0.00  0.00    -0.210 NA
ATOM     27  O3S SGN d 802      -2.943  58.811 -10.565  0.00  0.00    -0.296 OA
ATOM     28  C6  SGN d 802       2.551  55.545 -13.633  0.00  0.00     0.067 C 
ATOM     29  O5  SGN d 802       0.478  56.253 -12.668  0.00  0.00    -0.349 OA
ATOM     30  C2  SGN d 802      -0.321  58.523 -12.706  0.00  0.00     0.081 C 
ATOM     31  O1S SGN d 802      -3.061  61.062 -11.413  0.00  0.00    -0.296 OA
ATOM     32  O1  SGN d 802      -1.551  56.741 -13.789  0.00  0.00    -0.348 OA
ATOM     33  C4  SGN d 802       1.769  57.910 -13.871  0.00  0.00     0.095 C 
ATOM     34  O6  SGN d 802       3.135  55.835 -12.365  0.00  0.00    -0.254 OA
ATOM     35  C5  SGN d 802       1.335  56.442 -13.806  0.00  0.00     0.091 C 
ATOM     36  O4S SGN d 802       5.672  55.180 -12.759  0.00  0.00    -0.572 OA
ATOM     37  C1  SGN d 802      -0.717  57.049 -12.669  0.00  0.00     0.150 C 
ATOM     38  O6S SGN d 802       4.245  53.513 -11.750  0.00  0.00    -0.572 OA
ATOM     39  O2S SGN d 802      -1.077  60.306 -10.272  0.00  0.00    -0.296 OA
ATOM     40  S2  SGN d 802       4.559  54.953 -11.815  0.00  0.00     0.251 S 
ATOM     41  C3  SGN d 802       0.534  58.798 -13.936  0.00  0.00     0.083 C 
ATOM     42  H   SGN d 802       0.122  60.712 -14.009  0.00  0.00     0.210 HD
ATOM     43  H   SGN d 802      -1.268  60.198 -13.256  0.00  0.00     0.140 HD
ATOM     44  H   SGN d 802      -3.663  58.551 -11.160  0.00  0.00     0.231 HD
ATOM     45  H   SGN d 802       3.260  55.738 -14.411  0.00  0.00     0.080 H 
ATOM     46  H   SGN d 802       2.265  54.516 -13.683  0.00  0.00     0.080 H 
ATOM     47  H   SGN d 802       0.246  58.752 -11.829  0.00  0.00     0.076 H 
ATOM     48  H   SGN d 802      -2.554  61.785 -11.816  0.00  0.00     0.231 HD
ATOM     49  H   SGN d 802       2.345  58.144 -13.000  0.00  0.00     0.091 H 
ATOM     50  H   SGN d 802       0.823  56.194 -14.712  0.00  0.00     0.090 H 
ATOM     51  H   SGN d 802      -1.275  56.833 -11.781  0.00  0.00     0.131 H 
ATOM     52  H   SGN d 802      -0.571  61.029 -10.675  0.00  0.00     0.231 HD
ATOM     53  H   SGN d 802      -0.023  58.584 -14.824  0.00  0.00     0.089 H 
ATOM     54  O1  SGN d 804      -7.603  51.637 -17.634  0.00  0.00    -0.369 OA
ATOM     55  C5  SGN d 804      -7.161  54.449 -17.135  0.00  0.00     0.091 C 
ATOM     56  O6  SGN d 804      -7.411  56.666 -18.071  0.00  0.00    -0.254 OA
ATOM     57  O6S SGN d 804      -7.747  58.891 -19.479  0.00  0.00    -0.572 OA
ATOM     58  C1  SGN d 804      -7.024  52.529 -18.589  0.00  0.00     0.147 C 
ATOM     59  N   SGN d 804      -5.007  51.153 -18.570  0.00  0.00    -0.210 NA
ATOM     60  C4  SGN d 804      -5.639  54.505 -16.996  0.00  0.00     0.095 C 
ATOM     61  O5S SGN d 804      -7.319  59.143 -17.121  0.00  0.00    -0.572 OA
ATOM     62  O3S SGN d 804      -5.727  51.128 -21.125  0.00  0.00    -0.296 OA
ATOM     63  S1  SGN d 804      -5.115  50.264 -20.095  0.00  0.00     0.156 S 
ATOM     64  S2  SGN d 804      -8.009  58.329 -18.140  0.00  0.00     0.251 S 
ATOM     65  O3  SGN d 804      -3.672  53.118 -17.043  0.00  0.00    -0.391 OA
ATOM     66  O1S SGN d 804      -5.947  49.062 -19.902  0.00  0.00    -0.296 OA
ATOM     67  O5  SGN d 804      -7.503  53.871 -18.405  0.00  0.00    -0.350 OA
ATOM     68  C3  SGN d 804      -5.080  53.093 -17.128  0.00  0.00     0.083 C 
ATOM     69  C6  SGN d 804      -7.800  55.827 -16.985  0.00  0.00     0.067 C 
ATOM     70  O2S SGN d 804      -3.765  49.861 -20.532  0.00  0.00    -0.296 OA
ATOM     71  C2  SGN d 804      -5.499  52.514 -18.473  0.00  0.00     0.081 C 
ATOM     72  O4S SGN d 804      -9.460  58.343 -17.876  0.00  0.00    -0.572 OA
ATOM     73  O4  SGN d 804      -5.292  55.030 -15.714  0.00  0.00    -0.348 OA
ATOM     74  H   SGN d 804      -7.262  50.741 -17.781  0.00  0.00     0.212 HD
ATOM     75  H   SGN d 804      -7.545  53.839 -16.344  0.00  0.00     0.090 H 
ATOM     76  H   SGN d 804      -7.312  52.193 -19.563  0.00  0.00     0.131 H 
ATOM     77  H   SGN d 804      -5.518  50.607 -17.878  0.00  0.00     0.140 HD
ATOM     78  H   SGN d 804      -5.231  55.135 -17.759  0.00  0.00     0.091 H 
ATOM     79  H   SGN d 804      -6.615  51.393 -20.838  0.00  0.00     0.231 HD
ATOM     80  H   SGN d 804      -3.407  53.487 -16.185  0.00  0.00     0.210 HD
ATOM     81  H   SGN d 804      -6.835  49.326 -19.615  0.00  0.00     0.231 HD
ATOM     82  H   SGN d 804      -5.463  52.484 -16.335  0.00  0.00     0.089 H 
ATOM     83  H   SGN d 804      -7.480  56.267 -16.065  0.00  0.00     0.080 H 
ATOM     84  H   SGN d 804      -8.865  55.721 -16.986  0.00  0.00     0.080 H 
ATOM     85  H   SGN d 804      -3.217  50.651 -20.660  0.00  0.00     0.231 HD
ATOM     86  H   SGN d 804      -5.089  53.101 -19.267  0.00  0.00     0.076 H 
ATOM     87  O5  UAP d 801       4.295  59.369 -14.000  0.00  0.00    -0.311 OA
ATOM     88  O2  UAP d 801       6.110  58.283 -15.899  0.00  0.00    -0.244 OA
ATOM     89  O1S UAP d 801       8.512  57.277 -16.398  0.00  0.00    -0.572 OA
ATOM     90  O3S UAP d 801       6.618  55.860 -16.848  0.00  0.00    -0.572 OA
ATOM     91  C1  UAP d 801       3.968  58.231 -14.799  0.00  0.00     0.167 C 
ATOM     92  O2S UAP d 801       7.102  57.719 -18.298  0.00  0.00    -0.572 OA
ATOM     93  C4  UAP d 801       4.203  60.732 -15.930  0.00  0.00    -0.034 C 
ATOM     94  C3  UAP d 801       4.351  59.626 -16.853  0.00  0.00     0.086 C 
ATOM     95  O62 UAP d 801       4.056  61.530 -12.574  0.00  0.00    -0.642 OA
ATOM     96  S   UAP d 801       7.127  57.242 -16.903  0.00  0.00     0.252 S 
ATOM     97  C6  UAP d 801       4.061  61.661 -13.820  0.00  0.00     0.233 C 
ATOM     98  C2  UAP d 801       4.702  58.331 -16.127  0.00  0.00     0.135 C 
ATOM     99  C5  UAP d 801       4.182  60.578 -14.590  0.00  0.00     0.147 C 
ATOM    100  O61 UAP d 801       3.968  62.791 -14.354  0.00  0.00    -0.642 OA
ATOM    101  O3  UAP d 801       3.166  59.464 -17.600  0.00  0.00    -0.389 OA
ATOM    102  H   UAP d 801       4.268  57.352 -14.267  0.00  0.00     0.134 H 
ATOM    103  H   UAP d 801       4.108  61.684 -16.317  0.00  0.00     0.085 H 
ATOM    104  H   UAP d 801       5.161  59.853 -17.515  0.00  0.00     0.093 H 
ATOM    105  H   UAP d 801       4.402  57.508 -16.740  0.00  0.00     0.097 H 
ATOM    106  H   UAP d 801       2.432  59.258 -17.001  0.00  0.00     0.210 HD
ENDROOT
TORSDOF 33
ENDMDL
MODEL 63
REMARK VINA RESULT:      -5.2      4.136      7.275
REMARK  0 active torsions:
REMARK  status: ('A' for Active; 'I' for Inactive)
REMARK       I    between atoms: C2_1  and  O2_62 
REMARK       I    between atoms: O3_2  and  C3_65 
REMARK       I    between atoms: O1_3  and  C1_15 
REMARK       I    between atoms: C5_5  and  C6_58 
REMARK       I    between atoms: C1_6  and  O4_70 
REMARK       I    between atoms: S_7  and  O2_62 
REMARK       I    between atoms: O2_9  and  C2_55 
REMARK       I    between atoms: O2_9  and  S_49 
REMARK       I    between atoms: O4_11  and  C1_28 
REMARK       I    between atoms: O4_11  and  C4_41 
REMARK       I    between atoms: O6_12  and  C6_58 
REMARK       I    between atoms: O6_12  and  S2_38 
REMARK       I    between atoms: S1_16  and  N_21 
REMARK       I    between atoms: S1_16  and  O1S_32 
REMARK       I    between atoms: S1_16  and  O2S_53 
REMARK       I    between atoms: S1_16  and  O3S_24 
REMARK       I    between atoms: N_18  and  C2_66 
REMARK       I    between atoms: N_18  and  S1_37 
REMARK       I    between atoms: C3_19  and  O3_27 
REMARK       I    between atoms: N_21  and  C2_31 
REMARK       I    between atoms: C4_22  and  O4_70 
REMARK       I    between atoms: C6_25  and  C5_46 
REMARK       I    between atoms: C6_25  and  O6_45 
REMARK       I    between atoms: O1_33  and  C1_51 
REMARK       I    between atoms: O1_33  and  C4_34 
REMARK       I    between atoms: O3S_35  and  S1_37 
REMARK       I    between atoms: S1_37  and  O1S_42 
REMARK       I    between atoms: S1_37  and  O2S_63 
REMARK       I    between atoms: O3_39  and  C3_54 
REMARK       I    between atoms: C6_40  and  C5_60 
REMARK       I    between atoms: C3_44  and  O3_64 
REMARK       I    between atoms: O6_45  and  S2_59 
REMARK       I    between atoms: C6_50  and  C5_56 
ROOT
ATOM      1  C2  IDS d 803       2.193  58.163 -15.629  0.00  0.00     0.134 C 
ATOM      2  C1  IDS d 803       2.111  59.039 -14.379  0.00  0.00     0.161 C 
ATOM      3  S   IDS d 803       0.208  58.219 -17.548  0.00  0.00     0.252 S 
ATOM      4  O3S IDS d 803      -0.446  59.533 -17.388  0.00  0.00    -0.572 OA
ATOM      5  O5  IDS d 803       1.742  58.238 -13.245  0.00  0.00    -0.340 OA
ATOM      6  C3  IDS d 803       3.141  56.988 -15.391  0.00  0.00     0.094 C 
ATOM      7  O2S IDS d 803       1.283  58.330 -18.552  0.00  0.00    -0.572 OA
ATOM      8  O3  IDS d 803       4.472  57.435 -15.241  0.00  0.00    -0.390 OA
ATOM      9  C4  IDS d 803       2.690  56.205 -14.158  0.00  0.00     0.103 C 
ATOM     10  C6  IDS d 803       2.129  56.426 -11.736  0.00  0.00     0.206 C 
ATOM     11  O61 IDS d 803       2.949  55.834 -11.000  0.00  0.00    -0.646 OA
ATOM     12  C5  IDS d 803       2.648  57.159 -12.963  0.00  0.00     0.152 C 
ATOM     13  O2  IDS d 803       0.894  57.706 -16.002  0.00  0.00    -0.244 OA
ATOM     14  O62 IDS d 803       0.905  56.463 -11.488  0.00  0.00    -0.646 OA
ATOM     15  O1S IDS d 803      -0.787  57.227 -17.997  0.00  0.00    -0.572 OA
ATOM     16  H   IDS d 803       2.583  58.748 -16.435  0.00  0.00     0.097 H 
ATOM     17  H   IDS d 803       1.350  59.778 -14.520  0.00  0.00     0.133 H 
ATOM     18  H   IDS d 803       3.110  56.342 -16.244  0.00  0.00     0.091 H 
ATOM     19  H   IDS d 803       4.530  58.024 -14.472  0.00  0.00     0.210 HD
ATOM     20  H   IDS d 803       3.376  55.407 -13.968  0.00  0.00     0.092 H 
ATOM     21  H   IDS d 803       3.635  57.530 -12.784  0.00  0.00     0.104 H 
ATOM     22  O3  SGN d 802      -2.256  53.846 -15.484  0.00  0.00    -0.391 OA
ATOM     23  O4  SGN d 802      -2.221  53.528 -12.683  0.00  0.00    -0.348 OA
ATOM     24  S1  SGN d 802       0.898  54.103 -18.200  0.00  0.00     0.156 S 
ATOM     25  O5S SGN d 802       0.966  48.780 -11.663  0.00  0.00    -0.572 OA
ATOM     26  N   SGN d 802       0.125  54.731 -16.740  0.00  0.00    -0.210 NA
ATOM     27  O3S SGN d 802       2.358  54.279 -18.091  0.00  0.00    -0.296 OA
ATOM     28  C6  SGN d 802       0.334  52.685 -11.486  0.00  0.00     0.067 C 
ATOM     29  O5  SGN d 802       1.358  53.448 -13.511  0.00  0.00    -0.349 OA
ATOM     30  C2  SGN d 802       0.147  53.927 -15.536  0.00  0.00     0.081 C 
ATOM     31  O1S SGN d 802       0.398  54.840 -19.374  0.00  0.00    -0.296 OA
ATOM     32  O1  SGN d 802       1.389  55.653 -14.378  0.00  0.00    -0.348 OA
ATOM     33  C4  SGN d 802      -1.057  53.286 -13.476  0.00  0.00     0.095 C 
ATOM     34  O6  SGN d 802       0.536  51.366 -11.989  0.00  0.00    -0.254 OA
ATOM     35  C5  SGN d 802       0.203  53.626 -12.674  0.00  0.00     0.091 C 
ATOM     36  O4S SGN d 802      -0.438  49.870 -10.032  0.00  0.00    -0.572 OA
ATOM     37  C1  SGN d 802       1.379  54.258 -14.696  0.00  0.00     0.150 C 
ATOM     38  O6S SGN d 802       1.944  50.266 -10.037  0.00  0.00    -0.572 OA
ATOM     39  O2S SGN d 802       0.586  52.668 -18.346  0.00  0.00    -0.296 OA
ATOM     40  S2  SGN d 802       0.761  50.013 -10.882  0.00  0.00     0.251 S 
ATOM     41  C3  SGN d 802      -1.115  54.165 -14.718  0.00  0.00     0.083 C 
ATOM     42  H   SGN d 802      -2.284  54.410 -16.273  0.00  0.00     0.210 HD
ATOM     43  H   SGN d 802      -0.855  54.899 -16.969  0.00  0.00     0.140 HD
ATOM     44  H   SGN d 802       2.564  55.221 -17.995  0.00  0.00     0.231 HD
ATOM     45  H   SGN d 802      -0.559  52.716 -10.897  0.00  0.00     0.080 H 
ATOM     46  H   SGN d 802       1.158  52.977 -10.869  0.00  0.00     0.080 H 
ATOM     47  H   SGN d 802       0.190  52.896 -15.820  0.00  0.00     0.076 H 
ATOM     48  H   SGN d 802      -0.562  54.723 -19.445  0.00  0.00     0.231 HD
ATOM     49  H   SGN d 802      -1.026  52.254 -13.758  0.00  0.00     0.091 H 
ATOM     50  H   SGN d 802       0.132  54.638 -12.334  0.00  0.00     0.090 H 
ATOM     51  H   SGN d 802       2.274  54.045 -15.243  0.00  0.00     0.131 H 
ATOM     52  H   SGN d 802      -0.375  52.552 -18.418  0.00  0.00     0.231 HD
ATOM     53  H   SGN d 802      -1.178  55.195 -14.435  0.00  0.00     0.089 H 
ATOM     54  O1  SGN d 804       5.755  62.918 -12.012  0.00  0.00    -0.369 OA
ATOM     55  C5  SGN d 804       3.864  62.108 -14.041  0.00  0.00     0.091 C 
ATOM     56  O6  SGN d 804       1.944  62.827 -15.325  0.00  0.00    -0.254 OA
ATOM     57  O6S SGN d 804      -0.195  63.937 -16.439  0.00  0.00    -0.572 OA
ATOM     58  C1  SGN d 804       4.345  63.129 -11.909  0.00  0.00     0.147 C 
ATOM     59  N   SGN d 804       4.341  61.751  -9.893  0.00  0.00    -0.210 NA
ATOM     60  C4  SGN d 804       3.170  60.925 -13.366  0.00  0.00     0.095 C 
ATOM     61  O5S SGN d 804       0.695  61.968 -17.505  0.00  0.00    -0.572 OA
ATOM     62  O3S SGN d 804       3.328  64.055  -9.048  0.00  0.00    -0.296 OA
ATOM     63  S1  SGN d 804       4.188  62.943  -8.595  0.00  0.00     0.156 S 
ATOM     64  S2  SGN d 804       1.041  63.216 -16.796  0.00  0.00     0.251 S 
ATOM     65  O3  SGN d 804       3.163  59.630 -11.337  0.00  0.00    -0.391 OA
ATOM     66  O1S SGN d 804       5.524  63.462  -8.247  0.00  0.00    -0.296 OA
ATOM     67  O5  SGN d 804       3.744  63.272 -13.206  0.00  0.00    -0.350 OA
ATOM     68  C3  SGN d 804       3.809  60.693 -12.001  0.00  0.00     0.083 C 
ATOM     69  C6  SGN d 804       3.297  62.387 -15.430  0.00  0.00     0.067 C 
ATOM     70  O2S SGN d 804       3.585  62.308  -7.407  0.00  0.00    -0.296 OA
ATOM     71  C2  SGN d 804       3.687  61.963 -11.169  0.00  0.00     0.081 C 
ATOM     72  O4S SGN d 804       1.869  64.062 -17.675  0.00  0.00    -0.572 OA
ATOM     73  O4  SGN d 804       3.330  59.753 -14.166  0.00  0.00    -0.348 OA
ATOM     74  H   SGN d 804       6.134  62.825 -11.124  0.00  0.00     0.212 HD
ATOM     75  H   SGN d 804       4.897  61.860 -14.170  0.00  0.00     0.090 H 
ATOM     76  H   SGN d 804       4.192  64.034 -11.359  0.00  0.00     0.131 H 
ATOM     77  H   SGN d 804       5.338  61.659 -10.087  0.00  0.00     0.140 HD
ATOM     78  H   SGN d 804       2.127  61.137 -13.252  0.00  0.00     0.091 H 
ATOM     79  H   SGN d 804       3.725  64.472  -9.828  0.00  0.00     0.231 HD
ATOM     80  H   SGN d 804       3.242  58.821 -11.868  0.00  0.00     0.210 HD
ATOM     81  H   SGN d 804       5.922  63.879  -9.028  0.00  0.00     0.231 HD
ATOM     82  H   SGN d 804       4.842  60.442 -12.131  0.00  0.00     0.089 H 
ATOM     83  H   SGN d 804       3.333  61.492 -16.014  0.00  0.00     0.080 H 
ATOM     84  H   SGN d 804       3.879  63.151 -15.900  0.00  0.00     0.080 H 
ATOM     85  H   SGN d 804       2.706  61.966  -7.634  0.00  0.00     0.231 HD
ATOM     86  H   SGN d 804       2.655  62.197 -11.010  0.00  0.00     0.076 H 
ATOM     87  O5  UAP d 801      -3.349  51.503 -13.170  0.00  0.00    -0.311 OA
ATOM     88  O2  UAP d 801      -4.490  51.597 -10.568  0.00  0.00    -0.244 OA
ATOM     89  O1S UAP d 801      -5.213  50.288  -8.378  0.00  0.00    -0.572 OA
ATOM     90  O3S UAP d 801      -3.565  52.026  -8.119  0.00  0.00    -0.572 OA
ATOM     91  C1  UAP d 801      -2.834  52.354 -12.145  0.00  0.00     0.167 C 
ATOM     92  O2S UAP d 801      -5.866  52.600  -8.529  0.00  0.00    -0.572 OA
ATOM     93  C4  UAP d 801      -5.288  52.850 -13.293  0.00  0.00    -0.034 C 
ATOM     94  C3  UAP d 801      -5.090  53.447 -11.989  0.00  0.00     0.086 C 
ATOM     95  O62 UAP d 801      -3.963  50.562 -15.514  0.00  0.00    -0.642 OA
ATOM     96  S   UAP d 801      -4.797  51.629  -8.827  0.00  0.00     0.252 S 
ATOM     97  C6  UAP d 801      -4.727  51.424 -15.023  0.00  0.00     0.233 C 
ATOM     98  C2  UAP d 801      -3.971  52.756 -11.218  0.00  0.00     0.135 C 
ATOM     99  C5  UAP d 801      -4.450  51.934 -13.821  0.00  0.00     0.147 C 
ATOM    100  O61 UAP d 801      -5.754  51.806 -15.633  0.00  0.00    -0.642 OA
ATOM    101  O3  UAP d 801      -4.812  54.823 -12.131  0.00  0.00    -0.389 OA
ATOM    102  H   UAP d 801      -2.082  51.814 -11.608  0.00  0.00     0.134 H 
ATOM    103  H   UAP d 801      -6.111  53.138 -13.845  0.00  0.00     0.085 H 
ATOM    104  H   UAP d 801      -5.993  53.323 -11.427  0.00  0.00     0.093 H 
ATOM    105  H   UAP d 801      -3.586  53.441 -10.493  0.00  0.00     0.097 H 
ATOM    106  H   UAP d 801      -3.995  54.936 -12.640  0.00  0.00     0.210 HD
ENDROOT
TORSDOF 33
ENDMDL
MODEL 64
REMARK VINA RESULT:      -5.2      4.124      7.995
REMARK  0 active torsions:
REMARK  status: ('A' for Active; 'I' for Inactive)
REMARK       I    between atoms: C2_1  and  O2_62 
REMARK       I    between atoms: O3_2  and  C3_65 
REMARK       I    between atoms: O1_3  and  C1_15 
REMARK       I    between atoms: C5_5  and  C6_58 
REMARK       I    between atoms: C1_6  and  O4_70 
REMARK       I    between atoms: S_7  and  O2_62 
REMARK       I    between atoms: O2_9  and  C2_55 
REMARK       I    between atoms: O2_9  and  S_49 
REMARK       I    between atoms: O4_11  and  C1_28 
REMARK       I    between atoms: O4_11  and  C4_41 
REMARK       I    between atoms: O6_12  and  C6_58 
REMARK       I    between atoms: O6_12  and  S2_38 
REMARK       I    between atoms: S1_16  and  N_21 
REMARK       I    between atoms: S1_16  and  O1S_32 
REMARK       I    between atoms: S1_16  and  O2S_53 
REMARK       I    between atoms: S1_16  and  O3S_24 
REMARK       I    between atoms: N_18  and  C2_66 
REMARK       I    between atoms: N_18  and  S1_37 
REMARK       I    between atoms: C3_19  and  O3_27 
REMARK       I    between atoms: N_21  and  C2_31 
REMARK       I    between atoms: C4_22  and  O4_70 
REMARK       I    between atoms: C6_25  and  C5_46 
REMARK       I    between atoms: C6_25  and  O6_45 
REMARK       I    between atoms: O1_33  and  C1_51 
REMARK       I    between atoms: O1_33  and  C4_34 
REMARK       I    between atoms: O3S_35  and  S1_37 
REMARK       I    between atoms: S1_37  and  O1S_42 
REMARK       I    between atoms: S1_37  and  O2S_63 
REMARK       I    between atoms: O3_39  and  C3_54 
REMARK       I    between atoms: C6_40  and  C5_60 
REMARK       I    between atoms: C3_44  and  O3_64 
REMARK       I    between atoms: O6_45  and  S2_59 
REMARK       I    between atoms: C6_50  and  C5_56 
ROOT
ATOM      1  C2  IDS d 803       1.533  57.744 -16.473  0.00  0.00     0.134 C 
ATOM      2  C1  IDS d 803       1.756  58.594 -15.222  0.00  0.00     0.161 C 
ATOM      3  S   IDS d 803      -1.013  57.124 -17.345  0.00  0.00     0.252 S 
ATOM      4  O3S IDS d 803      -1.880  58.178 -16.782  0.00  0.00    -0.572 OA
ATOM      5  O5  IDS d 803       2.172  57.756 -14.131  0.00  0.00    -0.340 OA
ATOM      6  C3  IDS d 803       2.785  56.926 -16.788  0.00  0.00     0.094 C 
ATOM      7  O2S IDS d 803      -0.570  57.526 -18.693  0.00  0.00    -0.572 OA
ATOM      8  O3  IDS d 803       3.853  57.764 -17.173  0.00  0.00    -0.390 OA
ATOM      9  C4  IDS d 803       3.168  56.084 -15.572  0.00  0.00     0.103 C 
ATOM     10  C6  IDS d 803       3.688  56.203 -13.133  0.00  0.00     0.206 C 
ATOM     11  O61 IDS d 803       4.880  55.916 -12.884  0.00  0.00    -0.646 OA
ATOM     12  C5  IDS d 803       3.379  57.018 -14.378  0.00  0.00     0.152 C 
ATOM     13  O2  IDS d 803       0.397  56.899 -16.303  0.00  0.00    -0.244 OA
ATOM     14  O62 IDS d 803       2.744  55.870 -12.384  0.00  0.00    -0.646 OA
ATOM     15  O1S IDS d 803      -1.768  55.860 -17.430  0.00  0.00    -0.572 OA
ATOM     16  H   IDS d 803       1.342  58.394 -17.301  0.00  0.00     0.097 H 
ATOM     17  H   IDS d 803       0.833  59.058 -14.946  0.00  0.00     0.133 H 
ATOM     18  H   IDS d 803       2.572  56.274 -17.610  0.00  0.00     0.091 H 
ATOM     19  H   IDS d 803       4.069  58.368 -16.445  0.00  0.00     0.210 HD
ATOM     20  H   IDS d 803       4.067  55.542 -15.778  0.00  0.00     0.092 H 
ATOM     21  H   IDS d 803       4.190  57.680 -14.599  0.00  0.00     0.104 H 
ATOM     22  O3  SGN d 802      -0.936  52.277 -14.905  0.00  0.00    -0.391 OA
ATOM     23  O4  SGN d 802       0.413  52.078 -12.437  0.00  0.00    -0.348 OA
ATOM     24  S1  SGN d 802       0.484  53.399 -18.662  0.00  0.00     0.156 S 
ATOM     25  O5S SGN d 802       4.949  48.576 -13.384  0.00  0.00    -0.572 OA
ATOM     26  N   SGN d 802       0.283  53.807 -16.954  0.00  0.00    -0.210 NA
ATOM     27  O3S SGN d 802       1.723  54.018 -19.168  0.00  0.00    -0.296 OA
ATOM     28  C6  SGN d 802       3.356  52.102 -12.540  0.00  0.00     0.067 C 
ATOM     29  O5  SGN d 802       3.119  53.075 -14.715  0.00  0.00    -0.349 OA
ATOM     30  C2  SGN d 802       1.062  53.090 -15.967  0.00  0.00     0.081 C 
ATOM     31  O1S SGN d 802      -0.670  53.908 -19.425  0.00  0.00    -0.296 OA
ATOM     32  O1  SGN d 802       2.125  55.152 -15.273  0.00  0.00    -0.348 OA
ATOM     33  C4  SGN d 802       1.126  52.179 -13.671  0.00  0.00     0.095 C 
ATOM     34  O6  SGN d 802       3.690  50.893 -13.218  0.00  0.00    -0.254 OA
ATOM     35  C5  SGN d 802       2.450  52.916 -13.452  0.00  0.00     0.091 C 
ATOM     36  O4S SGN d 802       4.152  49.236 -11.203  0.00  0.00    -0.572 OA
ATOM     37  C1  SGN d 802       2.382  53.812 -15.702  0.00  0.00     0.150 C 
ATOM     38  O6S SGN d 802       6.063  50.344 -12.182  0.00  0.00    -0.572 OA
ATOM     39  O2S SGN d 802       0.570  51.934 -18.812  0.00  0.00    -0.296 OA
ATOM     40  S2  SGN d 802       4.759  49.712 -12.463  0.00  0.00     0.251 S 
ATOM     41  C3  SGN d 802       0.277  52.956 -14.669  0.00  0.00     0.083 C 
ATOM     42  H   SGN d 802      -1.469  52.779 -15.542  0.00  0.00     0.210 HD
ATOM     43  H   SGN d 802      -0.700  53.659 -16.724  0.00  0.00     0.140 HD
ATOM     44  H   SGN d 802       1.666  54.981 -19.069  0.00  0.00     0.231 HD
ATOM     45  H   SGN d 802       2.845  51.876 -11.627  0.00  0.00     0.080 H 
ATOM     46  H   SGN d 802       4.242  52.653 -12.306  0.00  0.00     0.080 H 
ATOM     47  H   SGN d 802       1.273  52.113 -16.350  0.00  0.00     0.076 H 
ATOM     48  H   SGN d 802      -1.484  53.499 -19.091  0.00  0.00     0.231 HD
ATOM     49  H   SGN d 802       1.329  51.198 -14.047  0.00  0.00     0.091 H 
ATOM     50  H   SGN d 802       2.246  53.868 -13.008  0.00  0.00     0.090 H 
ATOM     51  H   SGN d 802       2.966  53.866 -16.598  0.00  0.00     0.131 H 
ATOM     52  H   SGN d 802      -0.245  51.526 -18.480  0.00  0.00     0.231 HD
ATOM     53  H   SGN d 802       0.049  53.925 -14.278  0.00  0.00     0.089 H 
ATOM     54  O1  SGN d 804       4.768  63.482 -14.237  0.00  0.00    -0.369 OA
ATOM     55  C5  SGN d 804       2.505  62.063 -15.340  0.00  0.00     0.091 C 
ATOM     56  O6  SGN d 804       0.101  62.114 -15.599  0.00  0.00    -0.254 OA
ATOM     57  O6S SGN d 804      -2.529  62.475 -15.570  0.00  0.00    -0.572 OA
ATOM     58  C1  SGN d 804       3.553  63.252 -13.521  0.00  0.00     0.147 C 
ATOM     59  N   SGN d 804       4.832  62.008 -11.855  0.00  0.00    -0.210 NA
ATOM     60  C4  SGN d 804       2.554  60.747 -14.563  0.00  0.00     0.095 C 
ATOM     61  O5S SGN d 804      -1.667  60.841 -17.115  0.00  0.00    -0.572 OA
ATOM     62  O3S SGN d 804       3.672  63.916 -10.419  0.00  0.00    -0.296 OA
ATOM     63  S1  SGN d 804       4.924  63.137 -10.497  0.00  0.00     0.156 S 
ATOM     64  S2  SGN d 804      -1.425  62.157 -16.494  0.00  0.00     0.251 S 
ATOM     65  O3  SGN d 804       3.812  59.580 -12.875  0.00  0.00    -0.391 OA
ATOM     66  O1S SGN d 804       6.062  64.053 -10.699  0.00  0.00    -0.296 OA
ATOM     67  O5  SGN d 804       2.432  63.161 -14.415  0.00  0.00    -0.350 OA
ATOM     68  C3  SGN d 804       3.763  60.768 -13.634  0.00  0.00     0.083 C 
ATOM     69  C6  SGN d 804       1.333  62.107 -16.316  0.00  0.00     0.067 C 
ATOM     70  O2S SGN d 804       5.115  62.388  -9.240  0.00  0.00    -0.296 OA
ATOM     71  C2  SGN d 804       3.655  61.966 -12.700  0.00  0.00     0.081 C 
ATOM     72  O4S SGN d 804      -1.350  63.187 -17.546  0.00  0.00    -0.572 OA
ATOM     73  O4  SGN d 804       2.680  59.654 -15.475  0.00  0.00    -0.348 OA
ATOM     74  H   SGN d 804       5.506  63.539 -13.610  0.00  0.00     0.212 HD
ATOM     75  H   SGN d 804       3.400  62.140 -15.922  0.00  0.00     0.090 H 
ATOM     76  H   SGN d 804       3.400  64.084 -12.865  0.00  0.00     0.131 H 
ATOM     77  H   SGN d 804       5.622  62.220 -12.464  0.00  0.00     0.140 HD
ATOM     78  H   SGN d 804       1.655  60.631 -13.994  0.00  0.00     0.091 H 
ATOM     79  H   SGN d 804       3.546  64.409 -11.245  0.00  0.00     0.231 HD
ATOM     80  H   SGN d 804       3.882  58.818 -13.471  0.00  0.00     0.210 HD
ATOM     81  H   SGN d 804       5.938  64.546 -11.525  0.00  0.00     0.231 HD
ATOM     82  H   SGN d 804       4.658  60.842 -14.218  0.00  0.00     0.089 H 
ATOM     83  H   SGN d 804       1.369  61.247 -16.951  0.00  0.00     0.080 H 
ATOM     84  H   SGN d 804       1.402  62.998 -16.906  0.00  0.00     0.080 H 
ATOM     85  H   SGN d 804       4.367  61.785  -9.106  0.00  0.00     0.231 HD
ATOM     86  H   SGN d 804       2.779  61.877 -12.092  0.00  0.00     0.076 H 
ATOM     87  O5  UAP d 801      -0.172  49.790 -12.609  0.00  0.00    -0.311 OA
ATOM     88  O2  UAP d 801      -0.031  49.616  -9.775  0.00  0.00    -0.244 OA
ATOM     89  O1S UAP d 801       0.693  48.222  -7.638  0.00  0.00    -0.572 OA
ATOM     90  O3S UAP d 801       1.704  50.389  -7.924  0.00  0.00    -0.572 OA
ATOM     91  C1  UAP d 801       0.468  50.792 -11.817  0.00  0.00     0.167 C 
ATOM     92  O2S UAP d 801      -0.600  50.215  -7.250  0.00  0.00    -0.572 OA
ATOM     93  C4  UAP d 801      -2.267  50.471 -11.750  0.00  0.00    -0.034 C 
ATOM     94  C3  UAP d 801      -1.701  51.143 -10.599  0.00  0.00     0.086 C 
ATOM     95  O62 UAP d 801      -1.449  48.627 -14.553  0.00  0.00    -0.642 OA
ATOM     96  S   UAP d 801       0.461  49.610  -8.077  0.00  0.00     0.252 S 
ATOM     97  C6  UAP d 801      -2.134  49.229 -13.694  0.00  0.00     0.233 C 
ATOM     98  C2  UAP d 801      -0.210  50.856 -10.457  0.00  0.00     0.135 C 
ATOM     99  C5  UAP d 801      -1.519  49.839 -12.679  0.00  0.00     0.147 C 
ATOM    100  O61 UAP d 801      -3.385  49.257 -13.764  0.00  0.00    -0.642 OA
ATOM    101  O3  UAP d 801      -1.926  52.532 -10.699  0.00  0.00    -0.389 OA
ATOM    102  H   UAP d 801       1.499  50.526 -11.713  0.00  0.00     0.134 H 
ATOM    103  H   UAP d 801      -3.293  50.474 -11.864  0.00  0.00     0.085 H 
ATOM    104  H   UAP d 801      -2.187  50.767  -9.723  0.00  0.00     0.093 H 
ATOM    105  H   UAP d 801       0.236  51.650  -9.897  0.00  0.00     0.097 H 
ATOM    106  H   UAP d 801      -1.486  52.874 -11.493  0.00  0.00     0.210 HD
ENDROOT
TORSDOF 33
ENDMDL
MODEL 65
REMARK VINA RESULT:      -5.2      4.207      7.807
REMARK  0 active torsions:
REMARK  status: ('A' for Active; 'I' for Inactive)
REMARK       I    between atoms: C2_1  and  O2_62 
REMARK       I    between atoms: O3_2  and  C3_65 
REMARK       I    between atoms: O1_3  and  C1_15 
REMARK       I    between atoms: C5_5  and  C6_58 
REMARK       I    between atoms: C1_6  and  O4_70 
REMARK       I    between atoms: S_7  and  O2_62 
REMARK       I    between atoms: O2_9  and  C2_55 
REMARK       I    between atoms: O2_9  and  S_49 
REMARK       I    between atoms: O4_11  and  C1_28 
REMARK       I    between atoms: O4_11  and  C4_41 
REMARK       I    between atoms: O6_12  and  C6_58 
REMARK       I    between atoms: O6_12  and  S2_38 
REMARK       I    between atoms: S1_16  and  N_21 
REMARK       I    between atoms: S1_16  and  O1S_32 
REMARK       I    between atoms: S1_16  and  O2S_53 
REMARK       I    between atoms: S1_16  and  O3S_24 
REMARK       I    between atoms: N_18  and  C2_66 
REMARK       I    between atoms: N_18  and  S1_37 
REMARK       I    between atoms: C3_19  and  O3_27 
REMARK       I    between atoms: N_21  and  C2_31 
REMARK       I    between atoms: C4_22  and  O4_70 
REMARK       I    between atoms: C6_25  and  C5_46 
REMARK       I    between atoms: C6_25  and  O6_45 
REMARK       I    between atoms: O1_33  and  C1_51 
REMARK       I    between atoms: O1_33  and  C4_34 
REMARK       I    between atoms: O3S_35  and  S1_37 
REMARK       I    between atoms: S1_37  and  O1S_42 
REMARK       I    between atoms: S1_37  and  O2S_63 
REMARK       I    between atoms: O3_39  and  C3_54 
REMARK       I    between atoms: C6_40  and  C5_60 
REMARK       I    between atoms: C3_44  and  O3_64 
REMARK       I    between atoms: O6_45  and  S2_59 
REMARK       I    between atoms: C6_50  and  C5_56 
ROOT
ATOM      1  C2  IDS d 803       0.701  58.080 -16.287  0.00  0.00     0.134 C 
ATOM      2  C1  IDS d 803       1.063  58.921 -15.063  0.00  0.00     0.161 C 
ATOM      3  S   IDS d 803      -1.882  58.006 -17.260  0.00  0.00     0.252 S 
ATOM      4  O3S IDS d 803      -2.508  59.257 -16.787  0.00  0.00    -0.572 OA
ATOM      5  O5  IDS d 803       1.232  58.070 -13.918  0.00  0.00    -0.340 OA
ATOM      6  C3  IDS d 803       1.745  56.984 -16.504  0.00  0.00     0.094 C 
ATOM      7  O2S IDS d 803      -1.305  58.227 -18.600  0.00  0.00    -0.572 OA
ATOM      8  O3  IDS d 803       2.991  57.539 -16.869  0.00  0.00    -0.390 OA
ATOM      9  C4  IDS d 803       1.878  56.143 -15.235  0.00  0.00     0.103 C 
ATOM     10  C6  IDS d 803       2.313  56.268 -12.780  0.00  0.00     0.206 C 
ATOM     11  O61 IDS d 803       3.397  55.733 -12.459  0.00  0.00    -0.646 OA
ATOM     12  C5  IDS d 803       2.248  57.066 -14.072  0.00  0.00     0.152 C 
ATOM     13  O2  IDS d 803      -0.603  57.523 -16.139  0.00  0.00    -0.244 OA
ATOM     14  O62 IDS d 803       1.289  56.196 -12.067  0.00  0.00    -0.646 OA
ATOM     15  O1S IDS d 803      -2.901  56.943 -17.331  0.00  0.00    -0.572 OA
ATOM     16  H   IDS d 803       0.697  58.712 -17.150  0.00  0.00     0.097 H 
ATOM     17  H   IDS d 803       0.259  59.596 -14.853  0.00  0.00     0.133 H 
ATOM     18  H   IDS d 803       1.422  56.355 -17.307  0.00  0.00     0.091 H 
ATOM     19  H   IDS d 803       3.310  58.115 -16.156  0.00  0.00     0.210 HD
ATOM     20  H   IDS d 803       2.636  55.401 -15.372  0.00  0.00     0.092 H 
ATOM     21  H   IDS d 803       3.197  57.515 -14.280  0.00  0.00     0.104 H 
ATOM     22  O3  SGN d 802      -3.010  53.401 -14.619  0.00  0.00    -0.391 OA
ATOM     23  O4  SGN d 802      -1.842  53.033 -12.080  0.00  0.00    -0.348 OA
ATOM     24  S1  SGN d 802      -1.223  53.976 -18.342  0.00  0.00     0.156 S 
ATOM     25  O5S SGN d 802       1.810  48.551 -12.647  0.00  0.00    -0.572 OA
ATOM     26  N   SGN d 802      -1.394  54.508 -16.665  0.00  0.00    -0.210 NA
ATOM     27  O3S SGN d 802       0.144  54.272 -18.810  0.00  0.00    -0.296 OA
ATOM     28  C6  SGN d 802       1.031  52.385 -12.034  0.00  0.00     0.067 C 
ATOM     29  O5  SGN d 802       1.108  53.271 -14.256  0.00  0.00    -0.349 OA
ATOM     30  C2  SGN d 802      -0.838  53.685 -15.612  0.00  0.00     0.081 C 
ATOM     31  O1S SGN d 802      -2.199  54.691 -19.184  0.00  0.00    -0.296 OA
ATOM     32  O1  SGN d 802       0.638  55.487 -14.951  0.00  0.00    -0.348 OA
ATOM     33  C4  SGN d 802      -1.076  52.905 -13.279  0.00  0.00     0.095 C 
ATOM     34  O6  SGN d 802       1.107  51.098 -12.643  0.00  0.00    -0.254 OA
ATOM     35  C5  SGN d 802       0.372  53.334 -13.024  0.00  0.00     0.091 C 
ATOM     36  O4S SGN d 802       1.098  49.487 -10.540  0.00  0.00    -0.572 OA
ATOM     37  C1  SGN d 802       0.600  54.103 -15.310  0.00  0.00     0.150 C 
ATOM     38  O6S SGN d 802       3.248  50.082 -11.466  0.00  0.00    -0.572 OA
ATOM     39  O2S SGN d 802      -1.467  52.523 -18.427  0.00  0.00    -0.296 OA
ATOM     40  S2  SGN d 802       1.847  49.747 -11.786  0.00  0.00     0.251 S 
ATOM     41  C3  SGN d 802      -1.685  53.800 -14.351  0.00  0.00     0.083 C 
ATOM     42  H   SGN d 802      -3.389  53.977 -15.302  0.00  0.00     0.210 HD
ATOM     43  H   SGN d 802      -2.393  54.597 -16.480  0.00  0.00     0.140 HD
ATOM     44  H   SGN d 802       0.304  55.227 -18.755  0.00  0.00     0.231 HD
ATOM     45  H   SGN d 802       0.446  52.329 -11.140  0.00  0.00     0.080 H 
ATOM     46  H   SGN d 802       2.009  52.734 -11.779  0.00  0.00     0.080 H 
ATOM     47  H   SGN d 802      -0.841  52.668 -15.942  0.00  0.00     0.076 H 
ATOM     48  H   SGN d 802      -3.098  54.496 -18.875  0.00  0.00     0.231 HD
ATOM     49  H   SGN d 802      -1.087  51.885 -13.603  0.00  0.00     0.091 H 
ATOM     50  H   SGN d 802       0.372  54.330 -12.631  0.00  0.00     0.090 H 
ATOM     51  H   SGN d 802       1.216  53.977 -16.176  0.00  0.00     0.131 H 
ATOM     52  H   SGN d 802      -2.367  52.328 -18.119  0.00  0.00     0.231 HD
ATOM     53  H   SGN d 802      -1.701  54.815 -14.013  0.00  0.00     0.089 H 
ATOM     54  O1  SGN d 804       5.068  63.047 -14.131  0.00  0.00    -0.369 OA
ATOM     55  C5  SGN d 804       2.587  62.120 -15.288  0.00  0.00     0.091 C 
ATOM     56  O6  SGN d 804       0.270  62.700 -15.670  0.00  0.00    -0.254 OA
ATOM     57  O6S SGN d 804      -2.207  63.647 -15.790  0.00  0.00    -0.572 OA
ATOM     58  C1  SGN d 804       3.805  63.136 -13.469  0.00  0.00     0.147 C 
ATOM     59  N   SGN d 804       4.699  61.723 -11.689  0.00  0.00    -0.210 NA
ATOM     60  C4  SGN d 804       2.303  60.870 -14.455  0.00  0.00     0.095 C 
ATOM     61  O5S SGN d 804      -1.680  61.781 -17.220  0.00  0.00    -0.572 OA
ATOM     62  O3S SGN d 804       3.948  63.916 -10.396  0.00  0.00    -0.296 OA
ATOM     63  S1  SGN d 804       4.992  62.872 -10.377  0.00  0.00     0.156 S 
ATOM     64  S2  SGN d 804      -1.169  63.039 -16.643  0.00  0.00     0.251 S 
ATOM     65  O3  SGN d 804       3.194  59.539 -12.658  0.00  0.00    -0.391 OA
ATOM     66  O1S SGN d 804       6.316  63.495 -10.559  0.00  0.00    -0.296 OA
ATOM     67  O5  SGN d 804       2.729  63.253 -14.414  0.00  0.00    -0.350 OA
ATOM     68  C3  SGN d 804       3.448  60.665 -13.467  0.00  0.00     0.083 C 
ATOM     69  C6  SGN d 804       1.496  62.377 -16.323  0.00  0.00     0.067 C 
ATOM     70  O2S SGN d 804       4.957  62.166  -9.082  0.00  0.00    -0.296 OA
ATOM     71  C2  SGN d 804       3.578  61.904 -12.591  0.00  0.00     0.081 C 
ATOM     72  O4S SGN d 804      -0.819  63.970 -17.732  0.00  0.00    -0.572 OA
ATOM     73  O4  SGN d 804       2.213  59.731 -15.312  0.00  0.00    -0.348 OA
ATOM     74  H   SGN d 804       5.774  62.969 -13.471  0.00  0.00     0.212 HD
ATOM     75  H   SGN d 804       3.498  61.963 -15.826  0.00  0.00     0.090 H 
ATOM     76  H   SGN d 804       3.820  64.014 -12.858  0.00  0.00     0.131 H 
ATOM     77  H   SGN d 804       5.540  61.719 -12.266  0.00  0.00     0.140 HD
ATOM     78  H   SGN d 804       1.380  60.990 -13.928  0.00  0.00     0.091 H 
ATOM     79  H   SGN d 804       3.971  64.381 -11.247  0.00  0.00     0.231 HD
ATOM     80  H   SGN d 804       3.112  58.750 -13.217  0.00  0.00     0.210 HD
ATOM     81  H   SGN d 804       6.341  63.960 -11.410  0.00  0.00     0.231 HD
ATOM     82  H   SGN d 804       4.358  60.505 -14.008  0.00  0.00     0.089 H 
ATOM     83  H   SGN d 804       1.360  61.500 -16.919  0.00  0.00     0.080 H 
ATOM     84  H   SGN d 804       1.789  63.197 -16.945  0.00  0.00     0.080 H 
ATOM     85  H   SGN d 804       4.086  61.756  -8.961  0.00  0.00     0.231 HD
ATOM     86  H   SGN d 804       2.681  62.047 -12.025  0.00  0.00     0.076 H 
ATOM     87  O5  UAP d 801      -2.926  50.930 -12.185  0.00  0.00    -0.311 OA
ATOM     88  O2  UAP d 801      -2.942  50.876  -9.343  0.00  0.00    -0.244 OA
ATOM     89  O1S UAP d 801      -2.641  49.469  -7.115  0.00  0.00    -0.572 OA
ATOM     90  O3S UAP d 801      -1.152  51.334  -7.440  0.00  0.00    -0.572 OA
ATOM     91  C1  UAP d 801      -2.107  51.801 -11.404  0.00  0.00     0.167 C 
ATOM     92  O2S UAP d 801      -3.460  51.720  -6.877  0.00  0.00    -0.572 OA
ATOM     93  C4  UAP d 801      -4.844  52.110 -11.463  0.00  0.00    -0.034 C 
ATOM     94  C3  UAP d 801      -4.185  52.697 -10.314  0.00  0.00     0.086 C 
ATOM     95  O62 UAP d 801      -4.355  49.986 -14.141  0.00  0.00    -0.642 OA
ATOM     96  S   UAP d 801      -2.532  50.849  -7.623  0.00  0.00     0.252 S 
ATOM     97  C6  UAP d 801      -4.919  50.771 -13.344  0.00  0.00     0.233 C 
ATOM     98  C2  UAP d 801      -2.806  52.088 -10.084  0.00  0.00     0.135 C 
ATOM     99  C5  UAP d 801      -4.223  51.279 -12.325  0.00  0.00     0.147 C 
ATOM    100  O61 UAP d 801      -6.127  51.077 -13.478  0.00  0.00    -0.642 OA
ATOM    101  O3  UAP d 801      -4.083  54.093 -10.483  0.00  0.00    -0.389 OA
ATOM    102  H   UAP d 801      -1.168  51.315 -11.237  0.00  0.00     0.134 H 
ATOM    103  H   UAP d 801      -5.836  52.339 -11.629  0.00  0.00     0.085 H 
ATOM    104  H   UAP d 801      -4.778  52.486  -9.449  0.00  0.00     0.093 H 
ATOM    105  H   UAP d 801      -2.214  52.788  -9.536  0.00  0.00     0.097 H 
ATOM    106  H   UAP d 801      -3.546  54.285 -11.268  0.00  0.00     0.210 HD
ENDROOT
TORSDOF 33
ENDMDL
MODEL 66
REMARK VINA RESULT:      -5.1      3.904     10.259
REMARK  0 active torsions:
REMARK  status: ('A' for Active; 'I' for Inactive)
REMARK       I    between atoms: C2_1  and  O2_62 
REMARK       I    between atoms: O3_2  and  C3_65 
REMARK       I    between atoms: O1_3  and  C1_15 
REMARK       I    between atoms: C5_5  and  C6_58 
REMARK       I    between atoms: C1_6  and  O4_70 
REMARK       I    between atoms: S_7  and  O2_62 
REMARK       I    between atoms: O2_9  and  C2_55 
REMARK       I    between atoms: O2_9  and  S_49 
REMARK       I    between atoms: O4_11  and  C1_28 
REMARK       I    between atoms: O4_11  and  C4_41 
REMARK       I    between atoms: O6_12  and  C6_58 
REMARK       I    between atoms: O6_12  and  S2_38 
REMARK       I    between atoms: S1_16  and  N_21 
REMARK       I    between atoms: S1_16  and  O1S_32 
REMARK       I    between atoms: S1_16  and  O2S_53 
REMARK       I    between atoms: S1_16  and  O3S_24 
REMARK       I    between atoms: N_18  and  C2_66 
REMARK       I    between atoms: N_18  and  S1_37 
REMARK       I    between atoms: C3_19  and  O3_27 
REMARK       I    between atoms: N_21  and  C2_31 
REMARK       I    between atoms: C4_22  and  O4_70 
REMARK       I    between atoms: C6_25  and  C5_46 
REMARK       I    between atoms: C6_25  and  O6_45 
REMARK       I    between atoms: O1_33  and  C1_51 
REMARK       I    between atoms: O1_33  and  C4_34 
REMARK       I    between atoms: O3S_35  and  S1_37 
REMARK       I    between atoms: S1_37  and  O1S_42 
REMARK       I    between atoms: S1_37  and  O2S_63 
REMARK       I    between atoms: O3_39  and  C3_54 
REMARK       I    between atoms: C6_40  and  C5_60 
REMARK       I    between atoms: C3_44  and  O3_64 
REMARK       I    between atoms: O6_45  and  S2_59 
REMARK       I    between atoms: C6_50  and  C5_56 
ROOT
ATOM      1  C2  IDS d 803      -1.259  54.692 -11.531  0.00  0.00     0.134 C 
ATOM      2  C1  IDS d 803      -0.272  53.688 -12.127  0.00  0.00     0.161 C 
ATOM      3  S   IDS d 803      -3.724  55.136 -12.693  0.00  0.00     0.252 S 
ATOM      4  O3S IDS d 803      -4.012  53.911 -13.465  0.00  0.00    -0.572 OA
ATOM      5  O5  IDS d 803       0.781  54.387 -12.811  0.00  0.00    -0.340 OA
ATOM      6  C3  IDS d 803      -0.524  55.693 -10.639  0.00  0.00     0.094 C 
ATOM      7  O2S IDS d 803      -4.302  55.007 -11.342  0.00  0.00    -0.572 OA
ATOM      8  O3  IDS d 803      -0.001  55.058  -9.492  0.00  0.00    -0.390 OA
ATOM      9  C4  IDS d 803       0.589  56.372 -11.437  0.00  0.00     0.103 C 
ATOM     10  C6  IDS d 803       2.603  55.933 -12.846  0.00  0.00     0.206 C 
ATOM     11  O61 IDS d 803       3.660  56.315 -12.300  0.00  0.00    -0.646 OA
ATOM     12  C5  IDS d 803       1.527  55.293 -11.983  0.00  0.00     0.152 C 
ATOM     13  O2  IDS d 803      -1.975  55.360 -12.568  0.00  0.00    -0.244 OA
ATOM     14  O62 IDS d 803       2.406  56.029 -14.077  0.00  0.00    -0.646 OA
ATOM     15  O1S IDS d 803      -4.321  56.299 -13.376  0.00  0.00    -0.572 OA
ATOM     16  H   IDS d 803      -1.965  54.163 -10.927  0.00  0.00     0.097 H 
ATOM     17  H   IDS d 803      -0.782  53.080 -12.844  0.00  0.00     0.133 H 
ATOM     18  H   IDS d 803      -1.219  56.437 -10.310  0.00  0.00     0.091 H 
ATOM     19  H   IDS d 803       0.636  54.377  -9.761  0.00  0.00     0.210 HD
ATOM     20  H   IDS d 803       1.129  57.043 -10.804  0.00  0.00     0.092 H 
ATOM     21  H   IDS d 803       1.971  54.775 -11.159  0.00  0.00     0.104 H 
ATOM     22  O3  SGN d 802      -1.953  59.512 -15.370  0.00  0.00    -0.391 OA
ATOM     23  O4  SGN d 802       0.702  59.477 -16.316  0.00  0.00    -0.348 OA
ATOM     24  S1  SGN d 802      -3.426  59.172 -11.483  0.00  0.00     0.156 S 
ATOM     25  O5S SGN d 802       3.506  63.599 -13.334  0.00  0.00    -0.572 OA
ATOM     26  N   SGN d 802      -2.442  58.479 -12.777  0.00  0.00    -0.210 NA
ATOM     27  O3S SGN d 802      -2.853  58.792 -10.179  0.00  0.00    -0.296 OA
ATOM     28  C6  SGN d 802       2.823  59.820 -14.302  0.00  0.00     0.067 C 
ATOM     29  O5  SGN d 802       1.177  59.181 -12.685  0.00  0.00    -0.349 OA
ATOM     30  C2  SGN d 802      -1.190  59.119 -13.123  0.00  0.00     0.081 C 
ATOM     31  O1S SGN d 802      -4.803  58.657 -11.586  0.00  0.00    -0.296 OA
ATOM     32  O1  SGN d 802       0.029  57.115 -12.524  0.00  0.00    -0.348 OA
ATOM     33  C4  SGN d 802       0.406  59.658 -14.930  0.00  0.00     0.095 C 
ATOM     34  O6  SGN d 802       2.639  61.152 -13.827  0.00  0.00    -0.254 OA
ATOM     35  C5  SGN d 802       1.526  59.058 -14.074  0.00  0.00     0.091 C 
ATOM     36  O4S SGN d 802       4.358  62.513 -15.314  0.00  0.00    -0.572 OA
ATOM     37  C1  SGN d 802      -0.044  58.527 -12.306  0.00  0.00     0.150 C 
ATOM     38  O6S SGN d 802       5.106  61.808 -13.128  0.00  0.00    -0.572 OA
ATOM     39  O2S SGN d 802      -3.437  60.643 -11.605  0.00  0.00    -0.296 OA
ATOM     40  S2  SGN d 802       3.959  62.317 -13.905  0.00  0.00     0.251 S 
ATOM     41  C3  SGN d 802      -0.905  58.953 -14.610  0.00  0.00     0.083 C 
ATOM     42  H   SGN d 802      -2.784  59.057 -15.158  0.00  0.00     0.210 HD
ATOM     43  H   SGN d 802      -3.017  58.472 -13.619  0.00  0.00     0.140 HD
ATOM     44  H   SGN d 802      -2.846  57.826 -10.099  0.00  0.00     0.231 HD
ATOM     45  H   SGN d 802       3.056  59.836 -15.346  0.00  0.00     0.080 H 
ATOM     46  H   SGN d 802       3.628  59.347 -13.781  0.00  0.00     0.080 H 
ATOM     47  H   SGN d 802      -1.272  60.162 -12.898  0.00  0.00     0.076 H 
ATOM     48  H   SGN d 802      -5.179  58.909 -12.445  0.00  0.00     0.231 HD
ATOM     49  H   SGN d 802       0.324  60.703 -14.717  0.00  0.00     0.091 H 
ATOM     50  H   SGN d 802       1.653  58.030 -14.344  0.00  0.00     0.090 H 
ATOM     51  H   SGN d 802      -0.209  58.684 -11.260  0.00  0.00     0.131 H 
ATOM     52  H   SGN d 802      -3.814  60.893 -12.463  0.00  0.00     0.231 HD
ATOM     53  H   SGN d 802      -0.830  57.914 -14.853  0.00  0.00     0.089 H 
ATOM     54  O1  SGN d 804       2.542  49.099  -9.902  0.00  0.00    -0.369 OA
ATOM     55  C5  SGN d 804       0.146  50.395 -10.867  0.00  0.00     0.091 C 
ATOM     56  O6  SGN d 804      -1.816  50.101 -12.249  0.00  0.00    -0.254 OA
ATOM     57  O6S SGN d 804      -3.760  49.430 -13.929  0.00  0.00    -0.572 OA
ATOM     58  C1  SGN d 804       2.120  49.067 -11.267  0.00  0.00     0.147 C 
ATOM     59  N   SGN d 804       4.207  50.176 -11.882  0.00  0.00    -0.210 NA
ATOM     60  C4  SGN d 804       0.725  51.568 -11.658  0.00  0.00     0.095 C 
ATOM     61  O5S SGN d 804      -4.123  51.378 -12.559  0.00  0.00    -0.572 OA
ATOM     62  O3S SGN d 804       4.269  47.941 -13.314  0.00  0.00    -0.296 OA
ATOM     63  S1  SGN d 804       5.163  48.865 -12.587  0.00  0.00     0.156 S 
ATOM     64  S2  SGN d 804      -3.550  50.019 -12.593  0.00  0.00     0.251 S 
ATOM     65  O3  SGN d 804       2.809  52.596 -12.288  0.00  0.00    -0.391 OA
ATOM     66  O1S SGN d 804       5.858  48.135 -11.512  0.00  0.00    -0.296 OA
ATOM     67  O5  SGN d 804       0.691  49.165 -11.372  0.00  0.00    -0.350 OA
ATOM     68  C3  SGN d 804       2.245  51.545 -11.535  0.00  0.00     0.083 C 
ATOM     69  C6  SGN d 804      -1.378  50.367 -10.919  0.00  0.00     0.067 C 
ATOM     70  O2S SGN d 804       6.157  49.424 -13.523  0.00  0.00    -0.296 OA
ATOM     71  C2  SGN d 804       2.767  50.211 -12.050  0.00  0.00     0.081 C 
ATOM     72  O4S SGN d 804      -4.215  49.184 -11.576  0.00  0.00    -0.572 OA
ATOM     73  O4  SGN d 804       0.229  52.799 -11.127  0.00  0.00    -0.348 OA
ATOM     74  H   SGN d 804       3.509  49.031  -9.861  0.00  0.00     0.212 HD
ATOM     75  H   SGN d 804       0.422  50.518  -9.840  0.00  0.00     0.090 H 
ATOM     76  H   SGN d 804       2.430  48.130 -11.681  0.00  0.00     0.131 H 
ATOM     77  H   SGN d 804       4.383  50.158 -10.878  0.00  0.00     0.140 HD
ATOM     78  H   SGN d 804       0.438  51.485 -12.686  0.00  0.00     0.091 H 
ATOM     79  H   SGN d 804       3.615  47.573 -12.699  0.00  0.00     0.231 HD
ATOM     80  H   SGN d 804       2.475  53.445 -11.958  0.00  0.00     0.210 HD
ATOM     81  H   SGN d 804       5.206  47.766 -10.896  0.00  0.00     0.231 HD
ATOM     82  H   SGN d 804       2.518  51.671 -10.507  0.00  0.00     0.089 H 
ATOM     83  H   SGN d 804      -1.761  51.314 -10.602  0.00  0.00     0.080 H 
ATOM     84  H   SGN d 804      -1.737  49.595 -10.270  0.00  0.00     0.080 H 
ATOM     85  H   SGN d 804       5.701  49.905 -14.231  0.00  0.00     0.231 HD
ATOM     86  H   SGN d 804       2.523  50.098 -13.085  0.00  0.00     0.076 H 
ATOM     87  O5  UAP d 801       0.192  61.679 -17.026  0.00  0.00    -0.311 OA
ATOM     88  O2  UAP d 801       2.193  61.419 -19.028  0.00  0.00    -0.244 OA
ATOM     89  O1S UAP d 801       4.183  62.535 -20.381  0.00  0.00    -0.572 OA
ATOM     90  O3S UAP d 801       4.707  60.575 -19.082  0.00  0.00    -0.572 OA
ATOM     91  C1  UAP d 801       1.180  60.647 -16.984  0.00  0.00     0.167 C 
ATOM     92  O2S UAP d 801       3.445  60.366 -21.122  0.00  0.00    -0.572 OA
ATOM     93  C4  UAP d 801      -0.805  60.627 -18.895  0.00  0.00    -0.034 C 
ATOM     94  C3  UAP d 801       0.373  59.853 -19.227  0.00  0.00     0.086 C 
ATOM     95  O62 UAP d 801      -2.036  62.973 -16.680  0.00  0.00    -0.642 OA
ATOM     96  S   UAP d 801       3.693  61.215 -19.941  0.00  0.00     0.252 S 
ATOM     97  C6  UAP d 801      -1.983  62.166 -17.637  0.00  0.00     0.233 C 
ATOM     98  C2  UAP d 801       1.582  60.290 -18.407  0.00  0.00     0.135 C 
ATOM     99  C5  UAP d 801      -0.858  61.481 -17.851  0.00  0.00     0.147 C 
ATOM    100  O61 UAP d 801      -2.961  62.002 -18.404  0.00  0.00    -0.642 OA
ATOM    101  O3  UAP d 801       0.115  58.481 -19.029  0.00  0.00    -0.389 OA
ATOM    102  H   UAP d 801       2.021  61.014 -16.434  0.00  0.00     0.134 H 
ATOM    103  H   UAP d 801      -1.645  60.520 -19.485  0.00  0.00     0.085 H 
ATOM    104  H   UAP d 801       0.604  60.027 -20.258  0.00  0.00     0.093 H 
ATOM    105  H   UAP d 801       2.275  59.476 -18.365  0.00  0.00     0.097 H 
ATOM    106  H   UAP d 801      -0.094  58.323 -18.095  0.00  0.00     0.210 HD
ENDROOT
TORSDOF 33
ENDMDL
MODEL 67
REMARK VINA RESULT:      -5.1      3.952     10.698
REMARK  0 active torsions:
REMARK  status: ('A' for Active; 'I' for Inactive)
REMARK       I    between atoms: C2_1  and  O2_62 
REMARK       I    between atoms: O3_2  and  C3_65 
REMARK       I    between atoms: O1_3  and  C1_15 
REMARK       I    between atoms: C5_5  and  C6_58 
REMARK       I    between atoms: C1_6  and  O4_70 
REMARK       I    between atoms: S_7  and  O2_62 
REMARK       I    between atoms: O2_9  and  C2_55 
REMARK       I    between atoms: O2_9  and  S_49 
REMARK       I    between atoms: O4_11  and  C1_28 
REMARK       I    between atoms: O4_11  and  C4_41 
REMARK       I    between atoms: O6_12  and  C6_58 
REMARK       I    between atoms: O6_12  and  S2_38 
REMARK       I    between atoms: S1_16  and  N_21 
REMARK       I    between atoms: S1_16  and  O1S_32 
REMARK       I    between atoms: S1_16  and  O2S_53 
REMARK       I    between atoms: S1_16  and  O3S_24 
REMARK       I    between atoms: N_18  and  C2_66 
REMARK       I    between atoms: N_18  and  S1_37 
REMARK       I    between atoms: C3_19  and  O3_27 
REMARK       I    between atoms: N_21  and  C2_31 
REMARK       I    between atoms: C4_22  and  O4_70 
REMARK       I    between atoms: C6_25  and  C5_46 
REMARK       I    between atoms: C6_25  and  O6_45 
REMARK       I    between atoms: O1_33  and  C1_51 
REMARK       I    between atoms: O1_33  and  C4_34 
REMARK       I    between atoms: O3S_35  and  S1_37 
REMARK       I    between atoms: S1_37  and  O1S_42 
REMARK       I    between atoms: S1_37  and  O2S_63 
REMARK       I    between atoms: O3_39  and  C3_54 
REMARK       I    between atoms: C6_40  and  C5_60 
REMARK       I    between atoms: C3_44  and  O3_64 
REMARK       I    between atoms: O6_45  and  S2_59 
REMARK       I    between atoms: C6_50  and  C5_56 
ROOT
ATOM      1  C2  IDS d 803      -1.599  54.915 -12.222  0.00  0.00     0.134 C 
ATOM      2  C1  IDS d 803      -0.472  53.987 -12.678  0.00  0.00     0.161 C 
ATOM      3  S   IDS d 803      -3.583  55.720 -13.966  0.00  0.00     0.252 S 
ATOM      4  O3S IDS d 803      -3.613  54.686 -15.019  0.00  0.00    -0.572 OA
ATOM      5  O5  IDS d 803       0.739  54.740 -12.854  0.00  0.00    -0.340 OA
ATOM      6  C3  IDS d 803      -1.180  55.680 -10.967  0.00  0.00     0.094 C 
ATOM      7  O2S IDS d 803      -4.552  55.368 -12.911  0.00  0.00    -0.572 OA
ATOM      8  O3  IDS d 803      -1.037  54.807  -9.867  0.00  0.00    -0.390 OA
ATOM      9  C4  IDS d 803       0.123  56.432 -11.234  0.00  0.00     0.103 C 
ATOM     10  C6  IDS d 803       2.477  56.153 -12.020  0.00  0.00     0.206 C 
ATOM     11  O61 IDS d 803       3.311  56.359 -11.112  0.00  0.00    -0.646 OA
ATOM     12  C5  IDS d 803       1.187  55.425 -11.673  0.00  0.00     0.152 C 
ATOM     13  O2  IDS d 803      -1.960  55.811 -13.271  0.00  0.00    -0.244 OA
ATOM     14  O62 IDS d 803       2.672  56.495 -13.206  0.00  0.00    -0.646 OA
ATOM     15  O1S IDS d 803      -3.941  57.026 -14.550  0.00  0.00    -0.572 OA
ATOM     16  H   IDS d 803      -2.457  54.323 -11.981  0.00  0.00     0.097 H 
ATOM     17  H   IDS d 803      -0.733  53.560 -13.623  0.00  0.00     0.133 H 
ATOM     18  H   IDS d 803      -1.946  56.387 -10.723  0.00  0.00     0.091 H 
ATOM     19  H   IDS d 803      -0.347  54.153 -10.061  0.00  0.00     0.210 HD
ATOM     20  H   IDS d 803       0.438  56.935 -10.344  0.00  0.00     0.092 H 
ATOM     21  H   IDS d 803       1.355  54.733 -10.875  0.00  0.00     0.104 H 
ATOM     22  O3  SGN d 802      -1.081  60.415 -15.038  0.00  0.00    -0.391 OA
ATOM     23  O4  SGN d 802       1.737  60.405 -15.117  0.00  0.00    -0.348 OA
ATOM     24  S1  SGN d 802      -3.687  59.424 -11.937  0.00  0.00     0.156 S 
ATOM     25  O5S SGN d 802       3.463  63.702 -10.657  0.00  0.00    -0.572 OA
ATOM     26  N   SGN d 802      -2.347  58.935 -12.982  0.00  0.00    -0.210 NA
ATOM     27  O3S SGN d 802      -3.547  58.766 -10.625  0.00  0.00    -0.296 OA
ATOM     28  C6  SGN d 802       3.126  60.227 -12.526  0.00  0.00     0.067 C 
ATOM     29  O5  SGN d 802       1.061  59.389 -11.651  0.00  0.00    -0.349 OA
ATOM     30  C2  SGN d 802      -1.053  59.553 -12.793  0.00  0.00     0.081 C 
ATOM     31  O1S SGN d 802      -4.963  59.021 -12.557  0.00  0.00    -0.296 OA
ATOM     32  O1  SGN d 802      -0.074  57.402 -12.267  0.00  0.00    -0.348 OA
ATOM     33  C4  SGN d 802       1.024  60.333 -13.881  0.00  0.00     0.095 C 
ATOM     34  O6  SGN d 802       2.800  61.451 -11.872  0.00  0.00    -0.254 OA
ATOM     35  C5  SGN d 802       1.825  59.514 -12.863  0.00  0.00     0.091 C 
ATOM     36  O4S SGN d 802       4.891  62.968 -12.458  0.00  0.00    -0.572 OA
ATOM     37  C1  SGN d 802      -0.215  58.748 -11.802  0.00  0.00     0.150 C 
ATOM     38  O6S SGN d 802       4.925  61.813 -10.337  0.00  0.00    -0.572 OA
ATOM     39  O2S SGN d 802      -3.664  60.889 -11.758  0.00  0.00    -0.296 OA
ATOM     40  S2  SGN d 802       4.075  62.529 -11.308  0.00  0.00     0.251 S 
ATOM     41  C3  SGN d 802      -0.319  59.659 -14.124  0.00  0.00     0.083 C 
ATOM     42  H   SGN d 802      -1.935  59.979 -15.186  0.00  0.00     0.210 HD
ATOM     43  H   SGN d 802      -2.633  59.124 -13.942  0.00  0.00     0.140 HD
ATOM     44  H   SGN d 802      -3.562  57.804 -10.743  0.00  0.00     0.231 HD
ATOM     45  H   SGN d 802       3.672  60.430 -13.423  0.00  0.00     0.080 H 
ATOM     46  H   SGN d 802       3.731  59.616 -11.890  0.00  0.00     0.080 H 
ATOM     47  H   SGN d 802      -1.203  60.537 -12.399  0.00  0.00     0.076 H 
ATOM     48  H   SGN d 802      -5.054  59.455 -13.420  0.00  0.00     0.231 HD
ATOM     49  H   SGN d 802       0.876  61.320 -13.496  0.00  0.00     0.091 H 
ATOM     50  H   SGN d 802       2.033  58.552 -13.282  0.00  0.00     0.090 H 
ATOM     51  H   SGN d 802      -0.697  58.711 -10.847  0.00  0.00     0.131 H 
ATOM     52  H   SGN d 802      -3.757  61.321 -12.622  0.00  0.00     0.231 HD
ATOM     53  H   SGN d 802      -0.169  58.683 -14.537  0.00  0.00     0.089 H 
ATOM     54  O1  SGN d 804       1.525  48.897 -10.672  0.00  0.00    -0.369 OA
ATOM     55  C5  SGN d 804      -0.457  50.495 -12.040  0.00  0.00     0.091 C 
ATOM     56  O6  SGN d 804      -1.892  50.589 -13.985  0.00  0.00    -0.254 OA
ATOM     57  O6S SGN d 804      -3.215  50.370 -16.276  0.00  0.00    -0.572 OA
ATOM     58  C1  SGN d 804       1.548  49.153 -12.078  0.00  0.00     0.147 C 
ATOM     59  N   SGN d 804       3.719  50.232 -11.791  0.00  0.00    -0.210 NA
ATOM     60  C4  SGN d 804       0.336  51.761 -12.365  0.00  0.00     0.095 C 
ATOM     61  O5S SGN d 804      -3.991  52.037 -14.719  0.00  0.00    -0.572 OA
ATOM     62  O3S SGN d 804       4.230  48.315 -13.555  0.00  0.00    -0.296 OA
ATOM     63  S1  SGN d 804       4.851  49.027 -12.420  0.00  0.00     0.156 S 
ATOM     64  S2  SGN d 804      -3.433  50.678 -14.850  0.00  0.00     0.251 S 
ATOM     65  O3  SGN d 804       2.509  52.764 -12.109  0.00  0.00    -0.391 OA
ATOM     66  O1S SGN d 804       5.180  48.063 -11.353  0.00  0.00    -0.296 OA
ATOM     67  O5  SGN d 804       0.222  49.354 -12.592  0.00  0.00    -0.350 OA
ATOM     68  C3  SGN d 804       1.742  51.624 -11.791  0.00  0.00     0.083 C 
ATOM     69  C6  SGN d 804      -1.889  50.567 -12.559  0.00  0.00     0.067 C 
ATOM     70  O2S SGN d 804       6.085  49.695 -12.875  0.00  0.00    -0.296 OA
ATOM     71  C2  SGN d 804       2.402  50.385 -12.379  0.00  0.00     0.081 C 
ATOM     72  O4S SGN d 804      -4.378  49.704 -14.274  0.00  0.00    -0.572 OA
ATOM     73  O4  SGN d 804      -0.305  52.894 -11.774  0.00  0.00    -0.348 OA
ATOM     74  H   SGN d 804       2.431  48.765 -10.352  0.00  0.00     0.212 HD
ATOM     75  H   SGN d 804      -0.514  50.401 -10.975  0.00  0.00     0.090 H 
ATOM     76  H   SGN d 804       1.974  48.296 -12.557  0.00  0.00     0.131 H 
ATOM     77  H   SGN d 804       3.575  50.011 -10.806  0.00  0.00     0.140 HD
ATOM     78  H   SGN d 804       0.382  51.895 -13.425  0.00  0.00     0.091 H 
ATOM     79  H   SGN d 804       3.419  47.875 -13.256  0.00  0.00     0.231 HD
ATOM     80  H   SGN d 804       2.087  53.553 -11.732  0.00  0.00     0.210 HD
ATOM     81  H   SGN d 804       4.369  47.623 -11.053  0.00  0.00     0.231 HD
ATOM     82  H   SGN d 804       1.683  51.533 -10.726  0.00  0.00     0.089 H 
ATOM     83  H   SGN d 804      -2.355  51.457 -12.190  0.00  0.00     0.080 H 
ATOM     84  H   SGN d 804      -2.429  49.708 -12.219  0.00  0.00     0.080 H 
ATOM     85  H   SGN d 804       5.870  50.330 -13.577  0.00  0.00     0.231 HD
ATOM     86  H   SGN d 804       2.493  50.488 -13.440  0.00  0.00     0.076 H 
ATOM     87  O5  UAP d 801       1.466  62.728 -15.491  0.00  0.00    -0.311 OA
ATOM     88  O2  UAP d 801       3.991  62.739 -16.796  0.00  0.00    -0.244 OA
ATOM     89  O1S UAP d 801       6.299  63.973 -17.224  0.00  0.00    -0.572 OA
ATOM     90  O3S UAP d 801       6.399  61.773 -16.250  0.00  0.00    -0.572 OA
ATOM     91  C1  UAP d 801       2.395  61.651 -15.358  0.00  0.00     0.167 C 
ATOM     92  O2S UAP d 801       5.835  62.035 -18.575  0.00  0.00    -0.572 OA
ATOM     93  C4  UAP d 801       1.102  62.116 -17.746  0.00  0.00    -0.034 C 
ATOM     94  C3  UAP d 801       2.327  61.352 -17.851  0.00  0.00     0.086 C 
ATOM     95  O62 UAP d 801      -0.763  64.062 -15.587  0.00  0.00    -0.642 OA
ATOM     96  S   UAP d 801       5.701  62.625 -17.230  0.00  0.00     0.252 S 
ATOM     97  C6  UAP d 801      -0.413  63.453 -16.624  0.00  0.00     0.233 C 
ATOM     98  C2  UAP d 801       3.221  61.550 -16.631  0.00  0.00     0.135 C 
ATOM     99  C5  UAP d 801       0.725  62.755 -16.618  0.00  0.00     0.147 C 
ATOM    100  O61 UAP d 801      -1.104  63.497 -17.669  0.00  0.00    -0.642 OA
ATOM    101  O3  UAP d 801       2.025  59.985 -18.022  0.00  0.00    -0.389 OA
ATOM    102  H   UAP d 801       3.023  61.854 -14.515  0.00  0.00     0.134 H 
ATOM    103  H   UAP d 801       0.488  62.175 -18.572  0.00  0.00     0.085 H 
ATOM    104  H   UAP d 801       2.866  61.706 -18.705  0.00  0.00     0.093 H 
ATOM    105  H   UAP d 801       3.868  60.703 -16.545  0.00  0.00     0.097 H 
ATOM    106  H   UAP d 801       1.536  59.663 -17.248  0.00  0.00     0.210 HD
ENDROOT
TORSDOF 33
ENDMDL
MODEL 68
REMARK VINA RESULT:      -5.1      4.322      6.039
REMARK  0 active torsions:
REMARK  status: ('A' for Active; 'I' for Inactive)
REMARK       I    between atoms: C2_1  and  O2_62 
REMARK       I    between atoms: O3_2  and  C3_65 
REMARK       I    between atoms: O1_3  and  C1_15 
REMARK       I    between atoms: C5_5  and  C6_58 
REMARK       I    between atoms: C1_6  and  O4_70 
REMARK       I    between atoms: S_7  and  O2_62 
REMARK       I    between atoms: O2_9  and  C2_55 
REMARK       I    between atoms: O2_9  and  S_49 
REMARK       I    between atoms: O4_11  and  C1_28 
REMARK       I    between atoms: O4_11  and  C4_41 
REMARK       I    between atoms: O6_12  and  C6_58 
REMARK       I    between atoms: O6_12  and  S2_38 
REMARK       I    between atoms: S1_16  and  N_21 
REMARK       I    between atoms: S1_16  and  O1S_32 
REMARK       I    between atoms: S1_16  and  O2S_53 
REMARK       I    between atoms: S1_16  and  O3S_24 
REMARK       I    between atoms: N_18  and  C2_66 
REMARK       I    between atoms: N_18  and  S1_37 
REMARK       I    between atoms: C3_19  and  O3_27 
REMARK       I    between atoms: N_21  and  C2_31 
REMARK       I    between atoms: C4_22  and  O4_70 
REMARK       I    between atoms: C6_25  and  C5_46 
REMARK       I    between atoms: C6_25  and  O6_45 
REMARK       I    between atoms: O1_33  and  C1_51 
REMARK       I    between atoms: O1_33  and  C4_34 
REMARK       I    between atoms: O3S_35  and  S1_37 
REMARK       I    between atoms: S1_37  and  O1S_42 
REMARK       I    between atoms: S1_37  and  O2S_63 
REMARK       I    between atoms: O3_39  and  C3_54 
REMARK       I    between atoms: C6_40  and  C5_60 
REMARK       I    between atoms: C3_44  and  O3_64 
REMARK       I    between atoms: O6_45  and  S2_59 
REMARK       I    between atoms: C6_50  and  C5_56 
ROOT
ATOM      1  C2  IDS d 803       4.140  55.220 -14.591  0.00  0.00     0.134 C 
ATOM      2  C1  IDS d 803       4.912  55.679 -15.828  0.00  0.00     0.161 C 
ATOM      3  S   IDS d 803       2.257  53.205 -14.747  0.00  0.00     0.252 S 
ATOM      4  O3S IDS d 803       2.629  52.422 -15.942  0.00  0.00    -0.572 OA
ATOM      5  O5  IDS d 803       4.394  56.938 -16.287  0.00  0.00    -0.340 OA
ATOM      6  C3  IDS d 803       4.165  56.307 -13.516  0.00  0.00     0.094 C 
ATOM      7  O2S IDS d 803       2.900  52.614 -13.558  0.00  0.00    -0.572 OA
ATOM      8  O3  IDS d 803       5.471  56.489 -13.013  0.00  0.00    -0.390 OA
ATOM      9  C4  IDS d 803       3.620  57.613 -14.094  0.00  0.00     0.103 C 
ATOM     10  C6  IDS d 803       3.893  59.251 -15.958  0.00  0.00     0.206 C 
ATOM     11  O61 IDS d 803       4.301  60.364 -15.559  0.00  0.00    -0.646 OA
ATOM     12  C5  IDS d 803       4.458  57.994 -15.315  0.00  0.00     0.152 C 
ATOM     13  O2  IDS d 803       2.801  54.876 -14.941  0.00  0.00    -0.244 OA
ATOM     14  O62 IDS d 803       3.059  59.130 -16.881  0.00  0.00    -0.646 OA
ATOM     15  O1S IDS d 803       0.792  53.181 -14.580  0.00  0.00    -0.572 OA
ATOM     16  H   IDS d 803       4.613  54.347 -14.194  0.00  0.00     0.097 H 
ATOM     17  H   IDS d 803       4.775  54.963 -16.611  0.00  0.00     0.133 H 
ATOM     18  H   IDS d 803       3.543  56.000 -12.701  0.00  0.00     0.091 H 
ATOM     19  H   IDS d 803       6.059  56.769 -13.732  0.00  0.00     0.210 HD
ATOM     20  H   IDS d 803       3.675  58.384 -13.354  0.00  0.00     0.092 H 
ATOM     21  H   IDS d 803       5.467  58.160 -15.001  0.00  0.00     0.104 H 
ATOM     22  O3  SGN d 802      -1.847  56.733 -15.152  0.00  0.00    -0.391 OA
ATOM     23  O4  SGN d 802      -1.381  59.120 -16.579  0.00  0.00    -0.348 OA
ATOM     24  S1  SGN d 802       0.046  55.215 -11.761  0.00  0.00     0.156 S 
ATOM     25  O5S SGN d 802      -1.746  63.402 -12.671  0.00  0.00    -0.572 OA
ATOM     26  N   SGN d 802       0.195  55.815 -13.417  0.00  0.00    -0.210 NA
ATOM     27  O3S SGN d 802       1.269  55.551 -11.009  0.00  0.00    -0.296 OA
ATOM     28  C6  SGN d 802       0.269  61.155 -15.235  0.00  0.00     0.067 C 
ATOM     29  O5  SGN d 802       1.048  59.377 -13.835  0.00  0.00    -0.349 OA
ATOM     30  C2  SGN d 802      -0.017  57.224 -13.672  0.00  0.00     0.081 C 
ATOM     31  O1S SGN d 802      -0.133  53.752 -11.784  0.00  0.00    -0.296 OA
ATOM     32  O1  SGN d 802       2.254  57.443 -14.483  0.00  0.00    -0.348 OA
ATOM     33  C4  SGN d 802      -0.846  58.916 -15.270  0.00  0.00     0.095 C 
ATOM     34  O6  SGN d 802      -0.521  61.564 -14.121  0.00  0.00    -0.254 OA
ATOM     35  C5  SGN d 802       0.489  59.653 -15.130  0.00  0.00     0.091 C 
ATOM     36  O4S SGN d 802      -1.738  63.720 -15.064  0.00  0.00    -0.572 OA
ATOM     37  C1  SGN d 802       1.301  57.989 -13.567  0.00  0.00     0.150 C 
ATOM     38  O6S SGN d 802       0.285  64.062 -13.790  0.00  0.00    -0.572 OA
ATOM     39  O2S SGN d 802      -1.119  55.846 -11.110  0.00  0.00    -0.296 OA
ATOM     40  S2  SGN d 802      -0.948  63.260 -13.904  0.00  0.00     0.251 S 
ATOM     41  C3  SGN d 802      -0.623  57.425 -15.054  0.00  0.00     0.083 C 
ATOM     42  H   SGN d 802      -1.694  55.784 -15.013  0.00  0.00     0.210 HD
ATOM     43  H   SGN d 802      -0.482  55.303 -13.982  0.00  0.00     0.140 HD
ATOM     44  H   SGN d 802       2.035  55.137 -11.437  0.00  0.00     0.231 HD
ATOM     45  H   SGN d 802      -0.243  61.384 -16.147  0.00  0.00     0.080 H 
ATOM     46  H   SGN d 802       1.207  61.670 -15.234  0.00  0.00     0.080 H 
ATOM     47  H   SGN d 802      -0.695  57.601 -12.935  0.00  0.00     0.076 H 
ATOM     48  H   SGN d 802      -0.938  53.533 -12.279  0.00  0.00     0.231 HD
ATOM     49  H   SGN d 802      -1.533  59.293 -14.541  0.00  0.00     0.091 H 
ATOM     50  H   SGN d 802       1.147  59.325 -15.906  0.00  0.00     0.090 H 
ATOM     51  H   SGN d 802       1.710  57.898 -12.582  0.00  0.00     0.131 H 
ATOM     52  H   SGN d 802      -1.924  55.625 -11.605  0.00  0.00     0.231 HD
ATOM     53  H   SGN d 802       0.040  57.043 -15.803  0.00  0.00     0.089 H 
ATOM     54  O1  SGN d 804      10.598  56.193 -16.985  0.00  0.00    -0.369 OA
ATOM     55  C5  SGN d 804       8.218  54.610 -16.559  0.00  0.00     0.091 C 
ATOM     56  O6  SGN d 804       6.944  52.730 -17.392  0.00  0.00    -0.254 OA
ATOM     57  O6S SGN d 804       5.790  50.707 -18.666  0.00  0.00    -0.572 OA
ATOM     58  C1  SGN d 804       9.702  55.814 -18.031  0.00  0.00     0.147 C 
ATOM     59  N   SGN d 804       9.297  58.182 -18.468  0.00  0.00    -0.210 NA
ATOM     60  C4  SGN d 804       7.114  55.649 -16.754  0.00  0.00     0.095 C 
ATOM     61  O5S SGN d 804       4.978  51.212 -16.455  0.00  0.00    -0.572 OA
ATOM     62  O3S SGN d 804      10.176  57.283 -20.805  0.00  0.00    -0.296 OA
ATOM     63  S1  SGN d 804      10.224  58.481 -19.944  0.00  0.00     0.156 S 
ATOM     64  S2  SGN d 804       6.179  51.137 -17.310  0.00  0.00     0.251 S 
ATOM     65  O3  SGN d 804       6.760  57.980 -17.243  0.00  0.00    -0.391 OA
ATOM     66  O1S SGN d 804      11.624  58.778 -19.589  0.00  0.00    -0.296 OA
ATOM     67  O5  SGN d 804       9.048  54.571 -17.732  0.00  0.00    -0.350 OA
ATOM     68  C3  SGN d 804       7.756  57.007 -17.021  0.00  0.00     0.083 C 
ATOM     69  C6  SGN d 804       7.653  53.225 -16.258  0.00  0.00     0.067 C 
ATOM     70  O2S SGN d 804       9.648  59.631 -20.668  0.00  0.00    -0.296 OA
ATOM     71  C2  SGN d 804       8.650  56.902 -18.250  0.00  0.00     0.081 C 
ATOM     72  O4S SGN d 804       7.126  50.163 -16.737  0.00  0.00    -0.572 OA
ATOM     73  O4  SGN d 804       6.317  55.732 -15.571  0.00  0.00    -0.348 OA
ATOM     74  H   SGN d 804      11.025  57.034 -17.212  0.00  0.00     0.212 HD
ATOM     75  H   SGN d 804       8.804  54.900 -15.712  0.00  0.00     0.090 H 
ATOM     76  H   SGN d 804      10.280  55.691 -18.924  0.00  0.00     0.131 H 
ATOM     77  H   SGN d 804       9.937  58.322 -17.687  0.00  0.00     0.140 HD
ATOM     78  H   SGN d 804       6.495  55.367 -17.579  0.00  0.00     0.091 H 
ATOM     79  H   SGN d 804      10.556  56.528 -20.330  0.00  0.00     0.231 HD
ATOM     80  H   SGN d 804       6.192  58.045 -16.459  0.00  0.00     0.210 HD
ATOM     81  H   SGN d 804      12.005  58.023 -19.112  0.00  0.00     0.231 HD
ATOM     82  H   SGN d 804       8.339  57.296 -16.171  0.00  0.00     0.089 H 
ATOM     83  H   SGN d 804       6.987  53.288 -15.424  0.00  0.00     0.080 H 
ATOM     84  H   SGN d 804       8.459  52.559 -16.029  0.00  0.00     0.080 H 
ATOM     85  H   SGN d 804       8.727  59.436 -20.902  0.00  0.00     0.231 HD
ATOM     86  H   SGN d 804       8.064  56.646 -19.107  0.00  0.00     0.076 H 
ATOM     87  O5  UAP d 801      -3.602  59.625 -15.926  0.00  0.00    -0.311 OA
ATOM     88  O2  UAP d 801      -3.800  61.336 -18.187  0.00  0.00    -0.244 OA
ATOM     89  O1S UAP d 801      -4.660  63.629 -19.207  0.00  0.00    -0.572 OA
ATOM     90  O3S UAP d 801      -2.284  63.234 -19.253  0.00  0.00    -0.572 OA
ATOM     91  C1  UAP d 801      -2.451  60.066 -16.649  0.00  0.00     0.167 C 
ATOM     92  O2S UAP d 801      -3.733  62.030 -20.750  0.00  0.00    -0.572 OA
ATOM     93  C4  UAP d 801      -4.232  58.291 -17.774  0.00  0.00    -0.034 C 
ATOM     94  C3  UAP d 801      -3.413  59.019 -18.720  0.00  0.00     0.086 C 
ATOM     95  O62 UAP d 801      -5.184  58.177 -14.456  0.00  0.00    -0.642 OA
ATOM     96  S   UAP d 801      -3.612  62.609 -19.399  0.00  0.00     0.252 S 
ATOM     97  C6  UAP d 801      -5.101  57.885 -15.672  0.00  0.00     0.233 C 
ATOM     98  C2  UAP d 801      -2.836  60.289 -18.103  0.00  0.00     0.135 C 
ATOM     99  C5  UAP d 801      -4.301  58.603 -16.462  0.00  0.00     0.147 C 
ATOM    100  O61 UAP d 801      -5.767  56.942 -16.160  0.00  0.00    -0.642 OA
ATOM    101  O3  UAP d 801      -2.377  58.188 -19.194  0.00  0.00    -0.389 OA
ATOM    102  H   UAP d 801      -2.107  60.976 -16.205  0.00  0.00     0.134 H 
ATOM    103  H   UAP d 801      -4.791  57.495 -18.119  0.00  0.00     0.085 H 
ATOM    104  H   UAP d 801      -4.036  59.314 -19.539  0.00  0.00     0.093 H 
ATOM    105  H   UAP d 801      -1.954  60.558 -18.646  0.00  0.00     0.097 H 
ATOM    106  H   UAP d 801      -1.812  57.920 -18.452  0.00  0.00     0.210 HD
ENDROOT
TORSDOF 33
ENDMDL
MODEL 69
REMARK VINA RESULT:      -5.1      2.927     11.466
REMARK  0 active torsions:
REMARK  status: ('A' for Active; 'I' for Inactive)
REMARK       I    between atoms: C2_1  and  O2_62 
REMARK       I    between atoms: O3_2  and  C3_65 
REMARK       I    between atoms: O1_3  and  C1_15 
REMARK       I    between atoms: C5_5  and  C6_58 
REMARK       I    between atoms: C1_6  and  O4_70 
REMARK       I    between atoms: S_7  and  O2_62 
REMARK       I    between atoms: O2_9  and  C2_55 
REMARK       I    between atoms: O2_9  and  S_49 
REMARK       I    between atoms: O4_11  and  C1_28 
REMARK       I    between atoms: O4_11  and  C4_41 
REMARK       I    between atoms: O6_12  and  C6_58 
REMARK       I    between atoms: O6_12  and  S2_38 
REMARK       I    between atoms: S1_16  and  N_21 
REMARK       I    between atoms: S1_16  and  O1S_32 
REMARK       I    between atoms: S1_16  and  O2S_53 
REMARK       I    between atoms: S1_16  and  O3S_24 
REMARK       I    between atoms: N_18  and  C2_66 
REMARK       I    between atoms: N_18  and  S1_37 
REMARK       I    between atoms: C3_19  and  O3_27 
REMARK       I    between atoms: N_21  and  C2_31 
REMARK       I    between atoms: C4_22  and  O4_70 
REMARK       I    between atoms: C6_25  and  C5_46 
REMARK       I    between atoms: C6_25  and  O6_45 
REMARK       I    between atoms: O1_33  and  C1_51 
REMARK       I    between atoms: O1_33  and  C4_34 
REMARK       I    between atoms: O3S_35  and  S1_37 
REMARK       I    between atoms: S1_37  and  O1S_42 
REMARK       I    between atoms: S1_37  and  O2S_63 
REMARK       I    between atoms: O3_39  and  C3_54 
REMARK       I    between atoms: C6_40  and  C5_60 
REMARK       I    between atoms: C3_44  and  O3_64 
REMARK       I    between atoms: O6_45  and  S2_59 
REMARK       I    between atoms: C6_50  and  C5_56 
ROOT
ATOM      1  C2  IDS d 803      -3.601  50.468 -13.110  0.00  0.00     0.134 C 
ATOM      2  C1  IDS d 803      -4.337  51.305 -14.156  0.00  0.00     0.161 C 
ATOM      3  S   IDS d 803      -3.166  51.428 -10.557  0.00  0.00     0.252 S 
ATOM      4  O3S IDS d 803      -4.209  52.452 -10.348  0.00  0.00    -0.572 OA
ATOM      5  O5  IDS d 803      -3.397  51.841 -15.101  0.00  0.00    -0.340 OA
ATOM      6  C3  IDS d 803      -2.755  49.392 -13.791  0.00  0.00     0.094 C 
ATOM      7  O2S IDS d 803      -3.655  50.127 -10.064  0.00  0.00    -0.572 OA
ATOM      8  O3  IDS d 803      -3.574  48.435 -14.430  0.00  0.00    -0.390 OA
ATOM      9  C4  IDS d 803      -1.803  50.044 -14.792  0.00  0.00     0.103 C 
ATOM     10  C6  IDS d 803      -1.702  51.572 -16.765  0.00  0.00     0.206 C 
ATOM     11  O61 IDS d 803      -1.344  50.982 -17.807  0.00  0.00    -0.646 OA
ATOM     12  C5  IDS d 803      -2.628  50.848 -15.799  0.00  0.00     0.152 C 
ATOM     13  O2  IDS d 803      -2.796  51.304 -12.282  0.00  0.00    -0.244 OA
ATOM     14  O62 IDS d 803      -1.353  52.741 -16.498  0.00  0.00    -0.646 OA
ATOM     15  O1S IDS d 803      -1.948  51.810  -9.819  0.00  0.00    -0.572 OA
ATOM     16  H   IDS d 803      -4.322  49.981 -12.488  0.00  0.00     0.097 H 
ATOM     17  H   IDS d 803      -4.818  52.128 -13.670  0.00  0.00     0.133 H 
ATOM     18  H   IDS d 803      -2.181  48.882 -13.046  0.00  0.00     0.091 H 
ATOM     19  H   IDS d 803      -4.107  48.871 -15.113  0.00  0.00     0.210 HD
ATOM     20  H   IDS d 803      -1.239  49.289 -15.298  0.00  0.00     0.092 H 
ATOM     21  H   IDS d 803      -3.268  50.177 -16.332  0.00  0.00     0.104 H 
ATOM     22  O3  SGN d 802       1.860  53.081 -11.767  0.00  0.00    -0.391 OA
ATOM     23  O4  SGN d 802       2.315  54.084 -14.363  0.00  0.00    -0.348 OA
ATOM     24  S1  SGN d 802       0.504  49.336 -10.533  0.00  0.00     0.156 S 
ATOM     25  O5S SGN d 802       5.929  50.317 -16.911  0.00  0.00    -0.572 OA
ATOM     26  N   SGN d 802       0.225  50.781 -11.512  0.00  0.00    -0.210 NA
ATOM     27  O3S SGN d 802      -0.098  48.170 -11.205  0.00  0.00    -0.296 OA
ATOM     28  C6  SGN d 802       2.414  52.105 -16.541  0.00  0.00     0.067 C 
ATOM     29  O5  SGN d 802       1.260  50.632 -15.047  0.00  0.00    -0.349 OA
ATOM     30  C2  SGN d 802       1.053  51.006 -12.677  0.00  0.00     0.081 C 
ATOM     31  O1S SGN d 802      -0.115  49.516  -9.207  0.00  0.00    -0.296 OA
ATOM     32  O1  SGN d 802      -0.897  50.916 -14.110  0.00  0.00    -0.348 OA
ATOM     33  C4  SGN d 802       2.147  52.686 -14.122  0.00  0.00     0.095 C 
ATOM     34  O6  SGN d 802       3.578  51.333 -16.256  0.00  0.00    -0.254 OA
ATOM     35  C5  SGN d 802       1.490  52.022 -15.335  0.00  0.00     0.091 C 
ATOM     36  O4S SGN d 802       5.410  52.516 -17.760  0.00  0.00    -0.572 OA
ATOM     37  C1  SGN d 802       0.415  50.379 -13.915  0.00  0.00     0.150 C 
ATOM     38  O6S SGN d 802       4.313  50.572 -18.682  0.00  0.00    -0.572 OA
ATOM     39  O2S SGN d 802       1.955  49.118 -10.376  0.00  0.00    -0.296 OA
ATOM     40  S2  SGN d 802       4.862  51.179 -17.454  0.00  0.00     0.251 S 
ATOM     41  C3  SGN d 802       1.256  52.499 -12.901  0.00  0.00     0.083 C 
ATOM     42  H   SGN d 802       1.285  52.957 -10.995  0.00  0.00     0.210 HD
ATOM     43  H   SGN d 802       0.348  51.586 -10.898  0.00  0.00     0.140 HD
ATOM     44  H   SGN d 802      -1.052  48.313 -11.308  0.00  0.00     0.231 HD
ATOM     45  H   SGN d 802       2.689  53.123 -16.718  0.00  0.00     0.080 H 
ATOM     46  H   SGN d 802       1.923  51.728 -17.413  0.00  0.00     0.080 H 
ATOM     47  H   SGN d 802       2.005  50.546 -12.509  0.00  0.00     0.076 H 
ATOM     48  H   SGN d 802       0.282  50.283  -8.766  0.00  0.00     0.231 HD
ATOM     49  H   SGN d 802       3.103  52.237 -13.951  0.00  0.00     0.091 H 
ATOM     50  H   SGN d 802       0.568  52.523 -15.546  0.00  0.00     0.090 H 
ATOM     51  H   SGN d 802       0.315  49.321 -13.789  0.00  0.00     0.131 H 
ATOM     52  H   SGN d 802       2.351  49.885  -9.934  0.00  0.00     0.231 HD
ATOM     53  H   SGN d 802       0.312  52.976 -13.062  0.00  0.00     0.089 H 
ATOM     54  O1  SGN d 804      -8.991  50.269 -17.502  0.00  0.00    -0.369 OA
ATOM     55  C5  SGN d 804      -7.767  50.844 -14.948  0.00  0.00     0.091 C 
ATOM     56  O6  SGN d 804      -7.946  52.202 -12.954  0.00  0.00    -0.254 OA
ATOM     57  O6S SGN d 804      -8.420  53.936 -11.000  0.00  0.00    -0.572 OA
ATOM     58  C1  SGN d 804      -8.759  51.592 -17.016  0.00  0.00     0.147 C 
ATOM     59  N   SGN d 804      -7.330  51.995 -18.954  0.00  0.00    -0.210 NA
ATOM     60  C4  SGN d 804      -6.393  51.362 -15.371  0.00  0.00     0.095 C 
ATOM     61  O5S SGN d 804      -6.878  52.147 -10.525  0.00  0.00    -0.572 OA
ATOM     62  O3S SGN d 804      -9.166  53.902 -19.155  0.00  0.00    -0.296 OA
ATOM     63  S1  SGN d 804      -8.342  53.008 -19.993  0.00  0.00     0.156 S 
ATOM     64  S2  SGN d 804      -8.128  52.507 -11.221  0.00  0.00     0.251 S 
ATOM     65  O3  SGN d 804      -5.039  51.798 -17.314  0.00  0.00    -0.391 OA
ATOM     66  O1S SGN d 804      -9.219  52.148 -20.808  0.00  0.00    -0.296 OA
ATOM     67  O5  SGN d 804      -8.790  51.632 -15.580  0.00  0.00    -0.350 OA
ATOM     68  C3  SGN d 804      -6.285  51.289 -16.891  0.00  0.00     0.083 C 
ATOM     69  C6  SGN d 804      -7.942  50.858 -13.432  0.00  0.00     0.067 C 
ATOM     70  O2S SGN d 804      -7.486  53.818 -20.881  0.00  0.00    -0.296 OA
ATOM     71  C2  SGN d 804      -7.408  52.110 -17.510  0.00  0.00     0.081 C 
ATOM     72  O4S SGN d 804      -9.235  51.690 -10.690  0.00  0.00    -0.572 OA
ATOM     73  O4  SGN d 804      -5.372  50.550 -14.789  0.00  0.00    -0.348 OA
ATOM     74  H   SGN d 804      -8.966  50.271 -18.471  0.00  0.00     0.212 HD
ATOM     75  H   SGN d 804      -7.851  49.824 -15.263  0.00  0.00     0.090 H 
ATOM     76  H   SGN d 804      -9.542  52.218 -17.392  0.00  0.00     0.131 H 
ATOM     77  H   SGN d 804      -7.555  51.028 -19.182  0.00  0.00     0.140 HD
ATOM     78  H   SGN d 804      -6.272  52.373 -15.042  0.00  0.00     0.091 H 
ATOM     79  H   SGN d 804      -9.729  53.369 -18.571  0.00  0.00     0.231 HD
ATOM     80  H   SGN d 804      -4.325  51.273 -16.919  0.00  0.00     0.210 HD
ATOM     81  H   SGN d 804      -9.782  51.615 -20.226  0.00  0.00     0.231 HD
ATOM     82  H   SGN d 804      -6.366  50.269 -17.203  0.00  0.00     0.089 H 
ATOM     83  H   SGN d 804      -7.135  50.323 -12.978  0.00  0.00     0.080 H 
ATOM     84  H   SGN d 804      -8.873  50.394 -13.182  0.00  0.00     0.080 H 
ATOM     85  H   SGN d 804      -6.909  54.385 -20.346  0.00  0.00     0.231 HD
ATOM     86  H   SGN d 804      -7.310  53.137 -17.226  0.00  0.00     0.076 H 
ATOM     87  O5  UAP d 801       4.554  54.257 -13.611  0.00  0.00    -0.311 OA
ATOM     88  O2  UAP d 801       4.961  56.321 -15.523  0.00  0.00    -0.244 OA
ATOM     89  O1S UAP d 801       6.552  57.437 -17.327  0.00  0.00    -0.572 OA
ATOM     90  O3S UAP d 801       4.416  56.636 -18.099  0.00  0.00    -0.572 OA
ATOM     91  C1  UAP d 801       3.648  54.480 -14.693  0.00  0.00     0.167 C 
ATOM     92  O2S UAP d 801       4.541  58.633 -16.762  0.00  0.00    -0.572 OA
ATOM     93  C4  UAP d 801       3.852  56.289 -12.624  0.00  0.00    -0.034 C 
ATOM     94  C3  UAP d 801       3.299  56.821 -13.852  0.00  0.00     0.086 C 
ATOM     95  O62 UAP d 801       5.499  53.562 -11.291  0.00  0.00    -0.642 OA
ATOM     96  S   UAP d 801       5.124  57.298 -16.988  0.00  0.00     0.252 S 
ATOM     97  C6  UAP d 801       4.938  54.680 -11.372  0.00  0.00     0.233 C 
ATOM     98  C2  UAP d 801       3.663  55.957 -15.055  0.00  0.00     0.135 C 
ATOM     99  C5  UAP d 801       4.439  55.076 -12.544  0.00  0.00     0.147 C 
ATOM    100  O61 UAP d 801       4.850  55.436 -10.376  0.00  0.00    -0.642 OA
ATOM    101  O3  UAP d 801       1.898  56.936 -13.736  0.00  0.00    -0.389 OA
ATOM    102  H   UAP d 801       3.967  53.885 -15.522  0.00  0.00     0.134 H 
ATOM    103  H   UAP d 801       3.794  56.864 -11.770  0.00  0.00     0.085 H 
ATOM    104  H   UAP d 801       3.723  57.791 -14.013  0.00  0.00     0.093 H 
ATOM    105  H   UAP d 801       2.937  56.122 -15.822  0.00  0.00     0.097 H 
ATOM    106  H   UAP d 801       1.513  56.057 -13.590  0.00  0.00     0.210 HD
ENDROOT
TORSDOF 33
ENDMDL
MODEL 70
REMARK VINA RESULT:      -5.1      3.350      7.540
REMARK  0 active torsions:
REMARK  status: ('A' for Active; 'I' for Inactive)
REMARK       I    between atoms: C2_1  and  O2_62 
REMARK       I    between atoms: O3_2  and  C3_65 
REMARK       I    between atoms: O1_3  and  C1_15 
REMARK       I    between atoms: C5_5  and  C6_58 
REMARK       I    between atoms: C1_6  and  O4_70 
REMARK       I    between atoms: S_7  and  O2_62 
REMARK       I    between atoms: O2_9  and  C2_55 
REMARK       I    between atoms: O2_9  and  S_49 
REMARK       I    between atoms: O4_11  and  C1_28 
REMARK       I    between atoms: O4_11  and  C4_41 
REMARK       I    between atoms: O6_12  and  C6_58 
REMARK       I    between atoms: O6_12  and  S2_38 
REMARK       I    between atoms: S1_16  and  N_21 
REMARK       I    between atoms: S1_16  and  O1S_32 
REMARK       I    between atoms: S1_16  and  O2S_53 
REMARK       I    between atoms: S1_16  and  O3S_24 
REMARK       I    between atoms: N_18  and  C2_66 
REMARK       I    between atoms: N_18  and  S1_37 
REMARK       I    between atoms: C3_19  and  O3_27 
REMARK       I    between atoms: N_21  and  C2_31 
REMARK       I    between atoms: C4_22  and  O4_70 
REMARK       I    between atoms: C6_25  and  C5_46 
REMARK       I    between atoms: C6_25  and  O6_45 
REMARK       I    between atoms: O1_33  and  C1_51 
REMARK       I    between atoms: O1_33  and  C4_34 
REMARK       I    between atoms: O3S_35  and  S1_37 
REMARK       I    between atoms: S1_37  and  O1S_42 
REMARK       I    between atoms: S1_37  and  O2S_63 
REMARK       I    between atoms: O3_39  and  C3_54 
REMARK       I    between atoms: C6_40  and  C5_60 
REMARK       I    between atoms: C3_44  and  O3_64 
REMARK       I    between atoms: O6_45  and  S2_59 
REMARK       I    between atoms: C6_50  and  C5_56 
ROOT
ATOM      1  C2  IDS d 803       3.708  55.387 -18.332  0.00  0.00     0.134 C 
ATOM      2  C1  IDS d 803       4.775  54.510 -17.677  0.00  0.00     0.161 C 
ATOM      3  S   IDS d 803       3.432  58.051 -17.657  0.00  0.00     0.252 S 
ATOM      4  O3S IDS d 803       4.748  58.450 -17.121  0.00  0.00    -0.572 OA
ATOM      5  O5  IDS d 803       4.165  53.642 -16.708  0.00  0.00    -0.340 OA
ATOM      6  C3  IDS d 803       2.596  54.519 -18.921  0.00  0.00     0.094 C 
ATOM      7  O2S IDS d 803       3.388  58.337 -19.103  0.00  0.00    -0.572 OA
ATOM      8  O3  IDS d 803       3.074  53.753 -20.006  0.00  0.00    -0.390 OA
ATOM      9  C4  IDS d 803       2.020  53.614 -17.832  0.00  0.00     0.103 C 
ATOM     10  C6  IDS d 803       2.627  51.916 -16.105  0.00  0.00     0.206 C 
ATOM     11  O61 IDS d 803       2.171  50.782 -16.369  0.00  0.00    -0.646 OA
ATOM     12  C5  IDS d 803       3.155  52.773 -17.244  0.00  0.00     0.152 C 
ATOM     13  O2  IDS d 803       3.184  56.321 -17.390  0.00  0.00    -0.244 OA
ATOM     14  O62 IDS d 803       2.692  52.362 -14.939  0.00  0.00    -0.646 OA
ATOM     15  O1S IDS d 803       2.371  58.811 -16.971  0.00  0.00    -0.572 OA
ATOM     16  H   IDS d 803       4.158  55.939 -19.131  0.00  0.00     0.097 H 
ATOM     17  H   IDS d 803       5.474  55.137 -17.163  0.00  0.00     0.133 H 
ATOM     18  H   IDS d 803       1.820  55.156 -19.290  0.00  0.00     0.091 H 
ATOM     19  H   IDS d 803       3.781  53.163 -19.699  0.00  0.00     0.210 HD
ATOM     20  H   IDS d 803       1.270  52.978 -18.251  0.00  0.00     0.092 H 
ATOM     21  H   IDS d 803       3.560  52.154 -18.017  0.00  0.00     0.104 H 
ATOM     22  O3  SGN d 802      -0.571  57.003 -14.145  0.00  0.00    -0.391 OA
ATOM     23  O4  SGN d 802      -0.428  54.596 -12.684  0.00  0.00    -0.348 OA
ATOM     24  S1  SGN d 802      -0.729  57.641 -18.263  0.00  0.00     0.156 S 
ATOM     25  O5S SGN d 802      -4.916  51.377 -14.483  0.00  0.00    -0.572 OA
ATOM     26  N   SGN d 802       0.121  56.920 -16.891  0.00  0.00    -0.210 NA
ATOM     27  O3S SGN d 802      -0.524  56.803 -19.458  0.00  0.00    -0.296 OA
ATOM     28  C6  SGN d 802      -1.041  52.122 -14.159  0.00  0.00     0.067 C 
ATOM     29  O5  SGN d 802      -0.607  53.383 -16.147  0.00  0.00    -0.349 OA
ATOM     30  C2  SGN d 802      -0.476  55.786 -16.218  0.00  0.00     0.081 C 
ATOM     31  O1S SGN d 802      -0.197  58.994 -18.511  0.00  0.00    -0.296 OA
ATOM     32  O1  SGN d 802       1.427  54.407 -16.799  0.00  0.00    -0.348 OA
ATOM     33  C4  SGN d 802      -0.785  54.609 -14.067  0.00  0.00     0.095 C 
ATOM     34  O6  SGN d 802      -2.421  52.247 -14.491  0.00  0.00    -0.254 OA
ATOM     35  C5  SGN d 802      -0.307  53.320 -14.743  0.00  0.00     0.091 C 
ATOM     36  O4S SGN d 802      -3.588  50.912 -12.523  0.00  0.00    -0.572 OA
ATOM     37  C1  SGN d 802      -0.000  54.479 -16.848  0.00  0.00     0.150 C 
ATOM     38  O6S SGN d 802      -3.176  49.712 -14.578  0.00  0.00    -0.572 OA
ATOM     39  O2S SGN d 802      -2.171  57.724 -17.962  0.00  0.00    -0.296 OA
ATOM     40  S2  SGN d 802      -3.574  51.008 -13.996  0.00  0.00     0.251 S 
ATOM     41  C3  SGN d 802      -0.121  55.804 -14.737  0.00  0.00     0.083 C 
ATOM     42  H   SGN d 802      -0.142  57.758 -14.578  0.00  0.00     0.210 HD
ATOM     43  H   SGN d 802       0.240  57.654 -16.193  0.00  0.00     0.140 HD
ATOM     44  H   SGN d 802       0.424  56.749 -19.656  0.00  0.00     0.231 HD
ATOM     45  H   SGN d 802      -0.923  52.106 -13.096  0.00  0.00     0.080 H 
ATOM     46  H   SGN d 802      -0.644  51.212 -14.558  0.00  0.00     0.080 H 
ATOM     47  H   SGN d 802      -1.539  55.853 -16.322  0.00  0.00     0.076 H 
ATOM     48  H   SGN d 802      -0.333  59.544 -17.724  0.00  0.00     0.231 HD
ATOM     49  H   SGN d 802      -1.848  54.680 -14.160  0.00  0.00     0.091 H 
ATOM     50  H   SGN d 802       0.746  53.217 -14.583  0.00  0.00     0.090 H 
ATOM     51  H   SGN d 802      -0.291  54.432 -17.877  0.00  0.00     0.131 H 
ATOM     52  H   SGN d 802      -2.306  58.276 -17.176  0.00  0.00     0.231 HD
ATOM     53  H   SGN d 802       0.941  55.747 -14.615  0.00  0.00     0.089 H 
ATOM     54  O1  SGN d 804       9.023  51.158 -19.832  0.00  0.00    -0.369 OA
ATOM     55  C5  SGN d 804       7.875  53.740 -19.227  0.00  0.00     0.091 C 
ATOM     56  O6  SGN d 804       8.357  55.932 -18.326  0.00  0.00    -0.254 OA
ATOM     57  O6S SGN d 804       9.250  58.155 -17.181  0.00  0.00    -0.572 OA
ATOM     58  C1  SGN d 804       9.233  51.847 -18.599  0.00  0.00     0.147 C 
ATOM     59  N   SGN d 804       8.202  49.966 -17.433  0.00  0.00    -0.210 NA
ATOM     60  C4  SGN d 804       6.811  53.373 -18.192  0.00  0.00     0.095 C 
ATOM     61  O5S SGN d 804       7.143  58.293 -18.341  0.00  0.00    -0.572 OA
ATOM     62  O3S SGN d 804      10.603  50.125 -16.311  0.00  0.00    -0.296 OA
ATOM     63  S1  SGN d 804       9.587  49.132 -16.716  0.00  0.00     0.156 S 
ATOM     64  S2  SGN d 804       8.492  57.696 -18.360  0.00  0.00     0.251 S 
ATOM     65  O3  SGN d 804       5.863  51.494 -17.023  0.00  0.00    -0.391 OA
ATOM     66  O1S SGN d 804      10.169  48.209 -17.708  0.00  0.00    -0.296 OA
ATOM     67  O5  SGN d 804       9.158  53.270 -18.779  0.00  0.00    -0.350 OA
ATOM     68  C3  SGN d 804       6.810  51.859 -18.002  0.00  0.00     0.083 C 
ATOM     69  C6  SGN d 804       7.919  55.241 -19.494  0.00  0.00     0.067 C 
ATOM     70  O2S SGN d 804       9.148  48.367 -15.533  0.00  0.00    -0.296 OA
ATOM     71  C2  SGN d 804       8.197  51.411 -17.562  0.00  0.00     0.081 C 
ATOM     72  O4S SGN d 804       9.192  58.113 -19.589  0.00  0.00    -0.572 OA
ATOM     73  O4  SGN d 804       5.525  53.789 -18.656  0.00  0.00    -0.348 OA
ATOM     74  H   SGN d 804       9.079  50.201 -19.682  0.00  0.00     0.212 HD
ATOM     75  H   SGN d 804       7.619  53.265 -20.151  0.00  0.00     0.090 H 
ATOM     76  H   SGN d 804      10.214  51.598 -18.251  0.00  0.00     0.131 H 
ATOM     77  H   SGN d 804       8.089  49.588 -18.373  0.00  0.00     0.140 HD
ATOM     78  H   SGN d 804       7.028  53.860 -17.264  0.00  0.00     0.091 H 
ATOM     79  H   SGN d 804      10.891  50.628 -17.088  0.00  0.00     0.231 HD
ATOM     80  H   SGN d 804       4.979  51.780 -17.305  0.00  0.00     0.210 HD
ATOM     81  H   SGN d 804      10.458  48.711 -18.487  0.00  0.00     0.231 HD
ATOM     82  H   SGN d 804       6.551  51.386 -18.927  0.00  0.00     0.089 H 
ATOM     83  H   SGN d 804       6.940  55.582 -19.761  0.00  0.00     0.080 H 
ATOM     84  H   SGN d 804       8.602  55.435 -20.295  0.00  0.00     0.080 H 
ATOM     85  H   SGN d 804       8.766  48.974 -14.879  0.00  0.00     0.231 HD
ATOM     86  H   SGN d 804       8.444  51.856 -16.622  0.00  0.00     0.076 H 
ATOM     87  O5  UAP d 801      -2.516  55.310 -11.824  0.00  0.00    -0.311 OA
ATOM     88  O2  UAP d 801      -2.011  53.751  -9.501  0.00  0.00    -0.244 OA
ATOM     89  O1S UAP d 801      -2.953  52.115  -7.638  0.00  0.00    -0.572 OA
ATOM     90  O3S UAP d 801      -1.181  51.275  -9.037  0.00  0.00    -0.572 OA
ATOM     91  C1  UAP d 801      -1.505  54.302 -11.790  0.00  0.00     0.167 C 
ATOM     92  O2S UAP d 801      -0.703  52.918  -7.344  0.00  0.00    -0.572 OA
ATOM     93  C4  UAP d 801      -1.226  56.632 -10.347  0.00  0.00    -0.034 C 
ATOM     94  C3  UAP d 801      -0.423  55.522  -9.880  0.00  0.00     0.086 C 
ATOM     95  O62 UAP d 801      -3.832  57.461 -12.456  0.00  0.00    -0.642 OA
ATOM     96  S   UAP d 801      -1.699  52.462  -8.331  0.00  0.00     0.252 S 
ATOM     97  C6  UAP d 801      -2.909  57.578 -11.617  0.00  0.00     0.233 C 
ATOM     98  C2  UAP d 801      -0.968  54.186 -10.371  0.00  0.00     0.135 C 
ATOM     99  C5  UAP d 801      -2.208  56.499 -11.264  0.00  0.00     0.147 C 
ATOM    100  O61 UAP d 801      -2.641  58.686 -11.096  0.00  0.00    -0.642 OA
ATOM    101  O3  UAP d 801       0.914  55.691 -10.297  0.00  0.00    -0.389 OA
ATOM    102  H   UAP d 801      -1.944  53.378 -12.105  0.00  0.00     0.134 H 
ATOM    103  H   UAP d 801      -1.039  57.571  -9.961  0.00  0.00     0.085 H 
ATOM    104  H   UAP d 801      -0.462  55.512  -8.810  0.00  0.00     0.093 H 
ATOM    105  H   UAP d 801      -0.170  53.474 -10.372  0.00  0.00     0.097 H 
ATOM    106  H   UAP d 801       0.951  55.700 -11.266  0.00  0.00     0.210 HD
ENDROOT
TORSDOF 33
ENDMDL
MODEL 71
REMARK VINA RESULT:      -5.0      4.796      9.655
REMARK  0 active torsions:
REMARK  status: ('A' for Active; 'I' for Inactive)
REMARK       I    between atoms: C2_1  and  O2_62 
REMARK       I    between atoms: O3_2  and  C3_65 
REMARK       I    between atoms: O1_3  and  C1_15 
REMARK       I    between atoms: C5_5  and  C6_58 
REMARK       I    between atoms: C1_6  and  O4_70 
REMARK       I    between atoms: S_7  and  O2_62 
REMARK       I    between atoms: O2_9  and  C2_55 
REMARK       I    between atoms: O2_9  and  S_49 
REMARK       I    between atoms: O4_11  and  C1_28 
REMARK       I    between atoms: O4_11  and  C4_41 
REMARK       I    between atoms: O6_12  and  C6_58 
REMARK       I    between atoms: O6_12  and  S2_38 
REMARK       I    between atoms: S1_16  and  N_21 
REMARK       I    between atoms: S1_16  and  O1S_32 
REMARK       I    between atoms: S1_16  and  O2S_53 
REMARK       I    between atoms: S1_16  and  O3S_24 
REMARK       I    between atoms: N_18  and  C2_66 
REMARK       I    between atoms: N_18  and  S1_37 
REMARK       I    between atoms: C3_19  and  O3_27 
REMARK       I    between atoms: N_21  and  C2_31 
REMARK       I    between atoms: C4_22  and  O4_70 
REMARK       I    between atoms: C6_25  and  C5_46 
REMARK       I    between atoms: C6_25  and  O6_45 
REMARK       I    between atoms: O1_33  and  C1_51 
REMARK       I    between atoms: O1_33  and  C4_34 
REMARK       I    between atoms: O3S_35  and  S1_37 
REMARK       I    between atoms: S1_37  and  O1S_42 
REMARK       I    between atoms: S1_37  and  O2S_63 
REMARK       I    between atoms: O3_39  and  C3_54 
REMARK       I    between atoms: C6_40  and  C5_60 
REMARK       I    between atoms: C3_44  and  O3_64 
REMARK       I    between atoms: O6_45  and  S2_59 
REMARK       I    between atoms: C6_50  and  C5_56 
ROOT
ATOM      1  C2  IDS d 803       0.243  53.434 -15.385  0.00  0.00     0.134 C 
ATOM      2  C1  IDS d 803      -0.126  53.366 -13.903  0.00  0.00     0.161 C 
ATOM      3  S   IDS d 803       2.244  55.111 -16.285  0.00  0.00     0.252 S 
ATOM      4  O3S IDS d 803       3.107  55.347 -15.111  0.00  0.00    -0.572 OA
ATOM      5  O5  IDS d 803      -1.358  54.069 -13.675  0.00  0.00    -0.340 OA
ATOM      6  C3  IDS d 803      -0.911  52.916 -16.243  0.00  0.00     0.094 C 
ATOM      7  O2S IDS d 803       2.763  53.961 -17.049  0.00  0.00    -0.572 OA
ATOM      8  O3  IDS d 803      -1.112  51.534 -16.039  0.00  0.00    -0.390 OA
ATOM      9  C4  IDS d 803      -2.182  53.701 -15.922  0.00  0.00     0.103 C 
ATOM     10  C6  IDS d 803      -3.693  54.401 -14.061  0.00  0.00     0.206 C 
ATOM     11  O61 IDS d 803      -4.824  53.875 -14.142  0.00  0.00    -0.646 OA
ATOM     12  C5  IDS d 803      -2.475  53.568 -14.426  0.00  0.00     0.152 C 
ATOM     13  O2  IDS d 803       0.595  54.767 -15.749  0.00  0.00    -0.244 OA
ATOM     14  O62 IDS d 803      -3.520  55.574 -13.666  0.00  0.00    -0.646 OA
ATOM     15  O1S IDS d 803       2.241  56.312 -17.141  0.00  0.00    -0.572 OA
ATOM     16  H   IDS d 803       1.094  52.808 -15.557  0.00  0.00     0.097 H 
ATOM     17  H   IDS d 803       0.638  53.849 -13.330  0.00  0.00     0.133 H 
ATOM     18  H   IDS d 803      -0.664  53.059 -17.275  0.00  0.00     0.091 H 
ATOM     19  H   IDS d 803      -1.338  51.374 -15.109  0.00  0.00     0.210 HD
ATOM     20  H   IDS d 803      -2.999  53.313 -16.493  0.00  0.00     0.092 H 
ATOM     21  H   IDS d 803      -2.649  52.536 -14.201  0.00  0.00     0.104 H 
ATOM     22  O3  SGN d 802      -1.293  58.978 -17.699  0.00  0.00    -0.391 OA
ATOM     23  O4  SGN d 802      -3.577  59.313 -16.080  0.00  0.00    -0.348 OA
ATOM     24  S1  SGN d 802       0.020  55.647 -19.837  0.00  0.00     0.156 S 
ATOM     25  O5S SGN d 802      -8.109  57.838 -19.400  0.00  0.00    -0.572 OA
ATOM     26  N   SGN d 802      -0.469  56.331 -18.282  0.00  0.00    -0.210 NA
ATOM     27  O3S SGN d 802      -0.352  54.221 -19.880  0.00  0.00    -0.296 OA
ATOM     28  C6  SGN d 802      -5.678  57.265 -16.327  0.00  0.00     0.067 C 
ATOM     29  O5  SGN d 802      -3.987  55.866 -17.283  0.00  0.00    -0.349 OA
ATOM     30  C2  SGN d 802      -1.860  56.671 -18.074  0.00  0.00     0.081 C 
ATOM     31  O1S SGN d 802       1.479  55.782 -19.994  0.00  0.00    -0.296 OA
ATOM     32  O1  SGN d 802      -2.002  55.081 -16.254  0.00  0.00    -0.348 OA
ATOM     33  C4  SGN d 802      -3.453  58.207 -16.976  0.00  0.00     0.095 C 
ATOM     34  O6  SGN d 802      -6.167  57.426 -17.656  0.00  0.00    -0.254 OA
ATOM     35  C5  SGN d 802      -4.184  56.988 -16.406  0.00  0.00     0.091 C 
ATOM     36  O4S SGN d 802      -8.269  58.995 -17.289  0.00  0.00    -0.572 OA
ATOM     37  C1  SGN d 802      -2.617  55.485 -17.481  0.00  0.00     0.150 C 
ATOM     38  O6S SGN d 802      -8.673  56.616 -17.400  0.00  0.00    -0.572 OA
ATOM     39  O2S SGN d 802      -0.664  56.366 -20.929  0.00  0.00    -0.296 OA
ATOM     40  S2  SGN d 802      -7.878  57.733 -17.947  0.00  0.00     0.251 S 
ATOM     41  C3  SGN d 802      -1.978  57.874 -17.148  0.00  0.00     0.083 C 
ATOM     42  H   SGN d 802      -0.355  58.756 -17.805  0.00  0.00     0.210 HD
ATOM     43  H   SGN d 802       0.071  57.185 -18.148  0.00  0.00     0.140 HD
ATOM     44  H   SGN d 802       0.098  53.748 -19.162  0.00  0.00     0.231 HD
ATOM     45  H   SGN d 802      -5.853  58.159 -15.765  0.00  0.00     0.080 H 
ATOM     46  H   SGN d 802      -6.182  56.455 -15.842  0.00  0.00     0.080 H 
ATOM     47  H   SGN d 802      -2.292  56.917 -19.022  0.00  0.00     0.076 H 
ATOM     48  H   SGN d 802       1.722  56.721 -19.966  0.00  0.00     0.231 HD
ATOM     49  H   SGN d 802      -3.885  58.464 -17.921  0.00  0.00     0.091 H 
ATOM     50  H   SGN d 802      -3.799  56.780 -15.430  0.00  0.00     0.090 H 
ATOM     51  H   SGN d 802      -2.586  54.648 -18.148  0.00  0.00     0.131 H 
ATOM     52  H   SGN d 802      -0.420  57.304 -20.901  0.00  0.00     0.231 HD
ATOM     53  H   SGN d 802      -1.541  57.648 -16.198  0.00  0.00     0.089 H 
ATOM     54  O1  SGN d 804      -0.503  48.962 -10.109  0.00  0.00    -0.369 OA
ATOM     55  C5  SGN d 804       1.024  50.803 -11.731  0.00  0.00     0.091 C 
ATOM     56  O6  SGN d 804       2.940  52.279 -11.738  0.00  0.00    -0.254 OA
ATOM     57  O6S SGN d 804       5.030  53.860 -11.309  0.00  0.00    -0.572 OA
ATOM     58  C1  SGN d 804      -0.066  50.244  -9.653  0.00  0.00     0.147 C 
ATOM     59  N   SGN d 804      -2.405  50.862  -9.321  0.00  0.00    -0.210 NA
ATOM     60  C4  SGN d 804      -0.013  51.887 -12.031  0.00  0.00     0.095 C 
ATOM     61  O5S SGN d 804       4.373  53.512 -13.601  0.00  0.00    -0.572 OA
ATOM     62  O3S SGN d 804      -1.346  51.203  -6.911  0.00  0.00    -0.296 OA
ATOM     63  S1  SGN d 804      -2.597  50.771  -7.565  0.00  0.00     0.156 S 
ATOM     64  S2  SGN d 804       4.516  52.874 -12.279  0.00  0.00     0.251 S 
ATOM     65  O3  SGN d 804      -2.310  52.485 -11.631  0.00  0.00    -0.391 OA
ATOM     66  O1S SGN d 804      -2.902  49.381  -7.179  0.00  0.00    -0.296 OA
ATOM     67  O5  SGN d 804       1.148  50.644 -10.308  0.00  0.00    -0.350 OA
ATOM     68  C3  SGN d 804      -1.343  51.484 -11.402  0.00  0.00     0.083 C 
ATOM     69  C6  SGN d 804       2.380  51.121 -12.354  0.00  0.00     0.067 C 
ATOM     70  O2S SGN d 804      -3.703  51.651  -7.141  0.00  0.00    -0.296 OA
ATOM     71  C2  SGN d 804      -1.149  51.294  -9.904  0.00  0.00     0.081 C 
ATOM     72  O4S SGN d 804       5.461  51.746 -12.381  0.00  0.00    -0.572 OA
ATOM     73  O4  SGN d 804      -0.180  52.014 -13.444  0.00  0.00    -0.348 OA
ATOM     74  H   SGN d 804      -1.322  48.717  -9.652  0.00  0.00     0.212 HD
ATOM     75  H   SGN d 804       0.685  49.888 -12.169  0.00  0.00     0.090 H 
ATOM     76  H   SGN d 804       0.121  50.167  -8.602  0.00  0.00     0.131 H 
ATOM     77  H   SGN d 804      -2.589  49.927  -9.683  0.00  0.00     0.140 HD
ATOM     78  H   SGN d 804       0.317  52.822 -11.628  0.00  0.00     0.091 H 
ATOM     79  H   SGN d 804      -0.619  50.625  -7.189  0.00  0.00     0.231 HD
ATOM     80  H   SGN d 804      -2.432  52.605 -12.586  0.00  0.00     0.210 HD
ATOM     81  H   SGN d 804      -2.176  48.801  -7.457  0.00  0.00     0.231 HD
ATOM     82  H   SGN d 804      -1.681  50.569 -11.844  0.00  0.00     0.089 H 
ATOM     83  H   SGN d 804       2.255  51.302 -13.400  0.00  0.00     0.080 H 
ATOM     84  H   SGN d 804       3.038  50.291 -12.204  0.00  0.00     0.080 H 
ATOM     85  H   SGN d 804      -3.504  52.566  -7.394  0.00  0.00     0.231 HD
ATOM     86  H   SGN d 804      -0.843  52.216  -9.455  0.00  0.00     0.076 H 
ATOM     87  O5  UAP d 801      -4.147  60.951 -17.693  0.00  0.00    -0.311 OA
ATOM     88  O2  UAP d 801      -5.710  62.256 -15.709  0.00  0.00    -0.244 OA
ATOM     89  O1S UAP d 801      -7.939  63.553 -15.092  0.00  0.00    -0.572 OA
ATOM     90  O3S UAP d 801      -7.517  61.488 -13.927  0.00  0.00    -0.572 OA
ATOM     91  C1  UAP d 801      -4.528  60.303 -16.477  0.00  0.00     0.167 C 
ATOM     92  O2S UAP d 801      -6.234  63.453 -13.396  0.00  0.00    -0.572 OA
ATOM     93  C4  UAP d 801      -2.702  62.367 -16.468  0.00  0.00    -0.034 C 
ATOM     94  C3  UAP d 801      -3.359  62.124 -15.201  0.00  0.00     0.086 C 
ATOM     95  O62 UAP d 801      -2.816  61.593 -19.831  0.00  0.00    -0.642 OA
ATOM     96  S   UAP d 801      -6.899  62.707 -14.480  0.00  0.00     0.252 S 
ATOM     97  C6  UAP d 801      -2.444  62.102 -18.749  0.00  0.00     0.233 C 
ATOM     98  C2  UAP d 801      -4.659  61.349 -15.380  0.00  0.00     0.135 C 
ATOM     99  C5  UAP d 801      -3.100  61.800 -17.627  0.00  0.00     0.147 C 
ATOM    100  O61 UAP d 801      -1.478  62.899 -18.703  0.00  0.00    -0.642 OA
ATOM    101  O3  UAP d 801      -2.487  61.428 -14.337  0.00  0.00    -0.389 OA
ATOM    102  H   UAP d 801      -5.462  59.808 -16.641  0.00  0.00     0.134 H 
ATOM    103  H   UAP d 801      -1.892  63.005 -16.487  0.00  0.00     0.085 H 
ATOM    104  H   UAP d 801      -3.606  63.071 -14.768  0.00  0.00     0.093 H 
ATOM    105  H   UAP d 801      -4.883  60.846 -14.463  0.00  0.00     0.097 H 
ATOM    106  H   UAP d 801      -2.263  60.569 -14.728  0.00  0.00     0.210 HD
ENDROOT
TORSDOF 33
ENDMDL
MODEL 72
REMARK VINA RESULT:      -4.3      3.881      7.999
REMARK  0 active torsions:
REMARK  status: ('A' for Active; 'I' for Inactive)
REMARK       I    between atoms: C2_1  and  O2_62 
REMARK       I    between atoms: O3_2  and  C3_65 
REMARK       I    between atoms: O1_3  and  C1_15 
REMARK       I    between atoms: C5_5  and  C6_58 
REMARK       I    between atoms: C1_6  and  O4_70 
REMARK       I    between atoms: S_7  and  O2_62 
REMARK       I    between atoms: O2_9  and  C2_55 
REMARK       I    between atoms: O2_9  and  S_49 
REMARK       I    between atoms: O4_11  and  C1_28 
REMARK       I    between atoms: O4_11  and  C4_41 
REMARK       I    between atoms: O6_12  and  C6_58 
REMARK       I    between atoms: O6_12  and  S2_38 
REMARK       I    between atoms: S1_16  and  N_21 
REMARK       I    between atoms: S1_16  and  O1S_32 
REMARK       I    between atoms: S1_16  and  O2S_53 
REMARK       I    between atoms: S1_16  and  O3S_24 
REMARK       I    between atoms: N_18  and  C2_66 
REMARK       I    between atoms: N_18  and  S1_37 
REMARK       I    between atoms: C3_19  and  O3_27 
REMARK       I    between atoms: N_21  and  C2_31 
REMARK       I    between atoms: C4_22  and  O4_70 
REMARK       I    between atoms: C6_25  and  C5_46 
REMARK       I    between atoms: C6_25  and  O6_45 
REMARK       I    between atoms: O1_33  and  C1_51 
REMARK       I    between atoms: O1_33  and  C4_34 
REMARK       I    between atoms: O3S_35  and  S1_37 
REMARK       I    between atoms: S1_37  and  O1S_42 
REMARK       I    between atoms: S1_37  and  O2S_63 
REMARK       I    between atoms: O3_39  and  C3_54 
REMARK       I    between atoms: C6_40  and  C5_60 
REMARK       I    between atoms: C3_44  and  O3_64 
REMARK       I    between atoms: O6_45  and  S2_59 
REMARK       I    between atoms: C6_50  and  C5_56 
ROOT
ATOM      1  C2  IDS d 803       0.625  60.523 -13.915  0.00  0.00     0.134 C 
ATOM      2  C1  IDS d 803       1.950  59.816 -14.202  0.00  0.00     0.161 C 
ATOM      3  S   IDS d 803      -0.196  61.030 -11.328  0.00  0.00     0.252 S 
ATOM      4  O3S IDS d 803       1.043  61.039 -10.525  0.00  0.00    -0.572 OA
ATOM      5  O5  IDS d 803       1.702  58.455 -14.590  0.00  0.00    -0.340 OA
ATOM      6  C3  IDS d 803      -0.312  60.402 -15.117  0.00  0.00     0.094 C 
ATOM      7  O2S IDS d 803      -0.499  62.404 -11.771  0.00  0.00    -0.572 OA
ATOM      8  O3  IDS d 803       0.189  61.124 -16.223  0.00  0.00    -0.390 OA
ATOM      9  C4  IDS d 803      -0.502  58.929 -15.475  0.00  0.00     0.103 C 
ATOM     10  C6  IDS d 803       0.722  56.826 -16.037  0.00  0.00     0.206 C 
ATOM     11  O61 IDS d 803       0.523  56.458 -17.215  0.00  0.00    -0.646 OA
ATOM     12  C5  IDS d 803       0.871  58.312 -15.752  0.00  0.00     0.152 C 
ATOM     13  O2  IDS d 803       0.020  59.988 -12.740  0.00  0.00    -0.244 OA
ATOM     14  O62 IDS d 803       0.831  56.020 -15.088  0.00  0.00    -0.646 OA
ATOM     15  O1S IDS d 803      -1.309  60.519 -10.506  0.00  0.00    -0.572 OA
ATOM     16  H   IDS d 803       0.818  61.562 -13.746  0.00  0.00     0.097 H 
ATOM     17  H   IDS d 803       2.538  59.801 -13.308  0.00  0.00     0.133 H 
ATOM     18  H   IDS d 803      -1.261  60.823 -14.859  0.00  0.00     0.091 H 
ATOM     19  H   IDS d 803       1.052  60.763 -16.481  0.00  0.00     0.210 HD
ATOM     20  H   IDS d 803      -1.124  58.845 -16.340  0.00  0.00     0.092 H 
ATOM     21  H   IDS d 803       1.307  58.809 -16.593  0.00  0.00     0.104 H 
ATOM     22  O3  SGN d 802      -3.323  56.596 -11.187  0.00  0.00    -0.391 OA
ATOM     23  O4  SGN d 802      -2.410  54.310 -12.561  0.00  0.00    -0.348 OA
ATOM     24  S1  SGN d 802      -4.176  60.423 -12.606  0.00  0.00     0.156 S 
ATOM     25  O5S SGN d 802      -6.183  53.447 -16.891  0.00  0.00    -0.572 OA
ATOM     26  N   SGN d 802      -3.003  59.110 -12.453  0.00  0.00    -0.210 NA
ATOM     27  O3S SGN d 802      -3.935  61.147 -13.868  0.00  0.00    -0.296 OA
ATOM     28  C6  SGN d 802      -2.595  54.378 -15.499  0.00  0.00     0.067 C 
ATOM     29  O5  SGN d 802      -2.747  56.758 -15.280  0.00  0.00    -0.349 OA
ATOM     30  C2  SGN d 802      -3.213  57.894 -13.209  0.00  0.00     0.081 C 
ATOM     31  O1S SGN d 802      -4.025  61.349 -11.470  0.00  0.00    -0.296 OA
ATOM     32  O1  SGN d 802      -1.127  58.238 -14.389  0.00  0.00    -0.348 OA
ATOM     33  C4  SGN d 802      -2.939  55.439 -13.259  0.00  0.00     0.095 C 
ATOM     34  O6  SGN d 802      -3.996  54.404 -15.759  0.00  0.00    -0.254 OA
ATOM     35  C5  SGN d 802      -2.257  55.576 -14.623  0.00  0.00     0.091 C 
ATOM     36  O4S SGN d 802      -4.534  51.842 -16.164  0.00  0.00    -0.572 OA
ATOM     37  C1  SGN d 802      -2.523  57.984 -14.568  0.00  0.00     0.150 C 
ATOM     38  O6S SGN d 802      -4.120  53.205 -18.114  0.00  0.00    -0.572 OA
ATOM     39  O2S SGN d 802      -5.543  59.866 -12.613  0.00  0.00    -0.296 OA
ATOM     40  S2  SGN d 802      -4.739  53.171 -16.775  0.00  0.00     0.251 S 
ATOM     41  C3  SGN d 802      -2.679  56.694 -12.437  0.00  0.00     0.083 C 
ATOM     42  H   SGN d 802      -3.152  57.400 -10.671  0.00  0.00     0.210 HD
ATOM     43  H   SGN d 802      -2.973  58.849 -11.468  0.00  0.00     0.140 HD
ATOM     44  H   SGN d 802      -3.037  61.513 -13.864  0.00  0.00     0.231 HD
ATOM     45  H   SGN d 802      -2.337  53.473 -14.991  0.00  0.00     0.080 H 
ATOM     46  H   SGN d 802      -2.046  54.421 -16.416  0.00  0.00     0.080 H 
ATOM     47  H   SGN d 802      -4.264  57.770 -13.362  0.00  0.00     0.076 H 
ATOM     48  H   SGN d 802      -4.185  60.872 -10.640  0.00  0.00     0.231 HD
ATOM     49  H   SGN d 802      -3.991  55.306 -13.404  0.00  0.00     0.091 H 
ATOM     50  H   SGN d 802      -1.199  55.635 -14.476  0.00  0.00     0.090 H 
ATOM     51  H   SGN d 802      -2.928  58.793 -15.140  0.00  0.00     0.131 H 
ATOM     52  H   SGN d 802      -5.701  59.390 -11.783  0.00  0.00     0.231 HD
ATOM     53  H   SGN d 802      -1.628  56.808 -12.267  0.00  0.00     0.089 H 
ATOM     54  O1  SGN d 804       6.558  61.211 -17.481  0.00  0.00    -0.369 OA
ATOM     55  C5  SGN d 804       4.910  61.543 -15.130  0.00  0.00     0.091 C 
ATOM     56  O6  SGN d 804       4.962  61.823 -12.728  0.00  0.00    -0.254 OA
ATOM     57  O6S SGN d 804       5.434  61.997 -10.121  0.00  0.00    -0.572 OA
ATOM     58  C1  SGN d 804       6.757  60.485 -16.266  0.00  0.00     0.147 C 
ATOM     59  N   SGN d 804       6.376  58.415 -17.504  0.00  0.00    -0.210 NA
ATOM     60  C4  SGN d 804       4.114  60.238 -15.121  0.00  0.00     0.095 C 
ATOM     61  O5S SGN d 804       3.222  62.583 -10.873  0.00  0.00    -0.572 OA
ATOM     62  O3S SGN d 804       8.793  58.059 -16.467  0.00  0.00    -0.296 OA
ATOM     63  S1  SGN d 804       8.004  57.747 -17.675  0.00  0.00     0.156 S 
ATOM     64  S2  SGN d 804       4.660  62.650 -11.193  0.00  0.00     0.251 S 
ATOM     65  O3  SGN d 804       3.812  58.185 -16.342  0.00  0.00    -0.391 OA
ATOM     66  O1S SGN d 804       8.655  58.343 -18.857  0.00  0.00    -0.296 OA
ATOM     67  O5  SGN d 804       6.316  61.244 -15.129  0.00  0.00    -0.350 OA
ATOM     68  C3  SGN d 804       4.504  59.414 -16.344  0.00  0.00     0.083 C 
ATOM     69  C6  SGN d 804       4.553  62.439 -13.948  0.00  0.00     0.067 C 
ATOM     70  O2S SGN d 804       7.925  56.283 -17.846  0.00  0.00    -0.296 OA
ATOM     71  C2  SGN d 804       6.004  59.155 -16.313  0.00  0.00     0.081 C 
ATOM     72  O4S SGN d 804       5.069  64.063 -11.306  0.00  0.00    -0.572 OA
ATOM     73  O4  SGN d 804       2.715  60.527 -15.177  0.00  0.00    -0.348 OA
ATOM     74  H   SGN d 804       6.863  60.677 -18.231  0.00  0.00     0.212 HD
ATOM     75  H   SGN d 804       4.656  62.082 -16.019  0.00  0.00     0.090 H 
ATOM     76  H   SGN d 804       7.806  60.300 -16.167  0.00  0.00     0.131 H 
ATOM     77  H   SGN d 804       6.234  59.043 -18.294  0.00  0.00     0.140 HD
ATOM     78  H   SGN d 804       4.327  59.692 -14.226  0.00  0.00     0.091 H 
ATOM     79  H   SGN d 804       8.846  59.021 -16.355  0.00  0.00     0.231 HD
ATOM     80  H   SGN d 804       2.856  58.352 -16.363  0.00  0.00     0.210 HD
ATOM     81  H   SGN d 804       8.708  59.305 -18.746  0.00  0.00     0.231 HD
ATOM     82  H   SGN d 804       4.247  59.954 -17.232  0.00  0.00     0.089 H 
ATOM     83  H   SGN d 804       3.495  62.594 -13.928  0.00  0.00     0.080 H 
ATOM     84  H   SGN d 804       5.056  63.377 -14.054  0.00  0.00     0.080 H 
ATOM     85  H   SGN d 804       7.497  55.890 -17.069  0.00  0.00     0.231 HD
ATOM     86  H   SGN d 804       6.258  58.586 -15.443  0.00  0.00     0.076 H 
ATOM     87  O5  UAP d 801      -4.475  53.392 -11.853  0.00  0.00    -0.311 OA
ATOM     88  O2  UAP d 801      -3.304  50.808 -12.028  0.00  0.00    -0.244 OA
ATOM     89  O1S UAP d 801      -3.566  48.258 -12.710  0.00  0.00    -0.572 OA
ATOM     90  O3S UAP d 801      -1.845  49.518 -13.829  0.00  0.00    -0.572 OA
ATOM     91  C1  UAP d 801      -3.254  53.157 -12.557  0.00  0.00     0.167 C 
ATOM     92  O2S UAP d 801      -1.559  48.868 -11.529  0.00  0.00    -0.572 OA
ATOM     93  C4  UAP d 801      -3.359  52.978  -9.810  0.00  0.00    -0.034 C 
ATOM     94  C3  UAP d 801      -2.256  52.273 -10.428  0.00  0.00     0.086 C 
ATOM     95  O62 UAP d 801      -6.345  54.575 -10.488  0.00  0.00    -0.642 OA
ATOM     96  S   UAP d 801      -2.537  49.301 -12.545  0.00  0.00     0.252 S 
ATOM     97  C6  UAP d 801      -5.374  54.108  -9.849  0.00  0.00     0.233 C 
ATOM     98  C2  UAP d 801      -2.522  51.995 -11.904  0.00  0.00     0.135 C 
ATOM     99  C5  UAP d 801      -4.392  53.493 -10.510  0.00  0.00     0.147 C 
ATOM    100  O61 UAP d 801      -5.316  54.197  -8.600  0.00  0.00    -0.642 OA
ATOM    101  O3  UAP d 801      -1.068  53.016 -10.275  0.00  0.00    -0.389 OA
ATOM    102  H   UAP d 801      -3.494  52.928 -13.574  0.00  0.00     0.134 H 
ATOM    103  H   UAP d 801      -3.356  53.092  -8.785  0.00  0.00     0.085 H 
ATOM    104  H   UAP d 801      -2.150  51.328  -9.937  0.00  0.00     0.093 H 
ATOM    105  H   UAP d 801      -1.583  51.869 -12.399  0.00  0.00     0.097 H 
ATOM    106  H   UAP d 801      -1.163  53.873 -10.720  0.00  0.00     0.210 HD
ENDROOT
TORSDOF 33
ENDMDL
MODEL 73
REMARK VINA RESULT:      -0.8      4.994     11.304
REMARK  0 active torsions:
REMARK  status: ('A' for Active; 'I' for Inactive)
REMARK       I    between atoms: C2_1  and  O2_62 
REMARK       I    between atoms: O3_2  and  C3_65 
REMARK       I    between atoms: O1_3  and  C1_15 
REMARK       I    between atoms: C5_5  and  C6_58 
REMARK       I    between atoms: C1_6  and  O4_70 
REMARK       I    between atoms: S_7  and  O2_62 
REMARK       I    between atoms: O2_9  and  C2_55 
REMARK       I    between atoms: O2_9  and  S_49 
REMARK       I    between atoms: O4_11  and  C1_28 
REMARK       I    between atoms: O4_11  and  C4_41 
REMARK       I    between atoms: O6_12  and  C6_58 
REMARK       I    between atoms: O6_12  and  S2_38 
REMARK       I    between atoms: S1_16  and  N_21 
REMARK       I    between atoms: S1_16  and  O1S_32 
REMARK       I    between atoms: S1_16  and  O2S_53 
REMARK       I    between atoms: S1_16  and  O3S_24 
REMARK       I    between atoms: N_18  and  C2_66 
REMARK       I    between atoms: N_18  and  S1_37 
REMARK       I    between atoms: C3_19  and  O3_27 
REMARK       I    between atoms: N_21  and  C2_31 
REMARK       I    between atoms: C4_22  and  O4_70 
REMARK       I    between atoms: C6_25  and  C5_46 
REMARK       I    between atoms: C6_25  and  O6_45 
REMARK       I    between atoms: O1_33  and  C1_51 
REMARK       I    between atoms: O1_33  and  C4_34 
REMARK       I    between atoms: O3S_35  and  S1_37 
REMARK       I    between atoms: S1_37  and  O1S_42 
REMARK       I    between atoms: S1_37  and  O2S_63 
REMARK       I    between atoms: O3_39  and  C3_54 
REMARK       I    between atoms: C6_40  and  C5_60 
REMARK       I    between atoms: C3_44  and  O3_64 
REMARK       I    between atoms: O6_45  and  S2_59 
REMARK       I    between atoms: C6_50  and  C5_56 
ROOT
ATOM      1  C2  IDS d 803      -2.601  54.741 -13.514  0.00  0.00     0.134 C 
ATOM      2  C1  IDS d 803      -1.643  53.849 -12.724  0.00  0.00     0.161 C 
ATOM      3  S   IDS d 803      -2.030  55.514 -16.103  0.00  0.00     0.252 S 
ATOM      4  O3S IDS d 803      -1.095  54.492 -16.613  0.00  0.00    -0.572 OA
ATOM      5  O5  IDS d 803      -0.929  54.635 -11.757  0.00  0.00    -0.340 OA
ATOM      6  C3  IDS d 803      -3.523  55.502 -12.562  0.00  0.00     0.094 C 
ATOM      7  O2S IDS d 803      -3.411  55.124 -16.446  0.00  0.00    -0.572 OA
ATOM      8  O3  IDS d 803      -4.402  54.619 -11.897  0.00  0.00    -0.390 OA
ATOM      9  C4  IDS d 803      -2.685  56.291 -11.556  0.00  0.00     0.103 C 
ATOM     10  C6  IDS d 803      -0.868  56.083  -9.857  0.00  0.00     0.206 C 
ATOM     11  O61 IDS d 803      -1.274  56.301  -8.694  0.00  0.00    -0.646 OA
ATOM     12  C5  IDS d 803      -1.769  55.317 -10.812  0.00  0.00     0.152 C 
ATOM     13  O2  IDS d 803      -1.871  55.639 -14.347  0.00  0.00    -0.244 OA
ATOM     14  O62 IDS d 803       0.260  56.444 -10.256  0.00  0.00    -0.646 OA
ATOM     15  O1S IDS d 803      -1.717  56.816 -16.719  0.00  0.00    -0.572 OA
ATOM     16  H   IDS d 803      -3.207  54.124 -14.143  0.00  0.00     0.097 H 
ATOM     17  H   IDS d 803      -0.926  53.426 -13.397  0.00  0.00     0.133 H 
ATOM     18  H   IDS d 803      -4.119  56.185 -13.131  0.00  0.00     0.091 H 
ATOM     19  H   IDS d 803      -3.888  53.987 -11.371  0.00  0.00     0.210 HD
ATOM     20  H   IDS d 803      -3.329  56.791 -10.865  0.00  0.00     0.092 H 
ATOM     21  H   IDS d 803      -2.376  54.620 -10.272  0.00  0.00     0.104 H 
ATOM     22  O3  SGN d 802      -0.006  60.286 -14.496  0.00  0.00    -0.391 OA
ATOM     23  O4  SGN d 802       1.405  60.351 -12.056  0.00  0.00    -0.348 OA
ATOM     24  S1  SGN d 802      -3.949  59.189 -15.293  0.00  0.00     0.156 S 
ATOM     25  O5S SGN d 802      -1.771  63.639  -8.473  0.00  0.00    -0.572 OA
ATOM     26  N   SGN d 802      -2.382  58.748 -14.604  0.00  0.00    -0.210 NA
ATOM     27  O3S SGN d 802      -5.021  58.520 -14.533  0.00  0.00    -0.296 OA
ATOM     28  C6  SGN d 802      -0.208  60.179  -9.598  0.00  0.00     0.067 C 
ATOM     29  O5  SGN d 802      -1.940  59.276 -10.982  0.00  0.00    -0.349 OA
ATOM     30  C2  SGN d 802      -1.946  59.398 -13.387  0.00  0.00     0.081 C 
ATOM     31  O1S SGN d 802      -4.002  58.760 -16.703  0.00  0.00    -0.296 OA
ATOM     32  O1  SGN d 802      -1.893  57.268 -12.238  0.00  0.00    -0.348 OA
ATOM     33  C4  SGN d 802      -0.019  60.245 -12.092  0.00  0.00     0.095 C 
ATOM     34  O6  SGN d 802      -0.966  61.386  -9.595  0.00  0.00    -0.254 OA
ATOM     35  C5  SGN d 802      -0.514  59.435 -10.890  0.00  0.00     0.091 C 
ATOM     36  O4S SGN d 802       0.510  62.964  -8.062  0.00  0.00    -0.572 OA
ATOM     37  C1  SGN d 802      -2.400  58.603 -12.164  0.00  0.00     0.150 C 
ATOM     38  O6S SGN d 802      -1.312  61.785  -7.002  0.00  0.00    -0.572 OA
ATOM     39  O2S SGN d 802      -4.129  60.652 -15.214  0.00  0.00    -0.296 OA
ATOM     40  S2  SGN d 802      -0.880  62.490  -8.224  0.00  0.00     0.251 S 
ATOM     41  C3  SGN d 802      -0.429  59.539 -13.378  0.00  0.00     0.083 C 
ATOM     42  H   SGN d 802      -0.271  59.828 -15.310  0.00  0.00     0.210 HD
ATOM     43  H   SGN d 802      -1.678  58.941 -15.316  0.00  0.00     0.140 HD
ATOM     44  H   SGN d 802      -4.902  57.559 -14.586  0.00  0.00     0.231 HD
ATOM     45  H   SGN d 802       0.836  60.406  -9.549  0.00  0.00     0.080 H 
ATOM     46  H   SGN d 802      -0.465  59.576  -8.752  0.00  0.00     0.080 H 
ATOM     47  H   SGN d 802      -2.387  60.373 -13.349  0.00  0.00     0.076 H 
ATOM     48  H   SGN d 802      -3.296  59.202 -17.202  0.00  0.00     0.231 HD
ATOM     49  H   SGN d 802      -0.450  61.224 -12.057  0.00  0.00     0.091 H 
ATOM     50  H   SGN d 802      -0.025  58.484 -10.890  0.00  0.00     0.090 H 
ATOM     51  H   SGN d 802      -3.468  58.542 -12.133  0.00  0.00     0.131 H 
ATOM     52  H   SGN d 802      -3.424  61.092 -15.714  0.00  0.00     0.231 HD
ATOM     53  H   SGN d 802       0.027  58.573 -13.425  0.00  0.00     0.089 H 
ATOM     54  O1  SGN d 804      -2.339  48.789  -9.924  0.00  0.00    -0.369 OA
ATOM     55  C5  SGN d 804      -2.116  50.350 -12.345  0.00  0.00     0.091 C 
ATOM     56  O6  SGN d 804      -1.091  50.429 -14.535  0.00  0.00    -0.254 OA
ATOM     57  O6S SGN d 804       0.298  50.203 -16.786  0.00  0.00    -0.572 OA
ATOM     58  C1  SGN d 804      -1.098  49.062 -10.578  0.00  0.00     0.147 C 
ATOM     59  N   SGN d 804      -0.341  50.195  -8.552  0.00  0.00    -0.210 NA
ATOM     60  C4  SGN d 804      -1.483  51.641 -11.826  0.00  0.00     0.095 C 
ATOM     61  O5S SGN d 804      -1.478  51.831 -16.756  0.00  0.00    -0.572 OA
ATOM     62  O3S SGN d 804       1.496  48.313  -8.909  0.00  0.00    -0.296 OA
ATOM     63  S1  SGN d 804       0.778  49.028  -7.835  0.00  0.00     0.156 S 
ATOM     64  S2  SGN d 804      -1.066  50.488 -16.303  0.00  0.00     0.251 S 
ATOM     65  O3  SGN d 804      -0.697  52.698  -9.811  0.00  0.00    -0.391 OA
ATOM     66  O1S SGN d 804       0.019  48.060  -7.021  0.00  0.00    -0.296 OA
ATOM     67  O5  SGN d 804      -1.282  49.234 -11.992  0.00  0.00    -0.350 OA
ATOM     68  C3  SGN d 804      -1.315  51.534 -10.314  0.00  0.00     0.083 C 
ATOM     69  C6  SGN d 804      -2.343  50.391 -13.854  0.00  0.00     0.067 C 
ATOM     70  O2S SGN d 804       1.750  49.734  -6.978  0.00  0.00    -0.296 OA
ATOM     71  C2  SGN d 804      -0.455  50.320  -9.992  0.00  0.00     0.081 C 
ATOM     72  O4S SGN d 804      -2.000  49.483 -16.843  0.00  0.00    -0.572 OA
ATOM     73  O4  SGN d 804      -2.333  52.749 -12.127  0.00  0.00    -0.348 OA
ATOM     74  H   SGN d 804      -2.185  48.677  -8.973  0.00  0.00     0.212 HD
ATOM     75  H   SGN d 804      -3.077  50.242 -11.887  0.00  0.00     0.090 H 
ATOM     76  H   SGN d 804      -0.454  48.222 -10.417  0.00  0.00     0.131 H 
ATOM     77  H   SGN d 804      -1.271  49.959  -8.205  0.00  0.00     0.140 HD
ATOM     78  H   SGN d 804      -0.531  51.788 -12.292  0.00  0.00     0.091 H 
ATOM     79  H   SGN d 804       0.857  47.849  -9.472  0.00  0.00     0.231 HD
ATOM     80  H   SGN d 804      -1.246  53.471 -10.017  0.00  0.00     0.210 HD
ATOM     81  H   SGN d 804      -0.621  47.595  -7.583  0.00  0.00     0.231 HD
ATOM     82  H   SGN d 804      -2.277  51.429  -9.857  0.00  0.00     0.089 H 
ATOM     83  H   SGN d 804      -2.909  51.264 -14.103  0.00  0.00     0.080 H 
ATOM     84  H   SGN d 804      -2.879  49.514 -14.152  0.00  0.00     0.080 H 
ATOM     85  H   SGN d 804       2.250  50.370  -7.513  0.00  0.00     0.231 HD
ATOM     86  H   SGN d 804       0.519  50.438 -10.420  0.00  0.00     0.076 H 
ATOM     87  O5  UAP d 801       1.551  62.670 -12.513  0.00  0.00    -0.311 OA
ATOM     88  O2  UAP d 801       3.901  62.763 -10.916  0.00  0.00    -0.244 OA
ATOM     89  O1S UAP d 801       5.347  64.063  -9.112  0.00  0.00    -0.572 OA
ATOM     90  O3S UAP d 801       4.589  61.854  -8.521  0.00  0.00    -0.572 OA
ATOM     91  C1  UAP d 801       1.901  61.616 -11.614  0.00  0.00     0.167 C 
ATOM     92  O2S UAP d 801       6.358  62.129 -10.129  0.00  0.00    -0.572 OA
ATOM     93  C4  UAP d 801       3.375  62.076 -13.896  0.00  0.00    -0.034 C 
ATOM     94  C3  UAP d 801       4.068  61.345 -12.856  0.00  0.00     0.086 C 
ATOM     95  O62 UAP d 801       0.545  63.946 -14.542  0.00  0.00    -0.642 OA
ATOM     96  S   UAP d 801       5.098  62.700  -9.617  0.00  0.00     0.252 S 
ATOM     97  C6  UAP d 801       1.637  63.358 -14.717  0.00  0.00     0.233 C 
ATOM     98  C2  UAP d 801       3.416  61.552 -11.493  0.00  0.00     0.135 C 
ATOM     99  C5  UAP d 801       2.190  62.691 -13.702  0.00  0.00     0.147 C 
ATOM    100  O61 UAP d 801       2.226  63.397 -15.823  0.00  0.00    -0.642 OA
ATOM    101  O3  UAP d 801       4.106  59.973 -13.179  0.00  0.00    -0.389 OA
ATOM    102  H   UAP d 801       1.455  61.825 -10.665  0.00  0.00     0.134 H 
ATOM    103  H   UAP d 801       3.808  62.128 -14.831  0.00  0.00     0.085 H 
ATOM    104  H   UAP d 801       5.068  61.724 -12.795  0.00  0.00     0.093 H 
ATOM    105  H   UAP d 801       3.668  60.722 -10.868  0.00  0.00     0.097 H 
ATOM    106  H   UAP d 801       3.200  59.629 -13.235  0.00  0.00     0.210 HD
ENDROOT
TORSDOF 33
ENDMDL
