MODEL 1
REMARK VINA RESULT:     -12.2      0.000      0.000
REMARK  0 active torsions:
REMARK  status: ('A' for Active; 'I' for Inactive)
REMARK       I    between atoms: C6_1  and  C5_82 
REMARK       I    between atoms: O2_4  and  C2_65 
REMARK       I    between atoms: O2_4  and  S_6 
REMARK       I    between atoms: S2_5  and  O6_13 
REMARK       I    between atoms: C6_7  and  C5_66 
REMARK       I    between atoms: C6_7  and  O6_11 
REMARK       I    between atoms: S_8  and  O2_37 
REMARK       I    between atoms: O6_11  and  S2_34 
REMARK       I    between atoms: O6_13  and  C6_16 
REMARK       I    between atoms: C6_16  and  C5_76 
REMARK       I    between atoms: O2S_17  and  S1_21 
REMARK       I    between atoms: O4_18  and  C4_33 
REMARK       I    between atoms: C4_19  and  O4_25 
REMARK       I    between atoms: O3_20  and  C3_57 
REMARK       I    between atoms: S1_21  and  N_56 
REMARK       I    between atoms: S1_21  and  O1S_55 
REMARK       I    between atoms: S1_21  and  O3S_68 
REMARK       I    between atoms: O3_24  and  C3_80 
REMARK       I    between atoms: O4_25  and  C1_53 
REMARK       I    between atoms: S1_26  and  N_59 
REMARK       I    between atoms: S1_26  and  O1S_42 
REMARK       I    between atoms: S1_26  and  O2S_29 
REMARK       I    between atoms: S1_26  and  O3S_87 
REMARK       I    between atoms: S_30  and  O2_54 
REMARK       I    between atoms: C3_31  and  O3_61 
REMARK       I    between atoms: O4_36  and  C4_70 
REMARK       I    between atoms: O4_36  and  C1_52 
REMARK       I    between atoms: O2_37  and  C2_45 
REMARK       I    between atoms: C4_38  and  O4_71 
REMARK       I    between atoms: C1_39  and  O1_51 
REMARK       I    between atoms: C1_40  and  O4_71 
REMARK       I    between atoms: C6_46  and  C5_84 
REMARK       I    between atoms: C6_47  and  C5_64 
REMARK       I    between atoms: C1_48  and  O4_77 
REMARK       I    between atoms: O3_50  and  C3_86 
REMARK       I    between atoms: O2_54  and  C2_79 
REMARK       I    between atoms: N_56  and  C2_67 
REMARK       I    between atoms: C2_58  and  N_59 
REMARK       I    between atoms: C3_62  and  O3_81 
REMARK       I    between atoms: C4_69  and  O4_77 
ROOT
ATOM      1  C6  IDS d 506      23.533  18.122 107.091  0.00  0.00     0.206 C 
ATOM      2  O62 IDS d 506      23.569  17.196 106.300  0.00  0.00    -0.646 OA
ATOM      3  S   IDS d 506      19.659  23.028 106.567  0.00  0.00     0.252 S 
ATOM      4  O1S IDS d 506      19.524  22.675 105.187  0.00  0.00    -0.572 OA
ATOM      5  O3S IDS d 506      19.958  24.429 106.770  0.00  0.00    -0.572 OA
ATOM      6  O4  IDS d 506      21.016  19.335 105.997  0.00  0.00    -0.390 OA
ATOM      7  O3  IDS d 506      23.165  21.660 104.323  0.00  0.00    -0.390 OA
ATOM      8  C4  IDS d 506      22.273  19.786 105.551  0.00  0.00     0.097 C 
ATOM      9  O2  IDS d 506      20.945  22.242 107.070  0.00  0.00    -0.244 OA
ATOM     10  C2  IDS d 506      22.233  22.205 106.488  0.00  0.00     0.134 C 
ATOM     11  C1  IDS d 506      23.263  21.717 107.516  0.00  0.00     0.161 C 
ATOM     12  O2S IDS d 506      18.531  22.573 107.329  0.00  0.00    -0.572 OA
ATOM     13  O5  IDS d 506      23.043  20.349 107.749  0.00  0.00    -0.340 OA
ATOM     14  O61 IDS d 506      23.689  17.869 108.278  0.00  0.00    -0.646 OA
ATOM     15  C3  IDS d 506      22.134  21.291 105.235  0.00  0.00     0.094 C 
ATOM     16  C5  IDS d 506      23.323  19.557 106.643  0.00  0.00     0.152 C 
ATOM     17  H   IDS d 506      20.354  19.482 105.302  0.00  0.00     0.210 HD
ATOM     18  H   IDS d 506      23.116  21.097 103.534  0.00  0.00     0.210 HD
ATOM     19  H   IDS d 506      22.588  19.253 104.678  0.00  0.00     0.091 H 
ATOM     20  H   IDS d 506      22.567  23.175 106.184  0.00  0.00     0.097 H 
ATOM     21  H   IDS d 506      24.255  21.887 107.153  0.00  0.00     0.133 H 
ATOM     22  H   IDS d 506      21.157  21.433 104.822  0.00  0.00     0.091 H 
ATOM     23  H   IDS d 506      24.245  19.834 106.176  0.00  0.00     0.104 H 
ATOM     24  O62 IDS d 502      34.076  30.258 104.690  0.00  0.00    -0.646 OA
ATOM     25  O2  IDS d 502      32.355  32.277 109.678  0.00  0.00    -0.244 OA
ATOM     26  S   IDS d 502      31.041  32.831 110.321  0.00  0.00     0.252 S 
ATOM     27  O3  IDS d 502      33.809  34.309 107.107  0.00  0.00    -0.390 OA
ATOM     28  O2S IDS d 502      30.061  31.778 110.185  0.00  0.00    -0.572 OA
ATOM     29  C4  IDS d 502      32.796  32.156 106.747  0.00  0.00     0.103 C 
ATOM     30  C1  IDS d 502      34.620  32.118 108.997  0.00  0.00     0.158 C 
ATOM     31  O61 IDS d 502      34.228  29.037 106.358  0.00  0.00    -0.646 OA
ATOM     32  C6  IDS d 502      34.141  30.150 105.899  0.00  0.00     0.206 C 
ATOM     33  O1  IDS d 502      35.707  32.920 108.617  0.00  0.00    -0.368 OA
ATOM     34  C3  IDS d 502      32.885  33.392 107.662  0.00  0.00     0.094 C 
ATOM     35  O3S IDS d 502      31.395  33.121 111.687  0.00  0.00    -0.572 OA
ATOM     36  O5  IDS d 502      34.425  31.027 108.132  0.00  0.00    -0.340 OA
ATOM     37  C2  IDS d 502      33.381  33.005 109.058  0.00  0.00     0.134 C 
ATOM     38  O4  IDS d 502      31.744  31.330 107.172  0.00  0.00    -0.348 OA
ATOM     39  O1S IDS d 502      30.676  34.014 109.594  0.00  0.00    -0.572 OA
ATOM     40  C5  IDS d 502      34.108  31.376 106.799  0.00  0.00     0.152 C 
ATOM     41  H   IDS d 502      33.514  34.568 106.220  0.00  0.00     0.210 HD
ATOM     42  H   IDS d 502      32.615  32.476 105.742  0.00  0.00     0.092 H 
ATOM     43  H   IDS d 502      34.821  31.690 109.956  0.00  0.00     0.133 H 
ATOM     44  H   IDS d 502      35.531  33.311 107.746  0.00  0.00     0.212 HD
ATOM     45  H   IDS d 502      31.909  33.824 107.742  0.00  0.00     0.091 H 
ATOM     46  H   IDS d 502      33.636  33.895 109.594  0.00  0.00     0.097 H 
ATOM     47  H   IDS d 502      34.855  32.038 106.414  0.00  0.00     0.104 H 
ATOM     48  S2  SGN d 505      21.147  24.329 112.174  0.00  0.00     0.251 S 
ATOM     49  O6  SGN d 505      22.371  23.923 111.366  0.00  0.00    -0.254 OA
ATOM     50  O5S SGN d 505      21.650  24.545 113.508  0.00  0.00    -0.572 OA
ATOM     51  C6  SGN d 505      22.960  24.625 110.325  0.00  0.00     0.067 C 
ATOM     52  O2S SGN d 505      27.715  19.939 112.453  0.00  0.00    -0.296 OA
ATOM     53  S1  SGN d 505      28.411  21.126 112.014  0.00  0.00     0.156 S 
ATOM     54  O6S SGN d 505      20.626  25.547 111.570  0.00  0.00    -0.572 OA
ATOM     55  O4  SGN d 505      23.064  22.396 108.708  0.00  0.00    -0.348 OA
ATOM     56  O5  SGN d 505      25.041  24.057 111.159  0.00  0.00    -0.349 OA
ATOM     57  O4S SGN d 505      20.239  23.211 112.050  0.00  0.00    -0.572 OA
ATOM     58  C1  SGN d 505      26.342  23.569 110.992  0.00  0.00     0.150 C 
ATOM     59  O1S SGN d 505      28.256  22.231 112.936  0.00  0.00    -0.296 OA
ATOM     60  N   SGN d 505      27.667  21.557 110.576  0.00  0.00    -0.210 NA
ATOM     61  C3  SGN d 505      25.415  21.850 109.406  0.00  0.00     0.083 C 
ATOM     62  C2  SGN d 505      26.288  22.092 110.653  0.00  0.00     0.081 C 
ATOM     63  O3S SGN d 505      29.769  20.845 111.709  0.00  0.00    -0.296 OA
ATOM     64  C4  SGN d 505      24.019  22.447 109.748  0.00  0.00     0.095 C 
ATOM     65  C5  SGN d 505      24.233  23.898 110.033  0.00  0.00     0.091 C 
ATOM     66  O3  SGN d 505      25.319  20.448 109.188  0.00  0.00    -0.391 OA
ATOM     67  H   SGN d 505      23.163  25.633 110.620  0.00  0.00     0.080 H 
ATOM     68  H   SGN d 505      22.324  24.677 109.467  0.00  0.00     0.080 H 
ATOM     69  H   SGN d 505      26.792  20.163 112.653  0.00  0.00     0.231 HD
ATOM     70  H   SGN d 505      26.889  23.686 111.905  0.00  0.00     0.131 H 
ATOM     71  H   SGN d 505      27.312  22.378 113.108  0.00  0.00     0.231 HD
ATOM     72  H   SGN d 505      27.639  20.725 109.985  0.00  0.00     0.140 HD
ATOM     73  H   SGN d 505      25.818  22.300 108.522  0.00  0.00     0.089 H 
ATOM     74  H   SGN d 505      25.800  21.539 111.428  0.00  0.00     0.076 H 
ATOM     75  H   SGN d 505      29.814  20.099 111.090  0.00  0.00     0.231 HD
ATOM     76  H   SGN d 505      23.634  21.862 110.557  0.00  0.00     0.091 H 
ATOM     77  H   SGN d 505      24.685  24.300 109.151  0.00  0.00     0.090 H 
ATOM     78  H   SGN d 505      24.956  20.022 109.980  0.00  0.00     0.210 HD
ATOM     79  C6  SGN d 503      31.820  27.289 106.451  0.00  0.00     0.067 C 
ATOM     80  O6  SGN d 503      31.085  26.856 105.328  0.00  0.00    -0.254 OA
ATOM     81  C4  SGN d 503      29.728  28.478 107.322  0.00  0.00     0.095 C 
ATOM     82  O5  SGN d 503      31.378  29.459 105.850  0.00  0.00    -0.349 OA
ATOM     83  O4  SGN d 503      29.628  27.680 108.456  0.00  0.00    -0.348 OA
ATOM     84  S1  SGN d 503      28.568  33.055 105.502  0.00  0.00     0.156 S 
ATOM     85  O4S SGN d 503      32.650  25.149 104.651  0.00  0.00    -0.572 OA
ATOM     86  O2S SGN d 503      27.579  32.295 104.739  0.00  0.00    -0.296 OA
ATOM     87  C3  SGN d 503      29.174  29.862 107.653  0.00  0.00     0.083 C 
ATOM     88  S2  SGN d 503      31.651  26.027 104.144  0.00  0.00     0.251 S 
ATOM     89  O5S SGN d 503      30.530  25.297 103.559  0.00  0.00    -0.572 OA
ATOM     90  C1  SGN d 503      30.977  30.775 106.138  0.00  0.00     0.150 C 
ATOM     91  O1S SGN d 503      29.765  33.323 104.728  0.00  0.00    -0.296 OA
ATOM     92  O6S SGN d 503      32.238  26.997 103.305  0.00  0.00    -0.572 OA
ATOM     93  C2  SGN d 503      29.483  30.791 106.493  0.00  0.00     0.081 C 
ATOM     94  N   SGN d 503      29.040  32.146 106.767  0.00  0.00    -0.210 NA
ATOM     95  O3  SGN d 503      27.774  29.747 107.818  0.00  0.00    -0.391 OA
ATOM     96  C5  SGN d 503      31.210  28.583 106.921  0.00  0.00     0.091 C 
ATOM     97  O3S SGN d 503      28.036  34.244 106.129  0.00  0.00    -0.296 OA
ATOM     98  H   SGN d 503      31.765  26.556 107.229  0.00  0.00     0.080 H 
ATOM     99  H   SGN d 503      32.850  27.430 106.196  0.00  0.00     0.080 H 
ATOM    100  H   SGN d 503      29.172  28.058 106.510  0.00  0.00     0.091 H 
ATOM    101  H   SGN d 503      28.002  31.515 104.348  0.00  0.00     0.231 HD
ATOM    102  H   SGN d 503      29.613  30.251 108.548  0.00  0.00     0.089 H 
ATOM    103  H   SGN d 503      31.138  31.379 105.270  0.00  0.00     0.131 H 
ATOM    104  H   SGN d 503      30.082  32.498 104.328  0.00  0.00     0.231 HD
ATOM    105  H   SGN d 503      28.940  30.426 105.647  0.00  0.00     0.076 H 
ATOM    106  H   SGN d 503      28.251  32.084 107.410  0.00  0.00     0.140 HD
ATOM    107  H   SGN d 503      27.379  29.395 107.005  0.00  0.00     0.210 HD
ATOM    108  H   SGN d 503      31.689  28.910 107.820  0.00  0.00     0.090 H 
ATOM    109  H   SGN d 503      28.743  34.696 106.615  0.00  0.00     0.231 HD
ATOM    110  O61 IDS d 504      25.001  26.326 108.230  0.00  0.00    -0.646 OA
ATOM    111  O62 IDS d 504      24.937  27.577 109.922  0.00  0.00    -0.646 OA
ATOM    112  O3S IDS d 504      31.902  24.008 108.136  0.00  0.00    -0.572 OA
ATOM    113  S   IDS d 504      30.854  23.163 108.571  0.00  0.00     0.252 S 
ATOM    114  C6  IDS d 504      25.591  26.863 109.159  0.00  0.00     0.206 C 
ATOM    115  O3  IDS d 504      29.300  26.787 111.279  0.00  0.00    -0.390 OA
ATOM    116  C1  IDS d 504      29.158  26.387 108.203  0.00  0.00     0.161 C 
ATOM    117  O2  IDS d 504      29.667  24.125 108.761  0.00  0.00    -0.244 OA
ATOM    118  C5  IDS d 504      27.096  26.633 109.378  0.00  0.00     0.152 C 
ATOM    119  C4  IDS d 504      27.445  25.584 110.431  0.00  0.00     0.103 C 
ATOM    120  O5  IDS d 504      27.729  26.322 108.158  0.00  0.00    -0.340 OA
ATOM    121  O4  IDS d 504      27.015  24.300 110.003  0.00  0.00    -0.348 OA
ATOM    122  C2  IDS d 504      29.723  25.460 109.260  0.00  0.00     0.134 C 
ATOM    123  O1S IDS d 504      31.121  22.601 109.844  0.00  0.00    -0.572 OA
ATOM    124  O2S IDS d 504      30.454  22.162 107.625  0.00  0.00    -0.572 OA
ATOM    125  C3  IDS d 504      28.952  25.569 110.632  0.00  0.00     0.094 C 
ATOM    126  H   IDS d 504      28.825  26.852 112.122  0.00  0.00     0.210 HD
ATOM    127  H   IDS d 504      29.491  26.082 107.233  0.00  0.00     0.133 H 
ATOM    128  H   IDS d 504      27.462  27.560 109.767  0.00  0.00     0.104 H 
ATOM    129  H   IDS d 504      26.953  25.827 111.350  0.00  0.00     0.092 H 
ATOM    130  H   IDS d 504      30.735  25.746 109.459  0.00  0.00     0.097 H 
ATOM    131  H   IDS d 504      29.228  24.716 111.217  0.00  0.00     0.091 H 
ENDROOT
TORSDOF 40
ENDMDL
MODEL 2
REMARK VINA RESULT:     -11.6      3.630      6.700
REMARK  0 active torsions:
REMARK  status: ('A' for Active; 'I' for Inactive)
REMARK       I    between atoms: C6_1  and  C5_82 
REMARK       I    between atoms: O2_4  and  C2_65 
REMARK       I    between atoms: O2_4  and  S_6 
REMARK       I    between atoms: S2_5  and  O6_13 
REMARK       I    between atoms: C6_7  and  C5_66 
REMARK       I    between atoms: C6_7  and  O6_11 
REMARK       I    between atoms: S_8  and  O2_37 
REMARK       I    between atoms: O6_11  and  S2_34 
REMARK       I    between atoms: O6_13  and  C6_16 
REMARK       I    between atoms: C6_16  and  C5_76 
REMARK       I    between atoms: O2S_17  and  S1_21 
REMARK       I    between atoms: O4_18  and  C4_33 
REMARK       I    between atoms: C4_19  and  O4_25 
REMARK       I    between atoms: O3_20  and  C3_57 
REMARK       I    between atoms: S1_21  and  N_56 
REMARK       I    between atoms: S1_21  and  O1S_55 
REMARK       I    between atoms: S1_21  and  O3S_68 
REMARK       I    between atoms: O3_24  and  C3_80 
REMARK       I    between atoms: O4_25  and  C1_53 
REMARK       I    between atoms: S1_26  and  N_59 
REMARK       I    between atoms: S1_26  and  O1S_42 
REMARK       I    between atoms: S1_26  and  O2S_29 
REMARK       I    between atoms: S1_26  and  O3S_87 
REMARK       I    between atoms: S_30  and  O2_54 
REMARK       I    between atoms: C3_31  and  O3_61 
REMARK       I    between atoms: O4_36  and  C4_70 
REMARK       I    between atoms: O4_36  and  C1_52 
REMARK       I    between atoms: O2_37  and  C2_45 
REMARK       I    between atoms: C4_38  and  O4_71 
REMARK       I    between atoms: C1_39  and  O1_51 
REMARK       I    between atoms: C1_40  and  O4_71 
REMARK       I    between atoms: C6_46  and  C5_84 
REMARK       I    between atoms: C6_47  and  C5_64 
REMARK       I    between atoms: C1_48  and  O4_77 
REMARK       I    between atoms: O3_50  and  C3_86 
REMARK       I    between atoms: O2_54  and  C2_79 
REMARK       I    between atoms: N_56  and  C2_67 
REMARK       I    between atoms: C2_58  and  N_59 
REMARK       I    between atoms: C3_62  and  O3_81 
REMARK       I    between atoms: C4_69  and  O4_77 
ROOT
ATOM      1  C6  IDS d 506      18.451  16.602 111.276  0.00  0.00     0.206 C 
ATOM      2  O62 IDS d 506      18.297  15.452 111.649  0.00  0.00    -0.646 OA
ATOM      3  S   IDS d 506      18.352  18.373 105.258  0.00  0.00     0.252 S 
ATOM      4  O1S IDS d 506      18.604  17.003 104.932  0.00  0.00    -0.572 OA
ATOM      5  O3S IDS d 506      19.241  19.293 104.583  0.00  0.00    -0.572 OA
ATOM      6  O4  IDS d 506      17.634  16.091 108.434  0.00  0.00    -0.390 OA
ATOM      7  O3  IDS d 506      21.139  16.037 107.702  0.00  0.00    -0.390 OA
ATOM      8  C4  IDS d 506      18.993  16.045 108.800  0.00  0.00     0.097 C 
ATOM      9  O2  IDS d 506      18.702  18.501 106.803  0.00  0.00    -0.244 OA
ATOM     10  C2  IDS d 506      19.879  18.089 107.471  0.00  0.00     0.134 C 
ATOM     11  C1  IDS d 506      19.991  18.797 108.829  0.00  0.00     0.161 C 
ATOM     12  O2S IDS d 506      16.964  18.697 105.087  0.00  0.00    -0.572 OA
ATOM     13  O5  IDS d 506      19.007  18.273 109.684  0.00  0.00    -0.340 OA
ATOM     14  O61 IDS d 506      17.968  17.496 111.957  0.00  0.00    -0.646 OA
ATOM     15  C3  IDS d 506      19.811  16.541 107.589  0.00  0.00     0.094 C 
ATOM     16  C5  IDS d 506      19.231  16.943 110.019  0.00  0.00     0.152 C 
ATOM     17  H   IDS d 506      17.488  15.521 107.662  0.00  0.00     0.210 HD
ATOM     18  H   IDS d 506      21.113  15.070 107.777  0.00  0.00     0.210 HD
ATOM     19  H   IDS d 506      19.289  15.051 109.065  0.00  0.00     0.091 H 
ATOM     20  H   IDS d 506      20.764  18.357 106.933  0.00  0.00     0.097 H 
ATOM     21  H   IDS d 506      20.968  18.655 109.239  0.00  0.00     0.133 H 
ATOM     22  H   IDS d 506      19.315  16.183 106.711  0.00  0.00     0.091 H 
ATOM     23  H   IDS d 506      20.254  16.763 110.276  0.00  0.00     0.104 H 
ATOM     24  O62 IDS d 502      33.756  21.668 109.199  0.00  0.00    -0.646 OA
ATOM     25  O2  IDS d 502      31.577  26.824 108.433  0.00  0.00    -0.244 OA
ATOM     26  S   IDS d 502      30.632  27.553 107.421  0.00  0.00     0.252 S 
ATOM     27  O3  IDS d 502      34.757  25.798 107.134  0.00  0.00    -0.390 OA
ATOM     28  O2S IDS d 502      29.390  26.814 107.440  0.00  0.00    -0.572 OA
ATOM     29  C4  IDS d 502      32.995  24.298 107.793  0.00  0.00     0.103 C 
ATOM     30  C1  IDS d 502      33.461  26.345 109.789  0.00  0.00     0.158 C 
ATOM     31  O61 IDS d 502      32.566  22.473 110.694  0.00  0.00    -0.646 OA
ATOM     32  C6  IDS d 502      33.272  22.648 109.731  0.00  0.00     0.206 C 
ATOM     33  O1  IDS d 502      34.853  26.522 109.831  0.00  0.00    -0.368 OA
ATOM     34  C3  IDS d 502      33.359  25.724 107.336  0.00  0.00     0.094 C 
ATOM     35  O3S IDS d 502      30.516  28.896 107.929  0.00  0.00    -0.572 OA
ATOM     36  O5  IDS d 502      33.075  25.029 110.097  0.00  0.00    -0.340 OA
ATOM     37  C2  IDS d 502      32.978  26.755 108.402  0.00  0.00     0.134 C 
ATOM     38  O4  IDS d 502      31.598  24.150 107.806  0.00  0.00    -0.348 OA
ATOM     39  O1S IDS d 502      31.272  27.514 106.136  0.00  0.00    -0.572 OA
ATOM     40  C5  IDS d 502      33.545  24.047 109.195  0.00  0.00     0.152 C 
ATOM     41  H   IDS d 502      35.021  25.152 106.461  0.00  0.00     0.210 HD
ATOM     42  H   IDS d 502      33.423  23.592 107.113  0.00  0.00     0.092 H 
ATOM     43  H   IDS d 502      33.008  26.958 110.539  0.00  0.00     0.133 H 
ATOM     44  H   IDS d 502      35.270  25.968 109.153  0.00  0.00     0.212 HD
ATOM     45  H   IDS d 502      32.824  25.936 106.433  0.00  0.00     0.091 H 
ATOM     46  H   IDS d 502      33.431  27.692 108.156  0.00  0.00     0.097 H 
ATOM     47  H   IDS d 502      34.609  24.119 109.107  0.00  0.00     0.104 H 
ATOM     48  S2  SGN d 505      17.960  23.946 107.292  0.00  0.00     0.251 S 
ATOM     49  O6  SGN d 505      18.981  23.147 108.088  0.00  0.00    -0.254 OA
ATOM     50  O5S SGN d 505      17.929  25.236 107.935  0.00  0.00    -0.572 OA
ATOM     51  C6  SGN d 505      20.205  22.669 107.644  0.00  0.00     0.067 C 
ATOM     52  O2S SGN d 505      20.452  22.450 114.642  0.00  0.00    -0.296 OA
ATOM     53  S1  SGN d 505      21.778  22.744 114.150  0.00  0.00     0.156 S 
ATOM     54  O6S SGN d 505      18.452  24.018 105.923  0.00  0.00    -0.572 OA
ATOM     55  O4  SGN d 505      19.733  20.148 108.653  0.00  0.00    -0.348 OA
ATOM     56  O5  SGN d 505      21.138  23.255 109.676  0.00  0.00    -0.349 OA
ATOM     57  O4S SGN d 505      16.733  23.191 107.405  0.00  0.00    -0.572 OA
ATOM     58  C1  SGN d 505      21.922  22.966 110.799  0.00  0.00     0.150 C 
ATOM     59  O1S SGN d 505      21.886  24.088 113.622  0.00  0.00    -0.296 OA
ATOM     60  N   SGN d 505      22.012  21.680 112.876  0.00  0.00    -0.210 NA
ATOM     61  C3  SGN d 505      20.935  20.652 110.801  0.00  0.00     0.083 C 
ATOM     62  C2  SGN d 505      21.230  21.911 111.639  0.00  0.00     0.081 C 
ATOM     63  O3S SGN d 505      22.768  22.449 115.123  0.00  0.00    -0.296 OA
ATOM     64  C4  SGN d 505      20.069  21.138 109.602  0.00  0.00     0.095 C 
ATOM     65  C5  SGN d 505      20.888  22.148 108.866  0.00  0.00     0.091 C 
ATOM     66  O3  SGN d 505      20.204  19.735 111.605  0.00  0.00    -0.391 OA
ATOM     67  H   SGN d 505      20.776  23.457 107.200  0.00  0.00     0.080 H 
ATOM     68  H   SGN d 505      20.091  21.912 106.896  0.00  0.00     0.080 H 
ATOM     69  H   SGN d 505      19.799  22.661 113.956  0.00  0.00     0.231 HD
ATOM     70  H   SGN d 505      22.037  23.849 111.394  0.00  0.00     0.131 H 
ATOM     71  H   SGN d 505      21.188  24.234 112.964  0.00  0.00     0.231 HD
ATOM     72  H   SGN d 505      21.781  20.745 113.214  0.00  0.00     0.140 HD
ATOM     73  H   SGN d 505      21.823  20.163 110.458  0.00  0.00     0.089 H 
ATOM     74  H   SGN d 505      20.266  22.247 111.959  0.00  0.00     0.076 H 
ATOM     75  H   SGN d 505      22.649  21.540 115.440  0.00  0.00     0.231 HD
ATOM     76  H   SGN d 505      19.152  21.495 110.022  0.00  0.00     0.091 H 
ATOM     77  H   SGN d 505      21.788  21.639 108.587  0.00  0.00     0.090 H 
ATOM     78  H   SGN d 505      19.394  20.161 111.926  0.00  0.00     0.210 HD
ATOM     79  C6  SGN d 503      29.793  21.456 110.323  0.00  0.00     0.067 C 
ATOM     80  O6  SGN d 503      29.452  20.215 109.746  0.00  0.00    -0.254 OA
ATOM     81  C4  SGN d 503      28.512  22.643 108.453  0.00  0.00     0.095 C 
ATOM     82  O5  SGN d 503      30.849  22.027 108.368  0.00  0.00    -0.349 OA
ATOM     83  O4  SGN d 503      27.568  23.190 109.315  0.00  0.00    -0.348 OA
ATOM     84  S1  SGN d 503      30.785  23.359 103.990  0.00  0.00     0.156 S 
ATOM     85  O4S SGN d 503      29.987  18.883 111.686  0.00  0.00    -0.572 OA
ATOM     86  O2S SGN d 503      29.938  22.236 103.589  0.00  0.00    -0.296 OA
ATOM     87  C3  SGN d 503      28.701  23.594 107.274  0.00  0.00     0.083 C 
ATOM     88  S2  SGN d 503      29.901  18.824 110.266  0.00  0.00     0.251 S 
ATOM     89  O5S SGN d 503      28.902  17.857 109.820  0.00  0.00    -0.572 OA
ATOM     90  C1  SGN d 503      31.134  22.920 107.320  0.00  0.00     0.150 C 
ATOM     91  O1S SGN d 503      32.130  22.933 104.327  0.00  0.00    -0.296 OA
ATOM     92  O6S SGN d 503      31.187  18.656 109.709  0.00  0.00    -0.572 OA
ATOM     93  C2  SGN d 503      29.881  23.109 106.453  0.00  0.00     0.081 C 
ATOM     94  N   SGN d 503      30.160  24.007 105.346  0.00  0.00    -0.210 NA
ATOM     95  O3  SGN d 503      27.523  23.563 106.490  0.00  0.00    -0.391 OA
ATOM     96  C5  SGN d 503      29.838  22.474 109.216  0.00  0.00     0.091 C 
ATOM     97  O3S SGN d 503      30.771  24.464 103.058  0.00  0.00    -0.296 OA
ATOM     98  H   SGN d 503      29.057  21.737 111.048  0.00  0.00     0.080 H 
ATOM     99  H   SGN d 503      30.741  21.395 110.816  0.00  0.00     0.080 H 
ATOM    100  H   SGN d 503      28.190  21.689 108.092  0.00  0.00     0.091 H 
ATOM    101  H   SGN d 503      29.995  21.534 104.256  0.00  0.00     0.231 HD
ATOM    102  H   SGN d 503      28.885  24.594 107.609  0.00  0.00     0.089 H 
ATOM    103  H   SGN d 503      31.916  22.503 106.720  0.00  0.00     0.131 H 
ATOM    104  H   SGN d 503      32.087  22.193 104.952  0.00  0.00     0.231 HD
ATOM    105  H   SGN d 503      29.611  22.156 106.050  0.00  0.00     0.076 H 
ATOM    106  H   SGN d 503      29.282  24.460 105.092  0.00  0.00     0.140 HD
ATOM    107  H   SGN d 503      27.359  22.656 106.188  0.00  0.00     0.210 HD
ATOM    108  H   SGN d 503      30.018  23.449 109.620  0.00  0.00     0.090 H 
ATOM    109  H   SGN d 503      31.351  25.169 103.385  0.00  0.00     0.231 HD
ATOM    110  O61 IDS d 504      23.463  21.925 107.115  0.00  0.00    -0.646 OA
ATOM    111  O62 IDS d 504      23.415  24.008 106.816  0.00  0.00    -0.646 OA
ATOM    112  O3S IDS d 504      27.452  21.207 113.163  0.00  0.00    -0.572 OA
ATOM    113  S   IDS d 504      26.045  21.057 113.194  0.00  0.00     0.252 S 
ATOM    114  C6  IDS d 504      23.826  23.042 107.461  0.00  0.00     0.206 C 
ATOM    115  O3  IDS d 504      25.740  25.110 110.674  0.00  0.00    -0.390 OA
ATOM    116  C1  IDS d 504      26.628  22.269 109.789  0.00  0.00     0.161 C 
ATOM    117  O2  IDS d 504      25.590  21.619 111.835  0.00  0.00    -0.244 OA
ATOM    118  C5  IDS d 504      24.748  23.232 108.677  0.00  0.00     0.152 C 
ATOM    119  C4  IDS d 504      24.040  23.617 109.974  0.00  0.00     0.103 C 
ATOM    120  O5  IDS d 504      25.538  22.082 108.881  0.00  0.00    -0.340 OA
ATOM    121  O4  IDS d 504      23.204  22.555 110.408  0.00  0.00    -0.348 OA
ATOM    122  C2  IDS d 504      26.145  22.738 111.147  0.00  0.00     0.134 C 
ATOM    123  O1S IDS d 504      25.447  21.874 114.186  0.00  0.00    -0.572 OA
ATOM    124  O2S IDS d 504      25.585  19.702 113.279  0.00  0.00    -0.572 OA
ATOM    125  C3  IDS d 504      25.086  23.902 111.041  0.00  0.00     0.094 C 
ATOM    126  H   IDS d 504      25.086  25.824 110.609  0.00  0.00     0.210 HD
ATOM    127  H   IDS d 504      27.096  21.311 109.878  0.00  0.00     0.133 H 
ATOM    128  H   IDS d 504      25.363  24.071 108.428  0.00  0.00     0.104 H 
ATOM    129  H   IDS d 504      23.439  24.486 109.805  0.00  0.00     0.092 H 
ATOM    130  H   IDS d 504      26.978  23.137 111.686  0.00  0.00     0.097 H 
ATOM    131  H   IDS d 504      24.611  23.983 111.996  0.00  0.00     0.091 H 
ENDROOT
TORSDOF 40
ENDMDL
MODEL 3
REMARK VINA RESULT:     -11.6      1.138      1.217
REMARK  0 active torsions:
REMARK  status: ('A' for Active; 'I' for Inactive)
REMARK       I    between atoms: C6_1  and  C5_82 
REMARK       I    between atoms: O2_4  and  C2_65 
REMARK       I    between atoms: O2_4  and  S_6 
REMARK       I    between atoms: S2_5  and  O6_13 
REMARK       I    between atoms: C6_7  and  C5_66 
REMARK       I    between atoms: C6_7  and  O6_11 
REMARK       I    between atoms: S_8  and  O2_37 
REMARK       I    between atoms: O6_11  and  S2_34 
REMARK       I    between atoms: O6_13  and  C6_16 
REMARK       I    between atoms: C6_16  and  C5_76 
REMARK       I    between atoms: O2S_17  and  S1_21 
REMARK       I    between atoms: O4_18  and  C4_33 
REMARK       I    between atoms: C4_19  and  O4_25 
REMARK       I    between atoms: O3_20  and  C3_57 
REMARK       I    between atoms: S1_21  and  N_56 
REMARK       I    between atoms: S1_21  and  O1S_55 
REMARK       I    between atoms: S1_21  and  O3S_68 
REMARK       I    between atoms: O3_24  and  C3_80 
REMARK       I    between atoms: O4_25  and  C1_53 
REMARK       I    between atoms: S1_26  and  N_59 
REMARK       I    between atoms: S1_26  and  O1S_42 
REMARK       I    between atoms: S1_26  and  O2S_29 
REMARK       I    between atoms: S1_26  and  O3S_87 
REMARK       I    between atoms: S_30  and  O2_54 
REMARK       I    between atoms: C3_31  and  O3_61 
REMARK       I    between atoms: O4_36  and  C4_70 
REMARK       I    between atoms: O4_36  and  C1_52 
REMARK       I    between atoms: O2_37  and  C2_45 
REMARK       I    between atoms: C4_38  and  O4_71 
REMARK       I    between atoms: C1_39  and  O1_51 
REMARK       I    between atoms: C1_40  and  O4_71 
REMARK       I    between atoms: C6_46  and  C5_84 
REMARK       I    between atoms: C6_47  and  C5_64 
REMARK       I    between atoms: C1_48  and  O4_77 
REMARK       I    between atoms: O3_50  and  C3_86 
REMARK       I    between atoms: O2_54  and  C2_79 
REMARK       I    between atoms: N_56  and  C2_67 
REMARK       I    between atoms: C2_58  and  N_59 
REMARK       I    between atoms: C3_62  and  O3_81 
REMARK       I    between atoms: C4_69  and  O4_77 
ROOT
ATOM      1  C6  IDS d 506      24.848  17.022 106.409  0.00  0.00     0.206 C 
ATOM      2  O62 IDS d 506      25.026  16.160 105.566  0.00  0.00    -0.646 OA
ATOM      3  S   IDS d 506      20.279  21.310 106.121  0.00  0.00     0.252 S 
ATOM      4  O1S IDS d 506      20.203  21.023 104.721  0.00  0.00    -0.572 OA
ATOM      5  O3S IDS d 506      20.363  22.726 106.408  0.00  0.00    -0.572 OA
ATOM      6  O4  IDS d 506      22.180  17.903 105.356  0.00  0.00    -0.390 OA
ATOM      7  O3  IDS d 506      23.959  20.620 103.845  0.00  0.00    -0.390 OA
ATOM      8  C4  IDS d 506      23.357  18.565 104.952  0.00  0.00     0.097 C 
ATOM      9  O2  IDS d 506      21.667  20.698 106.594  0.00  0.00    -0.244 OA
ATOM     10  C2  IDS d 506      22.948  20.890 106.026  0.00  0.00     0.134 C 
ATOM     11  C1  IDS d 506      24.037  20.503 107.037  0.00  0.00     0.161 C 
ATOM     12  O2S IDS d 506      19.230  20.647 106.841  0.00  0.00    -0.572 OA
ATOM     13  O5  IDS d 506      24.024  19.106 107.188  0.00  0.00    -0.340 OA
ATOM     14  O61 IDS d 506      25.036  16.725 107.581  0.00  0.00    -0.646 OA
ATOM     15  C3  IDS d 506      22.992  20.047 104.721  0.00  0.00     0.094 C 
ATOM     16  C5  IDS d 506      24.425  18.432 106.042  0.00  0.00     0.152 C 
ATOM     17  H   IDS d 506      21.507  17.990 104.663  0.00  0.00     0.210 HD
ATOM     18  H   IDS d 506      23.999  20.104 103.025  0.00  0.00     0.210 HD
ATOM     19  H   IDS d 506      23.752  18.137 104.054  0.00  0.00     0.091 H 
ATOM     20  H   IDS d 506      23.133  21.916 105.783  0.00  0.00     0.097 H 
ATOM     21  H   IDS d 506      24.993  20.841 106.696  0.00  0.00     0.133 H 
ATOM     22  H   IDS d 506      22.007  20.064 104.305  0.00  0.00     0.091 H 
ATOM     23  H   IDS d 506      25.296  18.872 105.603  0.00  0.00     0.104 H 
ATOM     24  O62 IDS d 502      33.446  30.727 104.842  0.00  0.00    -0.646 OA
ATOM     25  O2  IDS d 502      31.421  32.166 109.916  0.00  0.00    -0.244 OA
ATOM     26  S   IDS d 502      30.037  32.477 110.574  0.00  0.00     0.252 S 
ATOM     27  O3  IDS d 502      32.561  34.541 107.485  0.00  0.00    -0.390 OA
ATOM     28  O2S IDS d 502      29.228  31.299 110.365  0.00  0.00    -0.572 OA
ATOM     29  C4  IDS d 502      31.886  32.286 106.989  0.00  0.00     0.103 C 
ATOM     30  C1  IDS d 502      33.687  32.390 109.255  0.00  0.00     0.158 C 
ATOM     31  O61 IDS d 502      33.774  29.446 106.439  0.00  0.00    -0.646 OA
ATOM     32  C6  IDS d 502      33.522  30.558 106.043  0.00  0.00     0.206 C 
ATOM     33  O1  IDS d 502      34.642  33.368 108.935  0.00  0.00    -0.368 OA
ATOM     34  C3  IDS d 502      31.785  33.465 107.975  0.00  0.00     0.094 C 
ATOM     35  O3S IDS d 502      30.338  32.737 111.958  0.00  0.00    -0.572 OA
ATOM     36  O5  IDS d 502      33.662  31.335 108.327  0.00  0.00    -0.340 OA
ATOM     37  C2  IDS d 502      32.328  33.076 109.353  0.00  0.00     0.134 C 
ATOM     38  O4  IDS d 502      30.969  31.287 107.353  0.00  0.00    -0.348 OA
ATOM     39  O1S IDS d 502      29.500  33.633 109.912  0.00  0.00    -0.572 OA
ATOM     40  C5  IDS d 502      33.301  31.711 107.012  0.00  0.00     0.152 C 
ATOM     41  H   IDS d 502      32.234  34.805 106.611  0.00  0.00     0.210 HD
ATOM     42  H   IDS d 502      31.663  32.634 106.002  0.00  0.00     0.092 H 
ATOM     43  H   IDS d 502      33.947  31.942 110.191  0.00  0.00     0.133 H 
ATOM     44  H   IDS d 502      34.412  33.779 108.087  0.00  0.00     0.212 HD
ATOM     45  H   IDS d 502      30.754  33.740 108.067  0.00  0.00     0.091 H 
ATOM     46  H   IDS d 502      32.444  33.961 109.942  0.00  0.00     0.097 H 
ATOM     47  H   IDS d 502      33.941  32.499 106.675  0.00  0.00     0.104 H 
ATOM     48  S2  SGN d 505      21.534  22.488 111.811  0.00  0.00     0.251 S 
ATOM     49  O6  SGN d 505      22.808  22.320 110.996  0.00  0.00    -0.254 OA
ATOM     50  O5S SGN d 505      21.994  22.699 113.162  0.00  0.00    -0.572 OA
ATOM     51  C6  SGN d 505      23.288  23.162 110.005  0.00  0.00     0.067 C 
ATOM     52  O2S SGN d 505      28.688  19.129 111.918  0.00  0.00    -0.296 OA
ATOM     53  S1  SGN d 505      29.199  20.430 111.557  0.00  0.00     0.156 S 
ATOM     54  O6S SGN d 505      20.837  23.648 111.272  0.00  0.00    -0.572 OA
ATOM     55  O4  SGN d 505      23.733  21.073 108.264  0.00  0.00    -0.348 OA
ATOM     56  O5  SGN d 505      25.428  22.866 110.831  0.00  0.00    -0.349 OA
ATOM     57  O4S SGN d 505      20.805  21.256 111.612  0.00  0.00    -0.572 OA
ATOM     58  C1  SGN d 505      26.788  22.590 110.652  0.00  0.00     0.150 C 
ATOM     59  O1S SGN d 505      28.875  21.444 112.539  0.00  0.00    -0.296 OA
ATOM     60  N   SGN d 505      28.403  20.828 110.137  0.00  0.00    -0.210 NA
ATOM     61  C3  SGN d 505      26.137  20.847 108.958  0.00  0.00     0.083 C 
ATOM     62  C2  SGN d 505      26.959  21.144 110.228  0.00  0.00     0.081 C 
ATOM     63  O3S SGN d 505      30.585  20.376 111.253  0.00  0.00    -0.296 OA
ATOM     64  C4  SGN d 505      24.665  21.206 109.316  0.00  0.00     0.095 C 
ATOM     65  C5  SGN d 505      24.657  22.653 109.688  0.00  0.00     0.091 C 
ATOM     66  O3  SGN d 505      26.254  19.462 108.659  0.00  0.00    -0.391 OA
ATOM     67  H   SGN d 505      23.335  24.170 110.360  0.00  0.00     0.080 H 
ATOM     68  H   SGN d 505      22.654  23.168 109.143  0.00  0.00     0.080 H 
ATOM     69  H   SGN d 505      27.741  19.198 112.119  0.00  0.00     0.231 HD
ATOM     70  H   SGN d 505      27.308  22.734 111.577  0.00  0.00     0.131 H 
ATOM     71  H   SGN d 505      27.919  21.436 112.707  0.00  0.00     0.231 HD
ATOM     72  H   SGN d 505      28.503  20.038 109.499  0.00  0.00     0.140 HD
ATOM     73  H   SGN d 505      26.470  21.404 108.107  0.00  0.00     0.089 H 
ATOM     74  H   SGN d 505      26.558  20.479 110.963  0.00  0.00     0.076 H 
ATOM     75  H   SGN d 505      30.744  19.683 110.593  0.00  0.00     0.231 HD
ATOM     76  H   SGN d 505      24.370  20.524 110.086  0.00  0.00     0.091 H 
ATOM     77  H   SGN d 505      25.046  23.170 108.836  0.00  0.00     0.090 H 
ATOM     78  H   SGN d 505      25.957  18.941 109.420  0.00  0.00     0.210 HD
ATOM     79  C6  SGN d 503      31.657  27.353 106.401  0.00  0.00     0.067 C 
ATOM     80  O6  SGN d 503      31.000  26.881 105.245  0.00  0.00    -0.254 OA
ATOM     81  C4  SGN d 503      29.407  28.160 107.313  0.00  0.00     0.095 C 
ATOM     82  O5  SGN d 503      30.895  29.463 105.921  0.00  0.00    -0.349 OA
ATOM     83  O4  SGN d 503      29.425  27.291 108.398  0.00  0.00    -0.348 OA
ATOM     84  S1  SGN d 503      27.575  32.609 105.746  0.00  0.00     0.156 S 
ATOM     85  O4S SGN d 503      32.808  25.472 104.491  0.00  0.00    -0.572 OA
ATOM     86  O2S SGN d 503      26.715  31.756 104.928  0.00  0.00    -0.296 OA
ATOM     87  C3  SGN d 503      28.649  29.423 107.716  0.00  0.00     0.083 C 
ATOM     88  S2  SGN d 503      31.689  26.217 104.023  0.00  0.00     0.251 S 
ATOM     89  O5S SGN d 503      30.693  25.364 103.383  0.00  0.00    -0.572 OA
ATOM     90  C1  SGN d 503      30.299  30.685 106.279  0.00  0.00     0.150 C 
ATOM     91  O1S SGN d 503      28.721  33.099 105.003  0.00  0.00    -0.296 OA
ATOM     92  O6S SGN d 503      32.126  27.313 103.248  0.00  0.00    -0.572 OA
ATOM     93  C2  SGN d 503      28.819  30.454 106.616  0.00  0.00     0.081 C 
ATOM     94  N   SGN d 503      28.175  31.709 106.962  0.00  0.00    -0.210 NA
ATOM     95  O3  SGN d 503      27.281  29.090 107.858  0.00  0.00    -0.391 OA
ATOM     96  C5  SGN d 503      30.857  28.510 106.937  0.00  0.00     0.091 C 
ATOM     97  O3S SGN d 503      26.868  33.666 106.433  0.00  0.00    -0.296 OA
ATOM     98  H   SGN d 503      31.711  26.576 107.134  0.00  0.00     0.080 H 
ATOM     99  H   SGN d 503      32.655  27.662 106.168  0.00  0.00     0.080 H 
ATOM    100  H   SGN d 503      28.924  27.710 106.471  0.00  0.00     0.091 H 
ATOM    101  H   SGN d 503      27.252  31.072 104.498  0.00  0.00     0.231 HD
ATOM    102  H   SGN d 503      29.021  29.820 108.638  0.00  0.00     0.089 H 
ATOM    103  H   SGN d 503      30.370  31.356 105.449  0.00  0.00     0.131 H 
ATOM    104  H   SGN d 503      29.161  32.357 104.561  0.00  0.00     0.231 HD
ATOM    105  H   SGN d 503      28.340  30.062 105.744  0.00  0.00     0.076 H 
ATOM    106  H   SGN d 503      27.402  31.491 107.591  0.00  0.00     0.140 HD
ATOM    107  H   SGN d 503      26.948  28.730 107.021  0.00  0.00     0.210 HD
ATOM    108  H   SGN d 503      31.279  28.852 107.859  0.00  0.00     0.090 H 
ATOM    109  H   SGN d 503      27.497  34.190 106.954  0.00  0.00     0.231 HD
ATOM    110  O61 IDS d 504      25.056  25.271 108.037  0.00  0.00    -0.646 OA
ATOM    111  O62 IDS d 504      24.798  26.397 109.798  0.00  0.00    -0.646 OA
ATOM    112  O3S IDS d 504      32.228  24.029 107.895  0.00  0.00    -0.572 OA
ATOM    113  S   IDS d 504      31.318  23.011 108.268  0.00  0.00     0.252 S 
ATOM    114  C6  IDS d 504      25.555  25.835 109.003  0.00  0.00     0.206 C 
ATOM    115  O3  IDS d 504      29.226  26.194 111.160  0.00  0.00    -0.390 OA
ATOM    116  C1  IDS d 504      29.156  25.959 108.065  0.00  0.00     0.161 C 
ATOM    117  O2  IDS d 504      29.999  23.770 108.498  0.00  0.00    -0.244 OA
ATOM    118  C5  IDS d 504      27.076  25.823 109.227  0.00  0.00     0.152 C 
ATOM    119  C4  IDS d 504      27.576  24.778 110.222  0.00  0.00     0.103 C 
ATOM    120  O5  IDS d 504      27.754  25.683 107.998  0.00  0.00    -0.340 OA
ATOM    121  O4  IDS d 504      27.347  23.471 109.716  0.00  0.00    -0.348 OA
ATOM    122  C2  IDS d 504      29.851  25.067 109.074  0.00  0.00     0.134 C 
ATOM    123  O1S IDS d 504      31.662  22.421 109.510  0.00  0.00    -0.572 OA
ATOM    124  O2S IDS d 504      31.077  22.019 107.261  0.00  0.00    -0.572 OA
ATOM    125  C3  IDS d 504      29.068  24.978 110.440  0.00  0.00     0.094 C 
ATOM    126  H   IDS d 504      28.743  26.137 112.000  0.00  0.00     0.210 HD
ATOM    127  H   IDS d 504      29.534  25.765 107.083  0.00  0.00     0.133 H 
ATOM    128  H   IDS d 504      27.297  26.769 109.673  0.00  0.00     0.104 H 
ATOM    129  H   IDS d 504      27.050  24.889 111.147  0.00  0.00     0.092 H 
ATOM    130  H   IDS d 504      30.807  25.490 109.302  0.00  0.00     0.097 H 
ATOM    131  H   IDS d 504      29.467  24.144 110.978  0.00  0.00     0.091 H 
ENDROOT
TORSDOF 40
ENDMDL
MODEL 4
REMARK VINA RESULT:     -11.4      4.645     11.155
REMARK  0 active torsions:
REMARK  status: ('A' for Active; 'I' for Inactive)
REMARK       I    between atoms: C6_1  and  C5_82 
REMARK       I    between atoms: O2_4  and  C2_65 
REMARK       I    between atoms: O2_4  and  S_6 
REMARK       I    between atoms: S2_5  and  O6_13 
REMARK       I    between atoms: C6_7  and  C5_66 
REMARK       I    between atoms: C6_7  and  O6_11 
REMARK       I    between atoms: S_8  and  O2_37 
REMARK       I    between atoms: O6_11  and  S2_34 
REMARK       I    between atoms: O6_13  and  C6_16 
REMARK       I    between atoms: C6_16  and  C5_76 
REMARK       I    between atoms: O2S_17  and  S1_21 
REMARK       I    between atoms: O4_18  and  C4_33 
REMARK       I    between atoms: C4_19  and  O4_25 
REMARK       I    between atoms: O3_20  and  C3_57 
REMARK       I    between atoms: S1_21  and  N_56 
REMARK       I    between atoms: S1_21  and  O1S_55 
REMARK       I    between atoms: S1_21  and  O3S_68 
REMARK       I    between atoms: O3_24  and  C3_80 
REMARK       I    between atoms: O4_25  and  C1_53 
REMARK       I    between atoms: S1_26  and  N_59 
REMARK       I    between atoms: S1_26  and  O1S_42 
REMARK       I    between atoms: S1_26  and  O2S_29 
REMARK       I    between atoms: S1_26  and  O3S_87 
REMARK       I    between atoms: S_30  and  O2_54 
REMARK       I    between atoms: C3_31  and  O3_61 
REMARK       I    between atoms: O4_36  and  C4_70 
REMARK       I    between atoms: O4_36  and  C1_52 
REMARK       I    between atoms: O2_37  and  C2_45 
REMARK       I    between atoms: C4_38  and  O4_71 
REMARK       I    between atoms: C1_39  and  O1_51 
REMARK       I    between atoms: C1_40  and  O4_71 
REMARK       I    between atoms: C6_46  and  C5_84 
REMARK       I    between atoms: C6_47  and  C5_64 
REMARK       I    between atoms: C1_48  and  O4_77 
REMARK       I    between atoms: O3_50  and  C3_86 
REMARK       I    between atoms: O2_54  and  C2_79 
REMARK       I    between atoms: N_56  and  C2_67 
REMARK       I    between atoms: C2_58  and  N_59 
REMARK       I    between atoms: C3_62  and  O3_81 
REMARK       I    between atoms: C4_69  and  O4_77 
ROOT
ATOM      1  C6  IDS d 506      33.105  25.260 111.189  0.00  0.00     0.206 C 
ATOM      2  O62 IDS d 506      33.876  25.764 111.987  0.00  0.00    -0.646 OA
ATOM      3  S   IDS d 506      33.137  26.488 105.038  0.00  0.00     0.252 S 
ATOM      4  O1S IDS d 506      33.861  27.680 105.358  0.00  0.00    -0.572 OA
ATOM      5  O3S IDS d 506      32.006  26.726 104.167  0.00  0.00    -0.572 OA
ATOM      6  O4  IDS d 506      34.549  26.234 108.746  0.00  0.00    -0.390 OA
ATOM      7  O3  IDS d 506      32.050  28.796 108.600  0.00  0.00    -0.390 OA
ATOM      8  C4  IDS d 506      33.480  26.979 109.282  0.00  0.00     0.097 C 
ATOM      9  O2  IDS d 506      32.518  25.998 106.416  0.00  0.00    -0.244 OA
ATOM     10  C2  IDS d 506      31.764  26.743 107.352  0.00  0.00     0.134 C 
ATOM     11  C1  IDS d 506      30.995  25.796 108.285  0.00  0.00     0.161 C 
ATOM     12  O2S IDS d 506      34.019  25.463 104.555  0.00  0.00    -0.572 OA
ATOM     13  O5  IDS d 506      31.919  25.167 109.136  0.00  0.00    -0.340 OA
ATOM     14  O61 IDS d 506      32.791  24.090 111.355  0.00  0.00    -0.646 OA
ATOM     15  C3  IDS d 506      32.763  27.667 108.101  0.00  0.00     0.094 C 
ATOM     16  C5  IDS d 506      32.522  26.044 110.028  0.00  0.00     0.152 C 
ATOM     17  H   IDS d 506      35.153  26.829 108.275  0.00  0.00     0.210 HD
ATOM     18  H   IDS d 506      32.662  29.383 109.071  0.00  0.00     0.210 HD
ATOM     19  H   IDS d 506      33.831  27.711 109.980  0.00  0.00     0.091 H 
ATOM     20  H   IDS d 506      31.018  27.349 106.880  0.00  0.00     0.097 H 
ATOM     21  H   IDS d 506      30.269  26.343 108.848  0.00  0.00     0.133 H 
ATOM     22  H   IDS d 506      33.520  27.944 107.397  0.00  0.00     0.091 H 
ATOM     23  H   IDS d 506      31.812  26.708 110.477  0.00  0.00     0.104 H 
ATOM     24  O62 IDS d 502      18.678  32.512 109.318  0.00  0.00    -0.646 OA
ATOM     25  O2  IDS d 502      17.241  28.058 106.152  0.00  0.00    -0.244 OA
ATOM     26  S   IDS d 502      17.682  27.392 104.808  0.00  0.00     0.252 S 
ATOM     27  O3  IDS d 502      15.698  31.281 105.864  0.00  0.00    -0.390 OA
ATOM     28  O2S IDS d 502      19.084  27.080 104.963  0.00  0.00    -0.572 OA
ATOM     29  C4  IDS d 502      17.859  30.876 106.842  0.00  0.00     0.103 C 
ATOM     30  C1  IDS d 502      15.870  29.017 107.832  0.00  0.00     0.158 C 
ATOM     31  O61 IDS d 502      18.813  30.618 110.152  0.00  0.00    -0.646 OA
ATOM     32  C6  IDS d 502      18.338  31.345 109.314  0.00  0.00     0.206 C 
ATOM     33  O1  IDS d 502      14.695  29.768 107.988  0.00  0.00    -0.368 OA
ATOM     34  C3  IDS d 502      16.771  30.359 105.882  0.00  0.00     0.094 C 
ATOM     35  O3S IDS d 502      16.839  26.231 104.679  0.00  0.00    -0.572 OA
ATOM     36  O5  IDS d 502      16.933  29.509 108.609  0.00  0.00    -0.340 OA
ATOM     37  C2  IDS d 502      16.226  29.006 106.349  0.00  0.00     0.134 C 
ATOM     38  O4  IDS d 502      19.010  30.081 106.722  0.00  0.00    -0.348 OA
ATOM     39  O1S IDS d 502      17.448  28.348 103.762  0.00  0.00    -0.572 OA
ATOM     40  C5  IDS d 502      17.350  30.820 108.281  0.00  0.00     0.152 C 
ATOM     41  H   IDS d 502      16.021  32.147 105.571  0.00  0.00     0.210 HD
ATOM     42  H   IDS d 502      18.096  31.889 106.591  0.00  0.00     0.092 H 
ATOM     43  H   IDS d 502      15.697  28.021 108.182  0.00  0.00     0.133 H 
ATOM     44  H   IDS d 502      14.845  30.673 107.672  0.00  0.00     0.212 HD
ATOM     45  H   IDS d 502      17.204  30.248 104.910  0.00  0.00     0.091 H 
ATOM     46  H   IDS d 502      15.339  28.780 105.796  0.00  0.00     0.097 H 
ATOM     47  H   IDS d 502      16.512  31.484 108.320  0.00  0.00     0.104 H 
ATOM     48  S2  SGN d 505      29.586  21.756 104.453  0.00  0.00     0.251 S 
ATOM     49  O6  SGN d 505      29.170  22.605 105.645  0.00  0.00    -0.254 OA
ATOM     50  O5S SGN d 505      28.688  20.628 104.480  0.00  0.00    -0.572 OA
ATOM     51  C6  SGN d 505      28.619  23.877 105.619  0.00  0.00     0.067 C 
ATOM     52  O2S SGN d 505      27.328  21.326 112.015  0.00  0.00    -0.296 OA
ATOM     53  S1  SGN d 505      26.225  22.176 111.634  0.00  0.00     0.156 S 
ATOM     54  O6S SGN d 505      29.410  22.580 103.264  0.00  0.00    -0.572 OA
ATOM     55  O4  SGN d 505      30.376  24.819 107.521  0.00  0.00    -0.348 OA
ATOM     56  O5  SGN d 505      27.183  23.257 107.322  0.00  0.00    -0.349 OA
ATOM     57  O4S SGN d 505      30.971  21.426 104.702  0.00  0.00    -0.572 OA
ATOM     58  C1  SGN d 505      26.570  23.487 108.559  0.00  0.00     0.150 C 
ATOM     59  O1S SGN d 505      25.395  21.578 110.609  0.00  0.00    -0.296 OA
ATOM     60  N   SGN d 505      26.939  23.541 110.975  0.00  0.00    -0.210 NA
ATOM     61  C3  SGN d 505      28.767  24.377 109.400  0.00  0.00     0.083 C 
ATOM     62  C2  SGN d 505      27.607  23.397 109.661  0.00  0.00     0.081 C 
ATOM     63  O3S SGN d 505      25.485  22.602 112.768  0.00  0.00    -0.296 OA
ATOM     64  C4  SGN d 505      29.333  23.997 108.001  0.00  0.00     0.095 C 
ATOM     65  C5  SGN d 505      28.209  24.155 107.029  0.00  0.00     0.091 C 
ATOM     66  O3  SGN d 505      29.754  24.186 110.406  0.00  0.00    -0.391 OA
ATOM     67  H   SGN d 505      27.770  23.904 104.968  0.00  0.00     0.080 H 
ATOM     68  H   SGN d 505      29.311  24.606 105.252  0.00  0.00     0.080 H 
ATOM     69  H   SGN d 505      27.813  21.052 111.221  0.00  0.00     0.231 HD
ATOM     70  H   SGN d 505      25.825  22.739 108.735  0.00  0.00     0.131 H 
ATOM     71  H   SGN d 505      25.950  21.307 109.861  0.00  0.00     0.231 HD
ATOM     72  H   SGN d 505      27.639  23.871 111.640  0.00  0.00     0.140 HD
ATOM     73  H   SGN d 505      28.460  25.402 109.423  0.00  0.00     0.089 H 
ATOM     74  H   SGN d 505      28.072  22.434 109.672  0.00  0.00     0.076 H 
ATOM     75  H   SGN d 505      26.088  22.993 113.419  0.00  0.00     0.231 HD
ATOM     76  H   SGN d 505      29.731  23.008 108.098  0.00  0.00     0.091 H 
ATOM     77  H   SGN d 505      27.894  25.174 107.119  0.00  0.00     0.090 H 
ATOM     78  H   SGN d 505      30.045  23.261 110.401  0.00  0.00     0.210 HD
ATOM     79  C6  SGN d 503      21.621  29.674 109.864  0.00  0.00     0.067 C 
ATOM     80  O6  SGN d 503      22.759  30.507 109.823  0.00  0.00    -0.254 OA
ATOM     81  C4  SGN d 503      22.183  28.844 107.510  0.00  0.00     0.095 C 
ATOM     82  O5  SGN d 503      20.808  30.768 108.018  0.00  0.00    -0.349 OA
ATOM     83  O4  SGN d 503      22.404  27.534 107.920  0.00  0.00    -0.348 OA
ATOM     84  S1  SGN d 503      20.799  31.638 103.525  0.00  0.00     0.156 S 
ATOM     85  O4S SGN d 503      22.843  30.929 112.197  0.00  0.00    -0.572 OA
ATOM     86  O2S SGN d 503      22.216  31.999 103.522  0.00  0.00    -0.296 OA
ATOM     87  C3  SGN d 503      21.652  28.820 106.078  0.00  0.00     0.083 C 
ATOM     88  S2  SGN d 503      23.197  31.492 110.939  0.00  0.00     0.251 S 
ATOM     89  O5S SGN d 503      24.640  31.673 110.808  0.00  0.00    -0.572 OA
ATOM     90  C1  SGN d 503      20.219  30.791 106.742  0.00  0.00     0.150 C 
ATOM     91  O1S SGN d 503      19.984  32.634 104.193  0.00  0.00    -0.296 OA
ATOM     92  O6S SGN d 503      22.425  32.646 110.689  0.00  0.00    -0.572 OA
ATOM     93  C2  SGN d 503      21.205  30.223 105.711  0.00  0.00     0.081 C 
ATOM     94  N   SGN d 503      20.627  30.263 104.379  0.00  0.00    -0.210 NA
ATOM     95  O3  SGN d 503      22.705  28.412 105.225  0.00  0.00    -0.391 OA
ATOM     96  C5  SGN d 503      21.146  29.486 108.448  0.00  0.00     0.091 C 
ATOM     97  O3S SGN d 503      20.283  31.284 102.221  0.00  0.00    -0.296 OA
ATOM     98  H   SGN d 503      21.876  28.727 110.292  0.00  0.00     0.080 H 
ATOM     99  H   SGN d 503      20.852  30.116 110.463  0.00  0.00     0.080 H 
ATOM    100  H   SGN d 503      23.089  29.412 107.544  0.00  0.00     0.091 H 
ATOM    101  H   SGN d 503      22.494  32.224 104.424  0.00  0.00     0.231 HD
ATOM    102  H   SGN d 503      20.827  28.146 105.982  0.00  0.00     0.089 H 
ATOM    103  H   SGN d 503      19.991  31.805 106.489  0.00  0.00     0.131 H 
ATOM    104  H   SGN d 503      20.369  32.838 105.060  0.00  0.00     0.231 HD
ATOM    105  H   SGN d 503      22.078  30.841 105.715  0.00  0.00     0.076 H 
ATOM    106  H   SGN d 503      21.056  29.512 103.839  0.00  0.00     0.140 HD
ATOM    107  H   SGN d 503      23.451  29.025 105.315  0.00  0.00     0.210 HD
ATOM    108  H   SGN d 503      20.328  28.797 108.424  0.00  0.00     0.090 H 
ATOM    109  H   SGN d 503      19.342  31.057 102.297  0.00  0.00     0.231 HD
ATOM    110  O61 IDS d 504      26.704  26.651 105.912  0.00  0.00    -0.646 OA
ATOM    111  O62 IDS d 504      25.489  25.376 104.758  0.00  0.00    -0.646 OA
ATOM    112  O3S IDS d 504      23.053  27.192 112.188  0.00  0.00    -0.572 OA
ATOM    113  S   IDS d 504      24.209  26.384 112.083  0.00  0.00     0.252 S 
ATOM    114  C6  IDS d 504      25.668  26.008 105.801  0.00  0.00     0.206 C 
ATOM    115  O3  IDS d 504      22.350  24.559 108.072  0.00  0.00    -0.390 OA
ATOM    116  C1  IDS d 504      23.611  27.347 108.602  0.00  0.00     0.161 C 
ATOM    117  O2  IDS d 504      24.444  26.279 110.566  0.00  0.00    -0.244 OA
ATOM    118  C5  IDS d 504      24.633  25.975 106.938  0.00  0.00     0.152 C 
ATOM    119  C4  IDS d 504      24.700  24.743 107.839  0.00  0.00     0.103 C 
ATOM    120  O5  IDS d 504      24.717  27.147 107.716  0.00  0.00    -0.340 OA
ATOM    121  O4  IDS d 504      25.923  24.731 108.560  0.00  0.00    -0.348 OA
ATOM    122  C2  IDS d 504      23.443  26.179 109.554  0.00  0.00     0.134 C 
ATOM    123  O1S IDS d 504      23.976  25.064 112.544  0.00  0.00    -0.572 OA
ATOM    124  O2S IDS d 504      25.392  26.945 112.667  0.00  0.00    -0.572 OA
ATOM    125  C3  IDS d 504      23.538  24.786 108.820  0.00  0.00     0.094 C 
ATOM    126  H   IDS d 504      22.411  23.702 107.622  0.00  0.00     0.210 HD
ATOM    127  H   IDS d 504      23.839  28.236 109.151  0.00  0.00     0.133 H 
ATOM    128  H   IDS d 504      23.684  25.916 106.447  0.00  0.00     0.104 H 
ATOM    129  H   IDS d 504      24.642  23.860 107.238  0.00  0.00     0.092 H 
ATOM    130  H   IDS d 504      22.465  26.227 109.984  0.00  0.00     0.097 H 
ATOM    131  H   IDS d 504      23.679  24.041 109.576  0.00  0.00     0.091 H 
ENDROOT
TORSDOF 40
ENDMDL
MODEL 5
REMARK VINA RESULT:     -11.4      5.003      9.951
REMARK  0 active torsions:
REMARK  status: ('A' for Active; 'I' for Inactive)
REMARK       I    between atoms: C6_1  and  C5_82 
REMARK       I    between atoms: O2_4  and  C2_65 
REMARK       I    between atoms: O2_4  and  S_6 
REMARK       I    between atoms: S2_5  and  O6_13 
REMARK       I    between atoms: C6_7  and  C5_66 
REMARK       I    between atoms: C6_7  and  O6_11 
REMARK       I    between atoms: S_8  and  O2_37 
REMARK       I    between atoms: O6_11  and  S2_34 
REMARK       I    between atoms: O6_13  and  C6_16 
REMARK       I    between atoms: C6_16  and  C5_76 
REMARK       I    between atoms: O2S_17  and  S1_21 
REMARK       I    between atoms: O4_18  and  C4_33 
REMARK       I    between atoms: C4_19  and  O4_25 
REMARK       I    between atoms: O3_20  and  C3_57 
REMARK       I    between atoms: S1_21  and  N_56 
REMARK       I    between atoms: S1_21  and  O1S_55 
REMARK       I    between atoms: S1_21  and  O3S_68 
REMARK       I    between atoms: O3_24  and  C3_80 
REMARK       I    between atoms: O4_25  and  C1_53 
REMARK       I    between atoms: S1_26  and  N_59 
REMARK       I    between atoms: S1_26  and  O1S_42 
REMARK       I    between atoms: S1_26  and  O2S_29 
REMARK       I    between atoms: S1_26  and  O3S_87 
REMARK       I    between atoms: S_30  and  O2_54 
REMARK       I    between atoms: C3_31  and  O3_61 
REMARK       I    between atoms: O4_36  and  C4_70 
REMARK       I    between atoms: O4_36  and  C1_52 
REMARK       I    between atoms: O2_37  and  C2_45 
REMARK       I    between atoms: C4_38  and  O4_71 
REMARK       I    between atoms: C1_39  and  O1_51 
REMARK       I    between atoms: C1_40  and  O4_71 
REMARK       I    between atoms: C6_46  and  C5_84 
REMARK       I    between atoms: C6_47  and  C5_64 
REMARK       I    between atoms: C1_48  and  O4_77 
REMARK       I    between atoms: O3_50  and  C3_86 
REMARK       I    between atoms: O2_54  and  C2_79 
REMARK       I    between atoms: N_56  and  C2_67 
REMARK       I    between atoms: C2_58  and  N_59 
REMARK       I    between atoms: C3_62  and  O3_81 
REMARK       I    between atoms: C4_69  and  O4_77 
ROOT
ATOM      1  C6  IDS d 506      30.918  21.344 110.411  0.00  0.00     0.206 C 
ATOM      2  O62 IDS d 506      32.011  21.537 110.915  0.00  0.00    -0.646 OA
ATOM      3  S   IDS d 506      29.835  21.512 104.234  0.00  0.00     0.252 S 
ATOM      4  O1S IDS d 506      31.050  22.258 104.120  0.00  0.00    -0.572 OA
ATOM      5  O3S IDS d 506      28.723  22.123 103.538  0.00  0.00    -0.572 OA
ATOM      6  O4  IDS d 506      31.934  21.164 107.593  0.00  0.00    -0.390 OA
ATOM      7  O3  IDS d 506      30.809  24.547 107.241  0.00  0.00    -0.390 OA
ATOM      8  C4  IDS d 506      31.463  22.391 108.101  0.00  0.00     0.097 C 
ATOM      9  O2  IDS d 506      29.456  21.574 105.776  0.00  0.00    -0.244 OA
ATOM     10  C2  IDS d 506      29.364  22.711 106.611  0.00  0.00     0.134 C 
ATOM     11  C1  IDS d 506      28.545  22.380 107.867  0.00  0.00     0.161 C 
ATOM     12  O2S IDS d 506      30.039  20.136 103.879  0.00  0.00    -0.572 OA
ATOM     13  O5  IDS d 506      29.306  21.521 108.678  0.00  0.00    -0.340 OA
ATOM     14  O61 IDS d 506      30.196  20.494 110.914  0.00  0.00    -0.646 OA
ATOM     15  C3  IDS d 506      30.820  23.157 106.925  0.00  0.00     0.094 C 
ATOM     16  C5  IDS d 506      30.436  22.133 109.208  0.00  0.00     0.152 C 
ATOM     17  H   IDS d 506      32.584  21.332 106.892  0.00  0.00     0.210 HD
ATOM     18  H   IDS d 506      31.712  24.840 107.440  0.00  0.00     0.210 HD
ATOM     19  H   IDS d 506      32.261  22.966 108.524  0.00  0.00     0.091 H 
ATOM     20  H   IDS d 506      28.849  23.520 106.137  0.00  0.00     0.097 H 
ATOM     21  H   IDS d 506      28.296  23.278 108.391  0.00  0.00     0.133 H 
ATOM     22  H   IDS d 506      31.406  22.943 106.056  0.00  0.00     0.091 H 
ATOM     23  H   IDS d 506      30.219  23.108 109.591  0.00  0.00     0.104 H 
ATOM     24  O62 IDS d 502      20.972  34.150 109.274  0.00  0.00    -0.646 OA
ATOM     25  O2  IDS d 502      17.009  30.484 107.610  0.00  0.00    -0.244 OA
ATOM     26  S   IDS d 502      16.754  29.503 106.418  0.00  0.00     0.252 S 
ATOM     27  O3  IDS d 502      16.954  33.974 106.794  0.00  0.00    -0.390 OA
ATOM     28  O2S IDS d 502      17.879  28.597 106.406  0.00  0.00    -0.572 OA
ATOM     29  C4  IDS d 502      18.916  32.751 107.460  0.00  0.00     0.103 C 
ATOM     30  C1  IDS d 502      16.669  32.204 109.205  0.00  0.00     0.158 C 
ATOM     31  O61 IDS d 502      20.511  32.557 110.519  0.00  0.00    -0.646 OA
ATOM     32  C6  IDS d 502      20.183  33.292 109.619  0.00  0.00     0.206 C 
ATOM     33  O1  IDS d 502      16.008  33.431 109.367  0.00  0.00    -0.368 OA
ATOM     34  C3  IDS d 502      17.500  32.671 106.859  0.00  0.00     0.094 C 
ATOM     35  O3S IDS d 502      15.499  28.867 106.728  0.00  0.00    -0.572 OA
ATOM     36  O5  IDS d 502      18.004  32.248 109.643  0.00  0.00    -0.340 OA
ATOM     37  C2  IDS d 502      16.581  31.814 107.733  0.00  0.00     0.134 C 
ATOM     38  O4  IDS d 502      19.547  31.502 107.348  0.00  0.00    -0.348 OA
ATOM     39  O1S IDS d 502      16.677  30.295 105.223  0.00  0.00    -0.572 OA
ATOM     40  C5  IDS d 502      18.832  33.147 108.933  0.00  0.00     0.152 C 
ATOM     41  H   IDS d 502      17.522  34.536 106.244  0.00  0.00     0.210 HD
ATOM     42  H   IDS d 502      19.482  33.487 106.928  0.00  0.00     0.092 H 
ATOM     43  H   IDS d 502      16.192  31.467 109.816  0.00  0.00     0.133 H 
ATOM     44  H   IDS d 502      16.437  34.105 108.815  0.00  0.00     0.212 HD
ATOM     45  H   IDS d 502      17.572  32.231 105.886  0.00  0.00     0.091 H 
ATOM     46  H   IDS d 502      15.570  31.953 107.413  0.00  0.00     0.097 H 
ATOM     47  H   IDS d 502      18.396  34.124 108.947  0.00  0.00     0.104 H 
ATOM     48  S2  SGN d 505      24.604  18.965 105.459  0.00  0.00     0.251 S 
ATOM     49  O6  SGN d 505      24.918  20.072 106.455  0.00  0.00    -0.254 OA
ATOM     50  O5S SGN d 505      23.357  18.406 105.918  0.00  0.00    -0.572 OA
ATOM     51  C6  SGN d 505      24.969  21.435 106.207  0.00  0.00     0.067 C 
ATOM     52  O2S SGN d 505      24.468  20.737 113.160  0.00  0.00    -0.296 OA
ATOM     53  S1  SGN d 505      23.769  21.940 112.773  0.00  0.00     0.156 S 
ATOM     54  O6S SGN d 505      24.484  19.594 104.150  0.00  0.00    -0.572 OA
ATOM     55  O4  SGN d 505      27.394  21.708 107.487  0.00  0.00    -0.348 OA
ATOM     56  O5  SGN d 505      23.914  21.813 108.229  0.00  0.00    -0.349 OA
ATOM     57  O4S SGN d 505      25.732  18.064 105.543  0.00  0.00    -0.572 OA
ATOM     58  C1  SGN d 505      23.807  22.479 109.456  0.00  0.00     0.150 C 
ATOM     59  O1S SGN d 505      22.525  21.660 112.086  0.00  0.00    -0.296 OA
ATOM     60  N   SGN d 505      24.790  22.701 111.683  0.00  0.00    -0.210 NA
ATOM     61  C3  SGN d 505      26.311  22.347 109.662  0.00  0.00     0.083 C 
ATOM     62  C2  SGN d 505      24.960  22.073 110.352  0.00  0.00     0.081 C 
ATOM     63  O3S SGN d 505      23.608  22.822 113.874  0.00  0.00    -0.296 OA
ATOM     64  C4  SGN d 505      26.270  21.548 108.327  0.00  0.00     0.095 C 
ATOM     65  C5  SGN d 505      25.105  22.072 107.551  0.00  0.00     0.091 C 
ATOM     66  O3  SGN d 505      27.352  21.863 110.501  0.00  0.00    -0.391 OA
ATOM     67  H   SGN d 505      24.072  21.762 105.724  0.00  0.00     0.080 H 
ATOM     68  H   SGN d 505      25.780  21.693 105.558  0.00  0.00     0.080 H 
ATOM     69  H   SGN d 505      24.563  20.157 112.388  0.00  0.00     0.231 HD
ATOM     70  H   SGN d 505      22.891  22.200 109.936  0.00  0.00     0.131 H 
ATOM     71  H   SGN d 505      22.694  21.056 111.346  0.00  0.00     0.231 HD
ATOM     72  H   SGN d 505      25.712  22.756 112.116  0.00  0.00     0.140 HD
ATOM     73  H   SGN d 505      26.482  23.388 109.481  0.00  0.00     0.089 H 
ATOM     74  H   SGN d 505      24.960  21.017 110.523  0.00  0.00     0.076 H 
ATOM     75  H   SGN d 505      24.468  22.974 114.295  0.00  0.00     0.231 HD
ATOM     76  H   SGN d 505      26.224  20.514 108.598  0.00  0.00     0.091 H 
ATOM     77  H   SGN d 505      25.285  23.121 107.437  0.00  0.00     0.090 H 
ATOM     78  H   SGN d 505      27.213  20.920 110.677  0.00  0.00     0.210 HD
ATOM     79  C6  SGN d 503      22.471  30.377 110.001  0.00  0.00     0.067 C 
ATOM     80  O6  SGN d 503      23.799  30.564 109.561  0.00  0.00    -0.254 OA
ATOM     81  C4  SGN d 503      21.985  29.051 107.867  0.00  0.00     0.095 C 
ATOM     82  O5  SGN d 503      21.739  31.445 108.107  0.00  0.00    -0.349 OA
ATOM     83  O4  SGN d 503      21.733  27.864 108.547  0.00  0.00    -0.348 OA
ATOM     84  S1  SGN d 503      20.908  31.560 103.608  0.00  0.00     0.156 S 
ATOM     85  O4S SGN d 503      24.679  31.235 111.705  0.00  0.00    -0.572 OA
ATOM     86  O2S SGN d 503      22.288  31.211 103.274  0.00  0.00    -0.296 OA
ATOM     87  C3  SGN d 503      21.136  29.072 106.599  0.00  0.00     0.083 C 
ATOM     88  S2  SGN d 503      24.890  31.379 110.305  0.00  0.00     0.251 S 
ATOM     89  O5S SGN d 503      26.182  30.842 109.890  0.00  0.00    -0.572 OA
ATOM     90  C1  SGN d 503      20.899  31.557 106.985  0.00  0.00     0.150 C 
ATOM     91  O1S SGN d 503      20.799  32.907 104.136  0.00  0.00    -0.296 OA
ATOM     92  O6S SGN d 503      24.641  32.711 109.911  0.00  0.00    -0.572 OA
ATOM     93  C2  SGN d 503      21.242  30.452 105.975  0.00  0.00     0.081 C 
ATOM     94  N   SGN d 503      20.405  30.565 104.794  0.00  0.00    -0.210 NA
ATOM     95  O3  SGN d 503      21.650  28.100 105.708  0.00  0.00    -0.391 OA
ATOM     96  C5  SGN d 503      21.605  30.231 108.779  0.00  0.00     0.091 C 
ATOM     97  O3S SGN d 503      19.966  31.306 102.541  0.00  0.00    -0.296 OA
ATOM     98  H   SGN d 503      22.407  29.494 110.602  0.00  0.00     0.080 H 
ATOM     99  H   SGN d 503      22.150  31.209 110.592  0.00  0.00     0.080 H 
ATOM    100  H   SGN d 503      23.019  29.127 107.604  0.00  0.00     0.091 H 
ATOM    101  H   SGN d 503      22.863  31.407 104.031  0.00  0.00     0.231 HD
ATOM    102  H   SGN d 503      20.110  28.857 106.815  0.00  0.00     0.089 H 
ATOM    103  H   SGN d 503      21.063  32.511 106.529  0.00  0.00     0.131 H 
ATOM    104  H   SGN d 503      21.448  33.029 104.845  0.00  0.00     0.231 HD
ATOM    105  H   SGN d 503      22.261  30.582 105.677  0.00  0.00     0.076 H 
ATOM    106  H   SGN d 503      20.317  29.632 104.393  0.00  0.00     0.140 HD
ATOM    107  H   SGN d 503      22.579  28.299 105.514  0.00  0.00     0.210 HD
ATOM    108  H   SGN d 503      20.599  30.011 109.066  0.00  0.00     0.090 H 
ATOM    109  H   SGN d 503      19.075  31.559 102.830  0.00  0.00     0.231 HD
ATOM    110  O61 IDS d 504      24.557  24.792 106.122  0.00  0.00    -0.646 OA
ATOM    111  O62 IDS d 504      22.660  24.083 105.545  0.00  0.00    -0.646 OA
ATOM    112  O3S IDS d 504      23.281  27.878 112.591  0.00  0.00    -0.572 OA
ATOM    113  S   IDS d 504      23.915  26.617 112.496  0.00  0.00     0.252 S 
ATOM    114  C6  IDS d 504      23.358  24.701 106.352  0.00  0.00     0.206 C 
ATOM    115  O3  IDS d 504      20.471  25.318 109.442  0.00  0.00    -0.390 OA
ATOM    116  C1  IDS d 504      22.880  27.235 109.039  0.00  0.00     0.161 C 
ATOM    117  O2  IDS d 504      23.673  26.197 111.035  0.00  0.00    -0.244 OA
ATOM    118  C5  IDS d 504      22.747  25.320 107.620  0.00  0.00     0.152 C 
ATOM    119  C4  IDS d 504      22.524  24.345 108.775  0.00  0.00     0.103 C 
ATOM    120  O5  IDS d 504      23.521  26.415 108.056  0.00  0.00    -0.340 OA
ATOM    121  O4  IDS d 504      23.771  23.866 109.257  0.00  0.00    -0.348 OA
ATOM    122  C2  IDS d 504      22.495  26.433 110.265  0.00  0.00     0.134 C 
ATOM    123  O1S IDS d 504      23.278  25.642 113.304  0.00  0.00    -0.572 OA
ATOM    124  O2S IDS d 504      25.333  26.637 112.712  0.00  0.00    -0.572 OA
ATOM    125  C3  IDS d 504      21.795  25.068 109.897  0.00  0.00     0.094 C 
ATOM    126  H   IDS d 504      20.043  24.478 109.216  0.00  0.00     0.210 HD
ATOM    127  H   IDS d 504      23.599  27.983 109.302  0.00  0.00     0.133 H 
ATOM    128  H   IDS d 504      21.770  25.642 107.328  0.00  0.00     0.104 H 
ATOM    129  H   IDS d 504      21.942  23.516 108.431  0.00  0.00     0.092 H 
ATOM    130  H   IDS d 504      21.781  26.994 110.830  0.00  0.00     0.097 H 
ATOM    131  H   IDS d 504      21.803  24.462 110.779  0.00  0.00     0.091 H 
ENDROOT
TORSDOF 40
ENDMDL
MODEL 6
REMARK VINA RESULT:     -11.3      4.267      9.346
REMARK  0 active torsions:
REMARK  status: ('A' for Active; 'I' for Inactive)
REMARK       I    between atoms: C6_1  and  C5_82 
REMARK       I    between atoms: O2_4  and  C2_65 
REMARK       I    between atoms: O2_4  and  S_6 
REMARK       I    between atoms: S2_5  and  O6_13 
REMARK       I    between atoms: C6_7  and  C5_66 
REMARK       I    between atoms: C6_7  and  O6_11 
REMARK       I    between atoms: S_8  and  O2_37 
REMARK       I    between atoms: O6_11  and  S2_34 
REMARK       I    between atoms: O6_13  and  C6_16 
REMARK       I    between atoms: C6_16  and  C5_76 
REMARK       I    between atoms: O2S_17  and  S1_21 
REMARK       I    between atoms: O4_18  and  C4_33 
REMARK       I    between atoms: C4_19  and  O4_25 
REMARK       I    between atoms: O3_20  and  C3_57 
REMARK       I    between atoms: S1_21  and  N_56 
REMARK       I    between atoms: S1_21  and  O1S_55 
REMARK       I    between atoms: S1_21  and  O3S_68 
REMARK       I    between atoms: O3_24  and  C3_80 
REMARK       I    between atoms: O4_25  and  C1_53 
REMARK       I    between atoms: S1_26  and  N_59 
REMARK       I    between atoms: S1_26  and  O1S_42 
REMARK       I    between atoms: S1_26  and  O2S_29 
REMARK       I    between atoms: S1_26  and  O3S_87 
REMARK       I    between atoms: S_30  and  O2_54 
REMARK       I    between atoms: C3_31  and  O3_61 
REMARK       I    between atoms: O4_36  and  C4_70 
REMARK       I    between atoms: O4_36  and  C1_52 
REMARK       I    between atoms: O2_37  and  C2_45 
REMARK       I    between atoms: C4_38  and  O4_71 
REMARK       I    between atoms: C1_39  and  O1_51 
REMARK       I    between atoms: C1_40  and  O4_71 
REMARK       I    between atoms: C6_46  and  C5_84 
REMARK       I    between atoms: C6_47  and  C5_64 
REMARK       I    between atoms: C1_48  and  O4_77 
REMARK       I    between atoms: O3_50  and  C3_86 
REMARK       I    between atoms: O2_54  and  C2_79 
REMARK       I    between atoms: N_56  and  C2_67 
REMARK       I    between atoms: C2_58  and  N_59 
REMARK       I    between atoms: C3_62  and  O3_81 
REMARK       I    between atoms: C4_69  and  O4_77 
ROOT
ATOM      1  C6  IDS d 506      15.965  29.370 110.555  0.00  0.00     0.206 C 
ATOM      2  O62 IDS d 506      15.532  29.971 111.523  0.00  0.00    -0.646 OA
ATOM      3  S   IDS d 506      15.637  23.142 109.870  0.00  0.00     0.252 S 
ATOM      4  O1S IDS d 506      15.439  23.075 111.285  0.00  0.00    -0.572 OA
ATOM      5  O3S IDS d 506      16.663  22.240 109.395  0.00  0.00    -0.572 OA
ATOM      6  O4  IDS d 506      14.689  26.746 111.257  0.00  0.00    -0.390 OA
ATOM      7  O3  IDS d 506      17.909  25.803 112.509  0.00  0.00    -0.390 OA
ATOM      8  C4  IDS d 506      16.011  27.021 111.657  0.00  0.00     0.097 C 
ATOM      9  O2  IDS d 506      16.198  24.604 109.601  0.00  0.00    -0.244 OA
ATOM     10  C2  IDS d 506      17.278  25.259 110.237  0.00  0.00     0.134 C 
ATOM     11  C1  IDS d 506      17.758  26.440 109.381  0.00  0.00     0.161 C 
ATOM     12  O2S IDS d 506      14.392  23.006 109.168  0.00  0.00    -0.572 OA
ATOM     13  O5  IDS d 506      16.779  27.446 109.427  0.00  0.00    -0.340 OA
ATOM     14  O61 IDS d 506      15.851  29.893 109.455  0.00  0.00    -0.646 OA
ATOM     15  C3  IDS d 506      16.780  25.683 111.647  0.00  0.00     0.094 C 
ATOM     16  C5  IDS d 506      16.648  28.021 110.686  0.00  0.00     0.152 C 
ATOM     17  H   IDS d 506      14.289  26.113 111.874  0.00  0.00     0.210 HD
ATOM     18  H   IDS d 506      17.613  26.067 113.394  0.00  0.00     0.210 HD
ATOM     19  H   IDS d 506      16.036  27.455 112.635  0.00  0.00     0.091 H 
ATOM     20  H   IDS d 506      18.130  24.620 110.348  0.00  0.00     0.097 H 
ATOM     21  H   IDS d 506      18.696  26.803 109.747  0.00  0.00     0.133 H 
ATOM     22  H   IDS d 506      16.096  24.929 111.976  0.00  0.00     0.091 H 
ATOM     23  H   IDS d 506      17.598  28.238 111.127  0.00  0.00     0.104 H 
ATOM     24  O62 IDS d 502      31.699  25.301 110.869  0.00  0.00    -0.646 OA
ATOM     25  O2  IDS d 502      31.031  23.686 105.496  0.00  0.00    -0.244 OA
ATOM     26  S   IDS d 502      30.219  22.618 104.692  0.00  0.00     0.252 S 
ATOM     27  O3  IDS d 502      33.590  22.401 107.653  0.00  0.00    -0.390 OA
ATOM     28  O2S IDS d 502      28.830  22.866 104.998  0.00  0.00    -0.572 OA
ATOM     29  C4  IDS d 502      31.565  23.461 108.406  0.00  0.00     0.103 C 
ATOM     30  C1  IDS d 502      32.849  24.979 106.299  0.00  0.00     0.158 C 
ATOM     31  O61 IDS d 502      30.990  26.687 109.499  0.00  0.00    -0.646 OA
ATOM     32  C6  IDS d 502      31.591  25.662 109.713  0.00  0.00     0.206 C 
ATOM     33  O1  IDS d 502      34.225  24.891 106.554  0.00  0.00    -0.368 OA
ATOM     34  C3  IDS d 502      32.267  22.709 107.259  0.00  0.00     0.094 C 
ATOM     35  O3S IDS d 502      30.562  22.858 103.314  0.00  0.00    -0.572 OA
ATOM     36  O5  IDS d 502      32.139  25.565 107.362  0.00  0.00    -0.340 OA
ATOM     37  C2  IDS d 502      32.336  23.575 105.997  0.00  0.00     0.134 C 
ATOM     38  O4  IDS d 502      30.198  23.597 108.113  0.00  0.00    -0.348 OA
ATOM     39  O1S IDS d 502      30.656  21.325 105.140  0.00  0.00    -0.572 OA
ATOM     40  C5  IDS d 502      32.188  24.844 108.577  0.00  0.00     0.152 C 
ATOM     41  H   IDS d 502      33.570  21.853 108.452  0.00  0.00     0.210 HD
ATOM     42  H   IDS d 502      31.682  22.906 109.313  0.00  0.00     0.092 H 
ATOM     43  H   IDS d 502      32.689  25.623 105.460  0.00  0.00     0.133 H 
ATOM     44  H   IDS d 502      34.376  24.308 107.315  0.00  0.00     0.212 HD
ATOM     45  H   IDS d 502      31.708  21.821 107.046  0.00  0.00     0.091 H 
ATOM     46  H   IDS d 502      33.007  23.119 105.301  0.00  0.00     0.097 H 
ATOM     47  H   IDS d 502      33.208  24.672 108.851  0.00  0.00     0.104 H 
ATOM     48  S2  SGN d 505      17.132  24.062 104.190  0.00  0.00     0.251 S 
ATOM     49  O6  SGN d 505      17.969  24.928 105.121  0.00  0.00    -0.254 OA
ATOM     50  O5S SGN d 505      17.557  24.439 102.865  0.00  0.00    -0.572 OA
ATOM     51  C6  SGN d 505      18.936  24.505 106.019  0.00  0.00     0.067 C 
ATOM     52  O2S SGN d 505      19.977  31.376 105.132  0.00  0.00    -0.296 OA
ATOM     53  S1  SGN d 505      21.259  30.746 105.347  0.00  0.00     0.156 S 
ATOM     54  O6S SGN d 505      17.450  22.675 104.503  0.00  0.00    -0.572 OA
ATOM     55  O4  SGN d 505      17.884  26.019 108.066  0.00  0.00    -0.348 OA
ATOM     56  O5  SGN d 505      20.245  26.314 105.418  0.00  0.00    -0.349 OA
ATOM     57  O4S SGN d 505      15.763  24.404 104.501  0.00  0.00    -0.572 OA
ATOM     58  C1  SGN d 505      21.044  27.416 105.742  0.00  0.00     0.150 C 
ATOM     59  O1S SGN d 505      21.686  29.959 104.209  0.00  0.00    -0.296 OA
ATOM     60  N   SGN d 505      21.014  29.694 106.628  0.00  0.00    -0.210 NA
ATOM     61  C3  SGN d 505      19.437  27.940 107.606  0.00  0.00     0.083 C 
ATOM     62  C2  SGN d 505      20.186  28.492 106.378  0.00  0.00     0.081 C 
ATOM     63  O3S SGN d 505      22.234  31.689 105.765  0.00  0.00    -0.296 OA
ATOM     64  C4  SGN d 505      18.608  26.731 107.084  0.00  0.00     0.095 C 
ATOM     65  C5  SGN d 505      19.586  25.756 106.513  0.00  0.00     0.091 C 
ATOM     66  O3  SGN d 505      18.578  28.956 108.105  0.00  0.00    -0.391 OA
ATOM     67  H   SGN d 505      19.652  23.877 105.531  0.00  0.00     0.080 H 
ATOM     68  H   SGN d 505      18.516  23.930 106.818  0.00  0.00     0.080 H 
ATOM     69  H   SGN d 505      19.333  30.708 104.847  0.00  0.00     0.231 HD
ATOM     70  H   SGN d 505      21.482  27.816 104.851  0.00  0.00     0.131 H 
ATOM     71  H   SGN d 505      20.984  29.334 103.967  0.00  0.00     0.231 HD
ATOM     72  H   SGN d 505      20.567  30.224 107.377  0.00  0.00     0.140 HD
ATOM     73  H   SGN d 505      20.096  27.640 108.395  0.00  0.00     0.089 H 
ATOM     74  H   SGN d 505      19.408  28.805 105.713  0.00  0.00     0.076 H 
ATOM     75  H   SGN d 505      21.897  32.186 106.527  0.00  0.00     0.231 HD
ATOM     76  H   SGN d 505      17.893  27.133 106.397  0.00  0.00     0.091 H 
ATOM     77  H   SGN d 505      20.258  25.522 107.313  0.00  0.00     0.090 H 
ATOM     78  H   SGN d 505      17.973  29.242 107.403  0.00  0.00     0.210 HD
ATOM     79  C6  SGN d 503      28.017  26.712 109.659  0.00  0.00     0.067 C 
ATOM     80  O6  SGN d 503      27.262  26.415 110.814  0.00  0.00    -0.254 OA
ATOM     81  C4  SGN d 503      26.913  24.737 108.466  0.00  0.00     0.095 C 
ATOM     82  O5  SGN d 503      28.942  24.616 109.776  0.00  0.00    -0.349 OA
ATOM     83  O4  SGN d 503      26.283  25.537 107.519  0.00  0.00    -0.348 OA
ATOM     84  S1  SGN d 503      28.723  20.076 109.240  0.00  0.00     0.156 S 
ATOM     85  O4S SGN d 503      27.625  28.538 111.901  0.00  0.00    -0.572 OA
ATOM     86  O2S SGN d 503      27.544  19.962 110.098  0.00  0.00    -0.296 OA
ATOM     87  C3  SGN d 503      27.221  23.384 107.829  0.00  0.00     0.083 C 
ATOM     88  S2  SGN d 503      27.350  27.167 112.168  0.00  0.00     0.251 S 
ATOM     89  O5S SGN d 503      26.066  26.988 112.840  0.00  0.00    -0.572 OA
ATOM     90  C1  SGN d 503      29.341  23.396 109.203  0.00  0.00     0.150 C 
ATOM     91  O1S SGN d 503      29.918  20.398 109.996  0.00  0.00    -0.296 OA
ATOM     92  O6S SGN d 503      28.452  26.568 112.814  0.00  0.00    -0.572 OA
ATOM     93  C2  SGN d 503      28.099  22.596 108.784  0.00  0.00     0.081 C 
ATOM     94  N   SGN d 503      28.486  21.317 108.214  0.00  0.00    -0.210 NA
ATOM     95  O3  SGN d 503      25.997  22.703 107.627  0.00  0.00    -0.391 OA
ATOM     96  C5  SGN d 503      28.217  25.426 108.904  0.00  0.00     0.091 C 
ATOM     97  O3S SGN d 503      28.914  18.948 108.356  0.00  0.00    -0.296 OA
ATOM     98  H   SGN d 503      27.490  27.416 109.049  0.00  0.00     0.080 H 
ATOM     99  H   SGN d 503      28.960  27.142 109.927  0.00  0.00     0.080 H 
ATOM    100  H   SGN d 503      26.286  24.593 109.321  0.00  0.00     0.091 H 
ATOM    101  H   SGN d 503      27.478  20.749 110.661  0.00  0.00     0.231 HD
ATOM    102  H   SGN d 503      27.728  23.502 106.894  0.00  0.00     0.089 H 
ATOM    103  H   SGN d 503      29.888  22.838 109.934  0.00  0.00     0.131 H 
ATOM    104  H   SGN d 503      29.740  21.158 110.573  0.00  0.00     0.231 HD
ATOM    105  H   SGN d 503      27.517  22.408 109.661  0.00  0.00     0.076 H 
ATOM    106  H   SGN d 503      27.753  21.039 107.563  0.00  0.00     0.140 HD
ATOM    107  H   SGN d 503      25.541  22.598 108.476  0.00  0.00     0.210 HD
ATOM    108  H   SGN d 503      28.721  25.617 107.980  0.00  0.00     0.090 H 
ATOM    109  H   SGN d 503      29.710  19.089 107.820  0.00  0.00     0.231 HD
ATOM    110  O61 IDS d 504      21.747  23.913 107.807  0.00  0.00    -0.646 OA
ATOM    111  O62 IDS d 504      22.268  23.214 105.891  0.00  0.00    -0.646 OA
ATOM    112  O3S IDS d 504      26.076  29.698 108.698  0.00  0.00    -0.572 OA
ATOM    113  S   IDS d 504      24.701  29.854 108.400  0.00  0.00     0.252 S 
ATOM    114  C6  IDS d 504      22.458  24.007 106.815  0.00  0.00     0.206 C 
ATOM    115  O3  IDS d 504      25.273  26.612 104.931  0.00  0.00    -0.390 OA
ATOM    116  C1  IDS d 504      25.183  26.245 108.012  0.00  0.00     0.161 C 
ATOM    117  O2  IDS d 504      24.263  28.445 107.960  0.00  0.00    -0.244 OA
ATOM    118  C5  IDS d 504      23.540  25.096 106.718  0.00  0.00     0.152 C 
ATOM    119  C4  IDS d 504      23.140  26.337 105.923  0.00  0.00     0.103 C 
ATOM    120  O5  IDS d 504      23.981  25.467 108.004  0.00  0.00    -0.340 OA
ATOM    121  O4  IDS d 504      22.093  27.027 106.588  0.00  0.00    -0.348 OA
ATOM    122  C2  IDS d 504      25.029  27.514 107.198  0.00  0.00     0.134 C 
ATOM    123  O1S IDS d 504      24.494  30.704 107.285  0.00  0.00    -0.572 OA
ATOM    124  O2S IDS d 504      23.882  30.235 109.514  0.00  0.00    -0.572 OA
ATOM    125  C3  IDS d 504      24.348  27.254 105.800  0.00  0.00     0.094 C 
ATOM    126  H   IDS d 504      24.852  26.452 104.071  0.00  0.00     0.210 HD
ATOM    127  H   IDS d 504      25.360  26.488 109.039  0.00  0.00     0.133 H 
ATOM    128  H   IDS d 504      24.335  24.645 106.163  0.00  0.00     0.104 H 
ATOM    129  H   IDS d 504      22.801  26.042 104.952  0.00  0.00     0.092 H 
ATOM    130  H   IDS d 504      26.002  27.906 106.991  0.00  0.00     0.097 H 
ATOM    131  H   IDS d 504      24.039  28.204 105.418  0.00  0.00     0.091 H 
ENDROOT
TORSDOF 40
ENDMDL
MODEL 7
REMARK VINA RESULT:     -11.0      4.095      9.149
REMARK  0 active torsions:
REMARK  status: ('A' for Active; 'I' for Inactive)
REMARK       I    between atoms: C6_1  and  C5_82 
REMARK       I    between atoms: O2_4  and  C2_65 
REMARK       I    between atoms: O2_4  and  S_6 
REMARK       I    between atoms: S2_5  and  O6_13 
REMARK       I    between atoms: C6_7  and  C5_66 
REMARK       I    between atoms: C6_7  and  O6_11 
REMARK       I    between atoms: S_8  and  O2_37 
REMARK       I    between atoms: O6_11  and  S2_34 
REMARK       I    between atoms: O6_13  and  C6_16 
REMARK       I    between atoms: C6_16  and  C5_76 
REMARK       I    between atoms: O2S_17  and  S1_21 
REMARK       I    between atoms: O4_18  and  C4_33 
REMARK       I    between atoms: C4_19  and  O4_25 
REMARK       I    between atoms: O3_20  and  C3_57 
REMARK       I    between atoms: S1_21  and  N_56 
REMARK       I    between atoms: S1_21  and  O1S_55 
REMARK       I    between atoms: S1_21  and  O3S_68 
REMARK       I    between atoms: O3_24  and  C3_80 
REMARK       I    between atoms: O4_25  and  C1_53 
REMARK       I    between atoms: S1_26  and  N_59 
REMARK       I    between atoms: S1_26  and  O1S_42 
REMARK       I    between atoms: S1_26  and  O2S_29 
REMARK       I    between atoms: S1_26  and  O3S_87 
REMARK       I    between atoms: S_30  and  O2_54 
REMARK       I    between atoms: C3_31  and  O3_61 
REMARK       I    between atoms: O4_36  and  C4_70 
REMARK       I    between atoms: O4_36  and  C1_52 
REMARK       I    between atoms: O2_37  and  C2_45 
REMARK       I    between atoms: C4_38  and  O4_71 
REMARK       I    between atoms: C1_39  and  O1_51 
REMARK       I    between atoms: C1_40  and  O4_71 
REMARK       I    between atoms: C6_46  and  C5_84 
REMARK       I    between atoms: C6_47  and  C5_64 
REMARK       I    between atoms: C1_48  and  O4_77 
REMARK       I    between atoms: O3_50  and  C3_86 
REMARK       I    between atoms: O2_54  and  C2_79 
REMARK       I    between atoms: N_56  and  C2_67 
REMARK       I    between atoms: C2_58  and  N_59 
REMARK       I    between atoms: C3_62  and  O3_81 
REMARK       I    between atoms: C4_69  and  O4_77 
ROOT
ATOM      1  C6  IDS d 506      15.898  30.553 111.940  0.00  0.00     0.206 C 
ATOM      2  O62 IDS d 506      15.540  31.586 112.480  0.00  0.00    -0.646 OA
ATOM      3  S   IDS d 506      17.758  25.437 115.058  0.00  0.00     0.252 S 
ATOM      4  O1S IDS d 506      17.977  26.296 116.181  0.00  0.00    -0.572 OA
ATOM      5  O3S IDS d 506      18.885  24.576 114.771  0.00  0.00    -0.572 OA
ATOM      6  O4  IDS d 506      15.928  28.915 114.454  0.00  0.00    -0.390 OA
ATOM      7  O3  IDS d 506      19.473  29.422 114.441  0.00  0.00    -0.390 OA
ATOM      8  C4  IDS d 506      17.106  29.540 114.000  0.00  0.00     0.097 C 
ATOM      9  O2  IDS d 506      17.640  26.413 113.809  0.00  0.00    -0.244 OA
ATOM     10  C2  IDS d 506      18.522  27.447 113.418  0.00  0.00     0.134 C 
ATOM     11  C1  IDS d 506      18.283  27.817 111.947  0.00  0.00     0.161 C 
ATOM     12  O2S IDS d 506      16.519  24.725 115.187  0.00  0.00    -0.572 OA
ATOM     13  O5  IDS d 506      17.047  28.478 111.853  0.00  0.00    -0.340 OA
ATOM     14  O61 IDS d 506      15.312  30.204 110.924  0.00  0.00    -0.646 OA
ATOM     15  C3  IDS d 506      18.289  28.631 114.397  0.00  0.00     0.094 C 
ATOM     16  C5  IDS d 506      17.044  29.718 112.480  0.00  0.00     0.152 C 
ATOM     17  H   IDS d 506      15.971  28.804 115.417  0.00  0.00     0.210 HD
ATOM     18  H   IDS d 506      19.343  30.166 115.048  0.00  0.00     0.210 HD
ATOM     19  H   IDS d 506      17.222  30.510 114.438  0.00  0.00     0.091 H 
ATOM     20  H   IDS d 506      19.548  27.146 113.476  0.00  0.00     0.097 H 
ATOM     21  H   IDS d 506      19.077  28.439 111.590  0.00  0.00     0.133 H 
ATOM     22  H   IDS d 506      18.049  28.206 115.349  0.00  0.00     0.091 H 
ATOM     23  H   IDS d 506      17.924  30.284 112.251  0.00  0.00     0.104 H 
ATOM     24  O62 IDS d 502      31.500  29.610 107.481  0.00  0.00    -0.646 OA
ATOM     25  O2  IDS d 502      30.105  24.792 104.883  0.00  0.00    -0.244 OA
ATOM     26  S   IDS d 502      29.573  23.371 105.266  0.00  0.00     0.252 S 
ATOM     27  O3  IDS d 502      33.427  25.562 105.989  0.00  0.00    -0.390 OA
ATOM     28  O2S IDS d 502      28.324  23.592 105.957  0.00  0.00    -0.572 OA
ATOM     29  C4  IDS d 502      31.426  26.604 106.825  0.00  0.00     0.103 C 
ATOM     30  C1  IDS d 502      31.448  26.497 103.930  0.00  0.00     0.158 C 
ATOM     31  O61 IDS d 502      29.992  29.652 106.059  0.00  0.00    -0.646 OA
ATOM     32  C6  IDS d 502      30.966  29.104 106.514  0.00  0.00     0.206 C 
ATOM     33  O1  IDS d 502      32.773  26.763 103.552  0.00  0.00    -0.368 OA
ATOM     34  C3  IDS d 502      32.032  25.374 106.123  0.00  0.00     0.094 C 
ATOM     35  O3S IDS d 502      29.428  22.682 104.010  0.00  0.00    -0.572 OA
ATOM     36  O5  IDS d 502      30.875  27.548 104.667  0.00  0.00    -0.340 OA
ATOM     37  C2  IDS d 502      31.439  25.194 104.723  0.00  0.00     0.134 C 
ATOM     38  O4  IDS d 502      30.082  26.350 107.145  0.00  0.00    -0.348 OA
ATOM     39  O1S IDS d 502      30.563  22.758 106.107  0.00  0.00    -0.572 OA
ATOM     40  C5  IDS d 502      31.507  27.819 105.903  0.00  0.00     0.152 C 
ATOM     41  H   IDS d 502      33.824  25.679 106.866  0.00  0.00     0.210 HD
ATOM     42  H   IDS d 502      31.975  26.803 107.721  0.00  0.00     0.092 H 
ATOM     43  H   IDS d 502      30.846  26.403 103.051  0.00  0.00     0.133 H 
ATOM     44  H   IDS d 502      33.324  26.850 104.346  0.00  0.00     0.212 HD
ATOM     45  H   IDS d 502      31.812  24.508 106.713  0.00  0.00     0.091 H 
ATOM     46  H   IDS d 502      32.025  24.476 104.188  0.00  0.00     0.097 H 
ATOM     47  H   IDS d 502      32.551  27.992 105.742  0.00  0.00     0.104 H 
ATOM     48  S2  SGN d 505      17.259  22.556 109.881  0.00  0.00     0.251 S 
ATOM     49  O6  SGN d 505      17.922  23.912 109.688  0.00  0.00    -0.254 OA
ATOM     50  O5S SGN d 505      17.149  22.014 108.550  0.00  0.00    -0.572 OA
ATOM     51  C6  SGN d 505      19.176  24.304 110.130  0.00  0.00     0.067 C 
ATOM     52  O2S SGN d 505      17.298  28.948 105.232  0.00  0.00    -0.296 OA
ATOM     53  S1  SGN d 505      18.730  28.775 105.168  0.00  0.00     0.156 S 
ATOM     54  O6S SGN d 505      18.143  21.770 110.731  0.00  0.00    -0.572 OA
ATOM     55  O4  SGN d 505      18.208  26.653 111.198  0.00  0.00    -0.348 OA
ATOM     56  O5  SGN d 505      19.505  25.408 108.125  0.00  0.00    -0.349 OA
ATOM     57  O4S SGN d 505      15.994  22.852 110.514  0.00  0.00    -0.572 OA
ATOM     58  C1  SGN d 505      19.889  26.536 107.390  0.00  0.00     0.150 C 
ATOM     59  O1S SGN d 505      19.107  27.491 104.614  0.00  0.00    -0.296 OA
ATOM     60  N   SGN d 505      19.241  28.808 106.763  0.00  0.00    -0.210 NA
ATOM     61  C3  SGN d 505      18.751  27.961 109.123  0.00  0.00     0.083 C 
ATOM     62  C2  SGN d 505      18.888  27.652 107.619  0.00  0.00     0.081 C 
ATOM     63  O3S SGN d 505      19.354  29.867 104.510  0.00  0.00    -0.296 OA
ATOM     64  C4  SGN d 505      18.329  26.621 109.791  0.00  0.00     0.095 C 
ATOM     65  C5  SGN d 505      19.415  25.637 109.498  0.00  0.00     0.091 C 
ATOM     66  O3  SGN d 505      17.736  28.943 109.290  0.00  0.00    -0.391 OA
ATOM     67  H   SGN d 505      19.920  23.602 109.818  0.00  0.00     0.080 H 
ATOM     68  H   SGN d 505      19.226  24.354 111.198  0.00  0.00     0.080 H 
ATOM     69  H   SGN d 505      16.900  28.188 105.686  0.00  0.00     0.231 HD
ATOM     70  H   SGN d 505      19.896  26.298 106.346  0.00  0.00     0.131 H 
ATOM     71  H   SGN d 505      18.653  26.784 105.100  0.00  0.00     0.231 HD
ATOM     72  H   SGN d 505      18.840  29.642 107.195  0.00  0.00     0.140 HD
ATOM     73  H   SGN d 505      19.655  28.337 109.555  0.00  0.00     0.089 H 
ATOM     74  H   SGN d 505      17.906  27.353 107.320  0.00  0.00     0.076 H 
ATOM     75  H   SGN d 505      19.067  30.698 104.920  0.00  0.00     0.231 HD
ATOM     76  H   SGN d 505      17.363  26.382 109.398  0.00  0.00     0.091 H 
ATOM     77  H   SGN d 505      20.309  26.070 109.896  0.00  0.00     0.090 H 
ATOM     78  H   SGN d 505      16.907  28.621 108.903  0.00  0.00     0.210 HD
ATOM     79  C6  SGN d 503      27.380  29.423 107.469  0.00  0.00     0.067 C 
ATOM     80  O6  SGN d 503      27.122  29.873 108.781  0.00  0.00    -0.254 OA
ATOM     81  C4  SGN d 503      26.825  27.038 108.210  0.00  0.00     0.095 C 
ATOM     82  O5  SGN d 503      29.018  28.053 108.307  0.00  0.00    -0.349 OA
ATOM     83  O4  SGN d 503      25.718  26.933 107.376  0.00  0.00    -0.348 OA
ATOM     84  S1  SGN d 503      30.383  24.301 110.545  0.00  0.00     0.156 S 
ATOM     85  O4S SGN d 503      26.934  32.210 108.211  0.00  0.00    -0.572 OA
ATOM     86  O2S SGN d 503      29.601  24.641 111.733  0.00  0.00    -0.296 OA
ATOM     87  C3  SGN d 503      27.440  25.650 108.376  0.00  0.00     0.083 C 
ATOM     88  S2  SGN d 503      27.272  31.334 109.281  0.00  0.00     0.251 S 
ATOM     89  O5S SGN d 503      26.373  31.492 110.420  0.00  0.00    -0.572 OA
ATOM     90  C1  SGN d 503      29.680  26.817 108.404  0.00  0.00     0.150 C 
ATOM     91  O1S SGN d 503      31.523  25.181 110.373  0.00  0.00    -0.296 OA
ATOM     92  O6S SGN d 503      28.646  31.446 109.583  0.00  0.00    -0.572 OA
ATOM     93  C2  SGN d 503      28.765  25.798 109.100  0.00  0.00     0.081 C 
ATOM     94  N   SGN d 503      29.440  24.519 109.237  0.00  0.00    -0.210 NA
ATOM     95  O3  SGN d 503      26.553  24.866 109.150  0.00  0.00    -0.391 OA
ATOM     96  C5  SGN d 503      27.842  27.994 107.562  0.00  0.00     0.091 C 
ATOM     97  O3S SGN d 503      30.744  22.904 110.463  0.00  0.00    -0.296 OA
ATOM     98  H   SGN d 503      26.488  29.481 106.881  0.00  0.00     0.080 H 
ATOM     99  H   SGN d 503      28.128  30.031 107.003  0.00  0.00     0.080 H 
ATOM    100  H   SGN d 503      26.545  27.420 109.170  0.00  0.00     0.091 H 
ATOM    101  H   SGN d 503      29.395  25.589 111.723  0.00  0.00     0.231 HD
ATOM    102  H   SGN d 503      27.601  25.183 107.428  0.00  0.00     0.089 H 
ATOM    103  H   SGN d 503      30.567  26.949 108.988  0.00  0.00     0.131 H 
ATOM    104  H   SGN d 503      31.232  26.104 110.436  0.00  0.00     0.231 HD
ATOM    105  H   SGN d 503      28.547  26.168 110.080  0.00  0.00     0.076 H 
ATOM    106  H   SGN d 503      28.721  23.796 109.254  0.00  0.00     0.140 HD
ATOM    107  H   SGN d 503      26.409  25.293 110.010  0.00  0.00     0.210 HD
ATOM    108  H   SGN d 503      27.977  27.587 106.582  0.00  0.00     0.090 H 
ATOM    109  H   SGN d 503      31.259  22.750 109.655  0.00  0.00     0.231 HD
ATOM    110  O61 IDS d 504      22.366  25.377 110.481  0.00  0.00    -0.646 OA
ATOM    111  O62 IDS d 504      22.590  23.657 109.287  0.00  0.00    -0.646 OA
ATOM    112  O3S IDS d 504      24.283  30.777 105.990  0.00  0.00    -0.572 OA
ATOM    113  S   IDS d 504      22.924  30.533 106.299  0.00  0.00     0.252 S 
ATOM    114  C6  IDS d 504      22.704  24.878 109.415  0.00  0.00     0.206 C 
ATOM    115  O3  IDS d 504      23.740  25.907 105.399  0.00  0.00    -0.390 OA
ATOM    116  C1  IDS d 504      24.603  27.654 107.816  0.00  0.00     0.161 C 
ATOM    117  O2  IDS d 504      22.947  29.145 106.964  0.00  0.00    -0.244 OA
ATOM    118  C5  IDS d 504      23.233  25.752 108.266  0.00  0.00     0.152 C 
ATOM    119  C4  IDS d 504      22.205  26.102 107.192  0.00  0.00     0.103 C 
ATOM    120  O5  IDS d 504      23.823  26.928 108.772  0.00  0.00    -0.340 OA
ATOM    121  O4  IDS d 504      21.188  26.929 107.740  0.00  0.00    -0.348 OA
ATOM    122  C2  IDS d 504      23.778  28.042 106.606  0.00  0.00     0.134 C 
ATOM    123  O1S IDS d 504      22.130  30.405 105.133  0.00  0.00    -0.572 OA
ATOM    124  O2S IDS d 504      22.345  31.452 107.235  0.00  0.00    -0.572 OA
ATOM    125  C3  IDS d 504      22.904  26.846 106.064  0.00  0.00     0.094 C 
ATOM    126  H   IDS d 504      23.200  25.172 105.067  0.00  0.00     0.210 HD
ATOM    127  H   IDS d 504      24.938  28.532 108.327  0.00  0.00     0.133 H 
ATOM    128  H   IDS d 504      23.964  25.146 107.773  0.00  0.00     0.104 H 
ATOM    129  H   IDS d 504      21.760  25.203 106.820  0.00  0.00     0.092 H 
ATOM    130  H   IDS d 504      24.443  28.313 105.812  0.00  0.00     0.097 H 
ATOM    131  H   IDS d 504      22.173  27.264 105.403  0.00  0.00     0.091 H 
ENDROOT
TORSDOF 40
ENDMDL
MODEL 8
REMARK VINA RESULT:     -10.7      4.383      8.125
REMARK  0 active torsions:
REMARK  status: ('A' for Active; 'I' for Inactive)
REMARK       I    between atoms: C6_1  and  C5_82 
REMARK       I    between atoms: O2_4  and  C2_65 
REMARK       I    between atoms: O2_4  and  S_6 
REMARK       I    between atoms: S2_5  and  O6_13 
REMARK       I    between atoms: C6_7  and  C5_66 
REMARK       I    between atoms: C6_7  and  O6_11 
REMARK       I    between atoms: S_8  and  O2_37 
REMARK       I    between atoms: O6_11  and  S2_34 
REMARK       I    between atoms: O6_13  and  C6_16 
REMARK       I    between atoms: C6_16  and  C5_76 
REMARK       I    between atoms: O2S_17  and  S1_21 
REMARK       I    between atoms: O4_18  and  C4_33 
REMARK       I    between atoms: C4_19  and  O4_25 
REMARK       I    between atoms: O3_20  and  C3_57 
REMARK       I    between atoms: S1_21  and  N_56 
REMARK       I    between atoms: S1_21  and  O1S_55 
REMARK       I    between atoms: S1_21  and  O3S_68 
REMARK       I    between atoms: O3_24  and  C3_80 
REMARK       I    between atoms: O4_25  and  C1_53 
REMARK       I    between atoms: S1_26  and  N_59 
REMARK       I    between atoms: S1_26  and  O1S_42 
REMARK       I    between atoms: S1_26  and  O2S_29 
REMARK       I    between atoms: S1_26  and  O3S_87 
REMARK       I    between atoms: S_30  and  O2_54 
REMARK       I    between atoms: C3_31  and  O3_61 
REMARK       I    between atoms: O4_36  and  C4_70 
REMARK       I    between atoms: O4_36  and  C1_52 
REMARK       I    between atoms: O2_37  and  C2_45 
REMARK       I    between atoms: C4_38  and  O4_71 
REMARK       I    between atoms: C1_39  and  O1_51 
REMARK       I    between atoms: C1_40  and  O4_71 
REMARK       I    between atoms: C6_46  and  C5_84 
REMARK       I    between atoms: C6_47  and  C5_64 
REMARK       I    between atoms: C1_48  and  O4_77 
REMARK       I    between atoms: O3_50  and  C3_86 
REMARK       I    between atoms: O2_54  and  C2_79 
REMARK       I    between atoms: N_56  and  C2_67 
REMARK       I    between atoms: C2_58  and  N_59 
REMARK       I    between atoms: C3_62  and  O3_81 
REMARK       I    between atoms: C4_69  and  O4_77 
ROOT
ATOM      1  C6  IDS d 506      16.887  28.140 111.192  0.00  0.00     0.206 C 
ATOM      2  O62 IDS d 506      16.150  27.553 111.966  0.00  0.00    -0.646 OA
ATOM      3  S   IDS d 506      17.416  26.721 105.105  0.00  0.00     0.252 S 
ATOM      4  O1S IDS d 506      16.856  25.446 105.433  0.00  0.00    -0.572 OA
ATOM      5  O3S IDS d 506      18.622  26.626 104.310  0.00  0.00    -0.572 OA
ATOM      6  O4  IDS d 506      15.755  26.883 108.714  0.00  0.00    -0.390 OA
ATOM      7  O3  IDS d 506      18.607  24.718 108.816  0.00  0.00    -0.390 OA
ATOM      8  C4  IDS d 506      16.886  26.324 109.340  0.00  0.00     0.097 C 
ATOM      9  O2  IDS d 506      17.870  27.342 106.495  0.00  0.00    -0.244 OA
ATOM     10  C2  IDS d 506      18.666  26.749 107.502  0.00  0.00     0.134 C 
ATOM     11  C1  IDS d 506      19.228  27.829 108.436  0.00  0.00     0.161 C 
ATOM     12  O2S IDS d 506      16.426  27.587 104.531  0.00  0.00    -0.572 OA
ATOM     13  O5  IDS d 506      18.171  28.342 109.207  0.00  0.00    -0.340 OA
ATOM     14  O61 IDS d 506      17.014  29.349 111.327  0.00  0.00    -0.646 OA
ATOM     15  C3  IDS d 506      17.768  25.711 108.231  0.00  0.00     0.094 C 
ATOM     16  C5  IDS d 506      17.649  27.414 110.100  0.00  0.00     0.152 C 
ATOM     17  H   IDS d 506      15.275  26.190 108.234  0.00  0.00     0.210 HD
ATOM     18  H   IDS d 506      18.060  24.063 109.276  0.00  0.00     0.210 HD
ATOM     19  H   IDS d 506      16.604  25.571 110.046  0.00  0.00     0.091 H 
ATOM     20  H   IDS d 506      19.520  26.245 107.098  0.00  0.00     0.097 H 
ATOM     21  H   IDS d 506      19.990  27.415 109.062  0.00  0.00     0.133 H 
ATOM     22  H   IDS d 506      17.105  25.302 107.497  0.00  0.00     0.091 H 
ATOM     23  H   IDS d 506      18.419  26.878 110.615  0.00  0.00     0.104 H 
ATOM     24  O62 IDS d 502      32.308  23.059 110.441  0.00  0.00    -0.646 OA
ATOM     25  O2  IDS d 502      33.271  27.570 107.180  0.00  0.00    -0.244 OA
ATOM     26  S   IDS d 502      32.821  28.119 105.786  0.00  0.00     0.252 S 
ATOM     27  O3  IDS d 502      35.284  24.605 107.113  0.00  0.00    -0.390 OA
ATOM     28  O2S IDS d 502      31.382  28.224 105.849  0.00  0.00    -0.572 OA
ATOM     29  C4  IDS d 502      33.031  24.716 107.950  0.00  0.00     0.103 C 
ATOM     30  C1  IDS d 502      34.661  26.881 108.973  0.00  0.00     0.158 C 
ATOM     31  O61 IDS d 502      31.846  24.937 111.188  0.00  0.00    -0.646 OA
ATOM     32  C6  IDS d 502      32.474  24.263 110.408  0.00  0.00     0.206 C 
ATOM     33  O1  IDS d 502      35.921  26.319 109.226  0.00  0.00    -0.368 OA
ATOM     34  C3  IDS d 502      34.089  25.357 107.032  0.00  0.00     0.094 C 
ATOM     35  O3S IDS d 502      33.491  29.388 105.657  0.00  0.00    -0.572 OA
ATOM     36  O5  IDS d 502      33.636  26.262 109.709  0.00  0.00    -0.340 OA
ATOM     37  C2  IDS d 502      34.400  26.791 107.473  0.00  0.00     0.134 C 
ATOM     38  O4  IDS d 502      31.785  25.327 107.733  0.00  0.00    -0.348 OA
ATOM     39  O1S IDS d 502      33.257  27.175 104.795  0.00  0.00    -0.572 OA
ATOM     40  C5  IDS d 502      33.436  24.894 109.412  0.00  0.00     0.152 C 
ATOM     41  H   IDS d 502      35.110  23.691 106.838  0.00  0.00     0.210 HD
ATOM     42  H   IDS d 502      32.961  23.671 107.728  0.00  0.00     0.092 H 
ATOM     43  H   IDS d 502      34.664  27.903 109.290  0.00  0.00     0.133 H 
ATOM     44  H   IDS d 502      35.925  25.392 108.940  0.00  0.00     0.212 HD
ATOM     45  H   IDS d 502      33.705  25.371 106.033  0.00  0.00     0.091 H 
ATOM     46  H   IDS d 502      35.277  27.128 106.961  0.00  0.00     0.097 H 
ATOM     47  H   IDS d 502      34.358  24.364 109.525  0.00  0.00     0.104 H 
ATOM     48  S2  SGN d 505      20.265  31.907 104.525  0.00  0.00     0.251 S 
ATOM     49  O6  SGN d 505      20.726  31.169 105.774  0.00  0.00    -0.254 OA
ATOM     50  O5S SGN d 505      20.984  33.156 104.556  0.00  0.00    -0.572 OA
ATOM     51  C6  SGN d 505      21.458  29.993 105.831  0.00  0.00     0.067 C 
ATOM     52  O2S SGN d 505      21.962  32.915 112.179  0.00  0.00    -0.296 OA
ATOM     53  S1  SGN d 505      23.200  32.227 111.896  0.00  0.00     0.156 S 
ATOM     54  O6S SGN d 505      20.633  31.080 103.384  0.00  0.00    -0.572 OA
ATOM     55  O4  SGN d 505      19.744  28.863 107.669  0.00  0.00    -0.348 OA
ATOM     56  O5  SGN d 505      22.680  30.874 107.586  0.00  0.00    -0.349 OA
ATOM     57  O4S SGN d 505      18.834  32.035 104.682  0.00  0.00    -0.572 OA
ATOM     58  C1  SGN d 505      23.242  30.779 108.864  0.00  0.00     0.150 C 
ATOM     59  O1S SGN d 505      23.995  32.907 110.896  0.00  0.00    -0.296 OA
ATOM     60  N   SGN d 505      22.736  30.749 111.255  0.00  0.00    -0.210 NA
ATOM     61  C3  SGN d 505      21.150  29.600 109.616  0.00  0.00     0.083 C 
ATOM     62  C2  SGN d 505      22.136  30.750 109.901  0.00  0.00     0.081 C 
ATOM     63  O3S SGN d 505      23.922  31.953 113.087  0.00  0.00    -0.296 OA
ATOM     64  C4  SGN d 505      20.623  29.846 108.172  0.00  0.00     0.095 C 
ATOM     65  C5  SGN d 505      21.816  29.825 107.272  0.00  0.00     0.091 C 
ATOM     66  O3  SGN d 505      20.086  29.675 110.555  0.00  0.00    -0.391 OA
ATOM     67  H   SGN d 505      22.341  30.071 105.232  0.00  0.00     0.080 H 
ATOM     68  H   SGN d 505      20.904  29.157 105.457  0.00  0.00     0.080 H 
ATOM     69  H   SGN d 505      21.492  33.088 111.347  0.00  0.00     0.231 HD
ATOM     70  H   SGN d 505      23.857  31.635 109.050  0.00  0.00     0.131 H 
ATOM     71  H   SGN d 505      23.453  33.069 110.107  0.00  0.00     0.231 HD
ATOM     72  H   SGN d 505      22.051  30.342 111.893  0.00  0.00     0.140 HD
ATOM     73  H   SGN d 505      21.603  28.633 109.698  0.00  0.00     0.089 H 
ATOM     74  H   SGN d 505      21.535  31.633 109.845  0.00  0.00     0.076 H 
ATOM     75  H   SGN d 505      23.343  31.498 113.719  0.00  0.00     0.231 HD
ATOM     76  H   SGN d 505      20.079  30.767 108.206  0.00  0.00     0.091 H 
ATOM     77  H   SGN d 505      22.271  28.868 107.422  0.00  0.00     0.090 H 
ATOM     78  H   SGN d 505      19.663  30.546 110.495  0.00  0.00     0.210 HD
ATOM     79  C6  SGN d 503      28.953  25.443 110.702  0.00  0.00     0.067 C 
ATOM     80  O6  SGN d 503      27.954  24.449 110.632  0.00  0.00    -0.254 OA
ATOM     81  C4  SGN d 503      28.423  26.103 108.287  0.00  0.00     0.095 C 
ATOM     82  O5  SGN d 503      30.031  24.423 108.952  0.00  0.00    -0.349 OA
ATOM     83  O4  SGN d 503      27.987  27.378 108.629  0.00  0.00    -0.348 OA
ATOM     84  S1  SGN d 503      30.446  23.417 104.506  0.00  0.00     0.156 S 
ATOM     85  O4S SGN d 503      27.786  24.098 113.013  0.00  0.00    -0.572 OA
ATOM     86  O2S SGN d 503      29.100  22.849 104.438  0.00  0.00    -0.296 OA
ATOM     87  C3  SGN d 503      29.032  26.159 106.888  0.00  0.00     0.083 C 
ATOM     88  S2  SGN d 503      27.597  23.447 111.761  0.00  0.00     0.251 S 
ATOM     89  O5S SGN d 503      26.207  23.050 111.556  0.00  0.00    -0.572 OA
ATOM     90  C1  SGN d 503      30.695  24.446 107.713  0.00  0.00     0.150 C 
ATOM     91  O1S SGN d 503      31.355  22.576 105.261  0.00  0.00    -0.296 OA
ATOM     92  O6S SGN d 503      28.544  22.413 111.604  0.00  0.00    -0.572 OA
ATOM     93  C2  SGN d 503      29.702  24.827 106.606  0.00  0.00     0.081 C 
ATOM     94  N   SGN d 503      30.361  24.829 105.311  0.00  0.00    -0.210 NA
ATOM     95  O3  SGN d 503      27.986  26.378 105.961  0.00  0.00    -0.391 OA
ATOM     96  C5  SGN d 503      29.482  25.653 109.309  0.00  0.00     0.091 C 
ATOM     97  O3S SGN d 503      30.984  23.801 103.221  0.00  0.00    -0.296 OA
ATOM     98  H   SGN d 503      28.536  26.355 111.075  0.00  0.00     0.080 H 
ATOM     99  H   SGN d 503      29.740  25.140 111.361  0.00  0.00     0.080 H 
ATOM    100  H   SGN d 503      27.610  25.408 108.294  0.00  0.00     0.091 H 
ATOM    101  H   SGN d 503      28.803  22.616 105.332  0.00  0.00     0.231 HD
ATOM    102  H   SGN d 503      29.753  26.945 106.811  0.00  0.00     0.089 H 
ATOM    103  H   SGN d 503      31.084  23.469 107.516  0.00  0.00     0.131 H 
ATOM    104  H   SGN d 503      30.950  22.345 106.112  0.00  0.00     0.231 HD
ATOM    105  H   SGN d 503      28.930  24.086 106.586  0.00  0.00     0.076 H 
ATOM    106  H   SGN d 503      29.861  25.490 104.717  0.00  0.00     0.140 HD
ATOM    107  H   SGN d 503      27.334  25.663 106.034  0.00  0.00     0.210 HD
ATOM    108  H   SGN d 503      30.191  26.455 109.302  0.00  0.00     0.090 H 
ATOM    109  H   SGN d 503      31.875  24.168 103.340  0.00  0.00     0.231 HD
ATOM    110  O61 IDS d 504      23.737  27.546 106.347  0.00  0.00    -0.646 OA
ATOM    111  O62 IDS d 504      24.821  28.949 105.212  0.00  0.00    -0.646 OA
ATOM    112  O3S IDS d 504      27.032  27.759 112.836  0.00  0.00    -0.572 OA
ATOM    113  S   IDS d 504      25.778  28.383 112.633  0.00  0.00     0.252 S 
ATOM    114  C6  IDS d 504      24.673  28.331 106.269  0.00  0.00     0.206 C 
ATOM    115  O3  IDS d 504      27.595  30.331 108.661  0.00  0.00    -0.390 OA
ATOM    116  C1  IDS d 504      26.726  27.406 109.234  0.00  0.00     0.161 C 
ATOM    117  O2  IDS d 504      25.625  28.401 111.101  0.00  0.00    -0.244 OA
ATOM    118  C5  IDS d 504      25.619  28.556 107.460  0.00  0.00     0.152 C 
ATOM    119  C4  IDS d 504      25.317  29.792 108.304  0.00  0.00     0.103 C 
ATOM    120  O5  IDS d 504      25.660  27.410 108.279  0.00  0.00    -0.340 OA
ATOM    121  O4  IDS d 504      24.062  29.646 108.953  0.00  0.00    -0.348 OA
ATOM    122  C2  IDS d 504      26.661  28.616 110.144  0.00  0.00     0.134 C 
ATOM    123  O1S IDS d 504      25.786  29.737 113.051  0.00  0.00    -0.572 OA
ATOM    124  O2S IDS d 504      24.656  27.671 113.172  0.00  0.00    -0.572 OA
ATOM    125  C3  IDS d 504      26.409  29.955 109.350  0.00  0.00     0.094 C 
ATOM    126  H   IDS d 504      27.437  31.155 108.173  0.00  0.00     0.210 HD
ATOM    127  H   IDS d 504      26.597  26.511 109.806  0.00  0.00     0.133 H 
ATOM    128  H   IDS d 504      26.577  28.738 107.020  0.00  0.00     0.104 H 
ATOM    129  H   IDS d 504      25.282  30.654 107.670  0.00  0.00     0.092 H 
ATOM    130  H   IDS d 504      27.607  28.728 110.631  0.00  0.00     0.097 H 
ATOM    131  H   IDS d 504      26.114  30.694 110.065  0.00  0.00     0.091 H 
ENDROOT
TORSDOF 40
ENDMDL
MODEL 9
REMARK VINA RESULT:     -10.6      4.503     10.768
REMARK  0 active torsions:
REMARK  status: ('A' for Active; 'I' for Inactive)
REMARK       I    between atoms: C6_1  and  C5_82 
REMARK       I    between atoms: O2_4  and  C2_65 
REMARK       I    between atoms: O2_4  and  S_6 
REMARK       I    between atoms: S2_5  and  O6_13 
REMARK       I    between atoms: C6_7  and  C5_66 
REMARK       I    between atoms: C6_7  and  O6_11 
REMARK       I    between atoms: S_8  and  O2_37 
REMARK       I    between atoms: O6_11  and  S2_34 
REMARK       I    between atoms: O6_13  and  C6_16 
REMARK       I    between atoms: C6_16  and  C5_76 
REMARK       I    between atoms: O2S_17  and  S1_21 
REMARK       I    between atoms: O4_18  and  C4_33 
REMARK       I    between atoms: C4_19  and  O4_25 
REMARK       I    between atoms: O3_20  and  C3_57 
REMARK       I    between atoms: S1_21  and  N_56 
REMARK       I    between atoms: S1_21  and  O1S_55 
REMARK       I    between atoms: S1_21  and  O3S_68 
REMARK       I    between atoms: O3_24  and  C3_80 
REMARK       I    between atoms: O4_25  and  C1_53 
REMARK       I    between atoms: S1_26  and  N_59 
REMARK       I    between atoms: S1_26  and  O1S_42 
REMARK       I    between atoms: S1_26  and  O2S_29 
REMARK       I    between atoms: S1_26  and  O3S_87 
REMARK       I    between atoms: S_30  and  O2_54 
REMARK       I    between atoms: C3_31  and  O3_61 
REMARK       I    between atoms: O4_36  and  C4_70 
REMARK       I    between atoms: O4_36  and  C1_52 
REMARK       I    between atoms: O2_37  and  C2_45 
REMARK       I    between atoms: C4_38  and  O4_71 
REMARK       I    between atoms: C1_39  and  O1_51 
REMARK       I    between atoms: C1_40  and  O4_71 
REMARK       I    between atoms: C6_46  and  C5_84 
REMARK       I    between atoms: C6_47  and  C5_64 
REMARK       I    between atoms: C1_48  and  O4_77 
REMARK       I    between atoms: O3_50  and  C3_86 
REMARK       I    between atoms: O2_54  and  C2_79 
REMARK       I    between atoms: N_56  and  C2_67 
REMARK       I    between atoms: C2_58  and  N_59 
REMARK       I    between atoms: C3_62  and  O3_81 
REMARK       I    between atoms: C4_69  and  O4_77 
ROOT
ATOM      1  C6  IDS d 506      29.225  17.795 107.667  0.00  0.00     0.206 C 
ATOM      2  O62 IDS d 506      29.272  16.666 108.124  0.00  0.00    -0.646 OA
ATOM      3  S   IDS d 506      32.866  22.513 109.626  0.00  0.00     0.252 S 
ATOM      4  O1S IDS d 506      33.080  21.751 110.817  0.00  0.00    -0.572 OA
ATOM      5  O3S IDS d 506      32.488  23.885 109.888  0.00  0.00    -0.572 OA
ATOM      6  O4  IDS d 506      31.724  18.753 109.025  0.00  0.00    -0.390 OA
ATOM      7  O3  IDS d 506      29.537  20.291 111.408  0.00  0.00    -0.390 OA
ATOM      8  C4  IDS d 506      30.467  18.961 109.624  0.00  0.00     0.097 C 
ATOM      9  O2  IDS d 506      31.601  21.848 108.932  0.00  0.00    -0.244 OA
ATOM     10  C2  IDS d 506      30.343  21.549 109.506  0.00  0.00     0.134 C 
ATOM     11  C1  IDS d 506      29.294  21.349 108.403  0.00  0.00     0.161 C 
ATOM     12  O2S IDS d 506      33.981  22.394 108.730  0.00  0.00    -0.572 OA
ATOM     13  O5  IDS d 506      29.573  20.142 107.740  0.00  0.00    -0.340 OA
ATOM     14  O61 IDS d 506      29.030  17.921 106.467  0.00  0.00    -0.646 OA
ATOM     15  C3  IDS d 506      30.544  20.294 110.399  0.00  0.00     0.094 C 
ATOM     16  C5  IDS d 506      29.383  19.024 108.544  0.00  0.00     0.152 C 
ATOM     17  H   IDS d 506      32.408  18.713 109.713  0.00  0.00     0.210 HD
ATOM     18  H   IDS d 506      29.649  19.511 111.974  0.00  0.00     0.210 HD
ATOM     19  H   IDS d 506      30.218  18.160 110.290  0.00  0.00     0.091 H 
ATOM     20  H   IDS d 506      29.974  22.351 110.111  0.00  0.00     0.097 H 
ATOM     21  H   IDS d 506      28.312  21.333 108.827  0.00  0.00     0.133 H 
ATOM     22  H   IDS d 506      31.530  20.358 110.811  0.00  0.00     0.091 H 
ATOM     23  H   IDS d 506      28.469  19.081 109.098  0.00  0.00     0.104 H 
ATOM     24  O62 IDS d 502      18.199  27.868 114.084  0.00  0.00    -0.646 OA
ATOM     25  O2  IDS d 502      19.593  31.464 109.955  0.00  0.00    -0.244 OA
ATOM     26  S   IDS d 502      20.847  32.273 109.488  0.00  0.00     0.252 S 
ATOM     27  O3  IDS d 502      18.153  32.483 113.076  0.00  0.00    -0.390 OA
ATOM     28  O2S IDS d 502      21.884  31.295 109.256  0.00  0.00    -0.572 OA
ATOM     29  C4  IDS d 502      19.289  30.395 112.706  0.00  0.00     0.103 C 
ATOM     30  C1  IDS d 502      17.371  30.957 110.609  0.00  0.00     0.158 C 
ATOM     31  O61 IDS d 502      18.035  27.230 112.117  0.00  0.00    -0.646 OA
ATOM     32  C6  IDS d 502      18.086  28.143 112.905  0.00  0.00     0.206 C 
ATOM     33  O1  IDS d 502      16.263  31.529 111.253  0.00  0.00    -0.368 OA
ATOM     34  C3  IDS d 502      19.096  31.849 112.234  0.00  0.00     0.094 C 
ATOM     35  O3S IDS d 502      20.418  32.959 108.296  0.00  0.00    -0.572 OA
ATOM     36  O5  IDS d 502      17.659  29.663 111.076  0.00  0.00    -0.340 OA
ATOM     37  C2  IDS d 502      18.559  31.894 110.801  0.00  0.00     0.134 C 
ATOM     38  O4  IDS d 502      20.362  29.812 112.012  0.00  0.00    -0.348 OA
ATOM     39  O1S IDS d 502      21.183  33.186 110.544  0.00  0.00    -0.572 OA
ATOM     40  C5  IDS d 502      18.017  29.591 112.442  0.00  0.00     0.152 C 
ATOM     41  H   IDS d 502      18.473  32.466 113.991  0.00  0.00     0.210 HD
ATOM     42  H   IDS d 502      19.497  30.391 113.755  0.00  0.00     0.092 H 
ATOM     43  H   IDS d 502      17.150  30.843 109.569  0.00  0.00     0.133 H 
ATOM     44  H   IDS d 502      16.457  31.634 112.198  0.00  0.00     0.212 HD
ATOM     45  H   IDS d 502      20.045  32.343 112.271  0.00  0.00     0.091 H 
ATOM     46  H   IDS d 502      18.236  32.890 110.583  0.00  0.00     0.097 H 
ATOM     47  H   IDS d 502      17.255  30.049 113.037  0.00  0.00     0.104 H 
ATOM     48  S2  SGN d 505      31.066  25.426 104.766  0.00  0.00     0.251 S 
ATOM     49  O6  SGN d 505      29.901  24.711 105.435  0.00  0.00    -0.254 OA
ATOM     50  O5S SGN d 505      30.494  26.023 103.584  0.00  0.00    -0.572 OA
ATOM     51  C6  SGN d 505      29.324  25.009 106.660  0.00  0.00     0.067 C 
ATOM     52  O2S SGN d 505      24.723  20.952 103.275  0.00  0.00    -0.296 OA
ATOM     53  S1  SGN d 505      23.987  21.893 104.087  0.00  0.00     0.156 S 
ATOM     54  O6S SGN d 505      31.552  26.421 105.713  0.00  0.00    -0.572 OA
ATOM     55  O4  SGN d 505      29.406  22.381 107.484  0.00  0.00    -0.348 OA
ATOM     56  O5  SGN d 505      27.240  24.606 105.743  0.00  0.00    -0.349 OA
ATOM     57  O4S SGN d 505      32.035  24.386 104.504  0.00  0.00    -0.572 OA
ATOM     58  C1  SGN d 505      25.974  24.011 105.779  0.00  0.00     0.150 C 
ATOM     59  O1S SGN d 505      24.046  23.241 103.562  0.00  0.00    -0.296 OA
ATOM     60  N   SGN d 505      24.773  21.892 105.568  0.00  0.00    -0.210 NA
ATOM     61  C3  SGN d 505      27.056  21.939 106.710  0.00  0.00     0.083 C 
ATOM     62  C2  SGN d 505      26.118  22.509 105.629  0.00  0.00     0.081 C 
ATOM     63  O3S SGN d 505      22.661  21.446 104.322  0.00  0.00    -0.296 OA
ATOM     64  C4  SGN d 505      28.404  22.699 106.541  0.00  0.00     0.095 C 
ATOM     65  C5  SGN d 505      28.104  24.150 106.737  0.00  0.00     0.091 C 
ATOM     66  O3  SGN d 505      27.233  20.549 106.468  0.00  0.00    -0.391 OA
ATOM     67  H   SGN d 505      29.058  26.045 106.707  0.00  0.00     0.080 H 
ATOM     68  H   SGN d 505      29.995  24.826 107.473  0.00  0.00     0.080 H 
ATOM     69  H   SGN d 505      25.624  21.284 103.132  0.00  0.00     0.231 HD
ATOM     70  H   SGN d 505      25.382  24.376 104.966  0.00  0.00     0.131 H 
ATOM     71  H   SGN d 505      24.973  23.493 103.421  0.00  0.00     0.231 HD
ATOM     72  H   SGN d 505      24.869  20.919 105.862  0.00  0.00     0.140 HD
ATOM     73  H   SGN d 505      26.671  22.060 107.702  0.00  0.00     0.089 H 
ATOM     74  H   SGN d 505      26.598  22.261 104.705  0.00  0.00     0.076 H 
ATOM     75  H   SGN d 505      22.681  20.542 104.672  0.00  0.00     0.231 HD
ATOM     76  H   SGN d 505      28.782  22.426 105.578  0.00  0.00     0.091 H 
ATOM     77  H   SGN d 505      27.672  24.223 107.714  0.00  0.00     0.090 H 
ATOM     78  H   SGN d 505      27.582  20.420 105.572  0.00  0.00     0.210 HD
ATOM     79  C6  SGN d 503      20.522  25.755 111.410  0.00  0.00     0.067 C 
ATOM     80  O6  SGN d 503      21.327  25.035 112.317  0.00  0.00    -0.254 OA
ATOM     81  C4  SGN d 503      22.510  27.286 110.909  0.00  0.00     0.095 C 
ATOM     82  O5  SGN d 503      20.880  27.645 112.659  0.00  0.00    -0.349 OA
ATOM     83  O4  SGN d 503      22.600  26.895 109.578  0.00  0.00    -0.348 OA
ATOM     84  S1  SGN d 503      23.517  31.114 114.061  0.00  0.00     0.156 S 
ATOM     85  O4S SGN d 503      19.882  23.107 112.456  0.00  0.00    -0.572 OA
ATOM     86  O2S SGN d 503      24.577  30.215 114.516  0.00  0.00    -0.296 OA
ATOM     87  C3  SGN d 503      22.978  28.735 111.022  0.00  0.00     0.083 C 
ATOM     88  S2  SGN d 503      20.858  23.840 113.189  0.00  0.00     0.251 S 
ATOM     89  O5S SGN d 503      22.039  23.034 113.483  0.00  0.00    -0.572 OA
ATOM     90  C1  SGN d 503      21.200  29.008 112.795  0.00  0.00     0.150 C 
ATOM     91  O1S SGN d 503      22.344  31.048 114.911  0.00  0.00    -0.296 OA
ATOM     92  O6S SGN d 503      20.260  24.456 114.309  0.00  0.00    -0.572 OA
ATOM     93  C2  SGN d 503      22.674  29.227 112.425  0.00  0.00     0.081 C 
ATOM     94  N   SGN d 503      23.036  30.625 112.585  0.00  0.00    -0.210 NA
ATOM     95  O3  SGN d 503      24.374  28.766 110.792  0.00  0.00    -0.391 OA
ATOM     96  C5  SGN d 503      21.044  27.165 111.361  0.00  0.00     0.091 C 
ATOM     97  O3S SGN d 503      23.959  32.471 113.832  0.00  0.00    -0.296 OA
ATOM     98  H   SGN d 503      20.580  25.310 110.438  0.00  0.00     0.080 H 
ATOM     99  H   SGN d 503      19.499  25.743 111.723  0.00  0.00     0.080 H 
ATOM    100  H   SGN d 503      23.122  26.665 111.530  0.00  0.00     0.091 H 
ATOM    101  H   SGN d 503      24.211  29.326 114.649  0.00  0.00     0.231 HD
ATOM    102  H   SGN d 503      22.481  29.359 110.309  0.00  0.00     0.089 H 
ATOM    103  H   SGN d 503      21.048  29.294 113.815  0.00  0.00     0.131 H 
ATOM    104  H   SGN d 503      22.086  30.121 115.035  0.00  0.00     0.231 HD
ATOM    105  H   SGN d 503      23.273  28.648 113.096  0.00  0.00     0.076 H 
ATOM    106  H   SGN d 503      23.798  30.819 111.936  0.00  0.00     0.140 HD
ATOM    107  H   SGN d 503      24.821  28.199 111.440  0.00  0.00     0.210 HD
ATOM    108  H   SGN d 503      20.510  27.730 110.626  0.00  0.00     0.090 H 
ATOM    109  H   SGN d 503      23.209  33.009 113.534  0.00  0.00     0.231 HD
ATOM    110  O61 IDS d 504      27.295  25.830 109.240  0.00  0.00    -0.646 OA
ATOM    111  O62 IDS d 504      27.220  27.553 108.033  0.00  0.00    -0.646 OA
ATOM    112  O3S IDS d 504      20.531  23.177 108.770  0.00  0.00    -0.572 OA
ATOM    113  S   IDS d 504      21.601  22.580 108.062  0.00  0.00     0.252 S 
ATOM    114  C6  IDS d 504      26.638  26.595 108.546  0.00  0.00     0.206 C 
ATOM    115  O3  IDS d 504      22.847  26.963 106.610  0.00  0.00    -0.390 OA
ATOM    116  C1  IDS d 504      23.145  25.621 109.393  0.00  0.00     0.161 C 
ATOM    117  O2  IDS d 504      22.728  23.624 108.157  0.00  0.00    -0.244 OA
ATOM    118  C5  IDS d 504      25.139  26.354 108.305  0.00  0.00     0.152 C 
ATOM    119  C4  IDS d 504      24.797  25.672 106.981  0.00  0.00     0.103 C 
ATOM    120  O5  IDS d 504      24.577  25.634 109.378  0.00  0.00    -0.340 OA
ATOM    121  O4  IDS d 504      25.309  24.348 106.967  0.00  0.00    -0.348 OA
ATOM    122  C2  IDS d 504      22.582  25.042 108.111  0.00  0.00     0.134 C 
ATOM    123  O1S IDS d 504      21.306  22.434 106.683  0.00  0.00    -0.572 OA
ATOM    124  O2S IDS d 504      22.092  21.358 108.629  0.00  0.00    -0.572 OA
ATOM    125  C3  IDS d 504      23.284  25.628 106.826  0.00  0.00     0.094 C 
ATOM    126  H   IDS d 504      23.280  27.321 105.819  0.00  0.00     0.210 HD
ATOM    127  H   IDS d 504      22.873  25.004 110.224  0.00  0.00     0.133 H 
ATOM    128  H   IDS d 504      24.709  27.331 108.241  0.00  0.00     0.104 H 
ATOM    129  H   IDS d 504      25.234  26.223 106.175  0.00  0.00     0.092 H 
ATOM    130  H   IDS d 504      21.549  25.313 108.040  0.00  0.00     0.097 H 
ATOM    131  H   IDS d 504      23.026  24.988 106.007  0.00  0.00     0.091 H 
ENDROOT
TORSDOF 40
ENDMDL
MODEL 10
REMARK VINA RESULT:     -10.6      2.603      3.858
REMARK  0 active torsions:
REMARK  status: ('A' for Active; 'I' for Inactive)
REMARK       I    between atoms: C6_1  and  C5_82 
REMARK       I    between atoms: O2_4  and  C2_65 
REMARK       I    between atoms: O2_4  and  S_6 
REMARK       I    between atoms: S2_5  and  O6_13 
REMARK       I    between atoms: C6_7  and  C5_66 
REMARK       I    between atoms: C6_7  and  O6_11 
REMARK       I    between atoms: S_8  and  O2_37 
REMARK       I    between atoms: O6_11  and  S2_34 
REMARK       I    between atoms: O6_13  and  C6_16 
REMARK       I    between atoms: C6_16  and  C5_76 
REMARK       I    between atoms: O2S_17  and  S1_21 
REMARK       I    between atoms: O4_18  and  C4_33 
REMARK       I    between atoms: C4_19  and  O4_25 
REMARK       I    between atoms: O3_20  and  C3_57 
REMARK       I    between atoms: S1_21  and  N_56 
REMARK       I    between atoms: S1_21  and  O1S_55 
REMARK       I    between atoms: S1_21  and  O3S_68 
REMARK       I    between atoms: O3_24  and  C3_80 
REMARK       I    between atoms: O4_25  and  C1_53 
REMARK       I    between atoms: S1_26  and  N_59 
REMARK       I    between atoms: S1_26  and  O1S_42 
REMARK       I    between atoms: S1_26  and  O2S_29 
REMARK       I    between atoms: S1_26  and  O3S_87 
REMARK       I    between atoms: S_30  and  O2_54 
REMARK       I    between atoms: C3_31  and  O3_61 
REMARK       I    between atoms: O4_36  and  C4_70 
REMARK       I    between atoms: O4_36  and  C1_52 
REMARK       I    between atoms: O2_37  and  C2_45 
REMARK       I    between atoms: C4_38  and  O4_71 
REMARK       I    between atoms: C1_39  and  O1_51 
REMARK       I    between atoms: C1_40  and  O4_71 
REMARK       I    between atoms: C6_46  and  C5_84 
REMARK       I    between atoms: C6_47  and  C5_64 
REMARK       I    between atoms: C1_48  and  O4_77 
REMARK       I    between atoms: O3_50  and  C3_86 
REMARK       I    between atoms: O2_54  and  C2_79 
REMARK       I    between atoms: N_56  and  C2_67 
REMARK       I    between atoms: C2_58  and  N_59 
REMARK       I    between atoms: C3_62  and  O3_81 
REMARK       I    between atoms: C4_69  and  O4_77 
ROOT
ATOM      1  C6  IDS d 506      22.501  16.462 108.675  0.00  0.00     0.206 C 
ATOM      2  O62 IDS d 506      22.994  15.438 108.236  0.00  0.00    -0.646 OA
ATOM      3  S   IDS d 506      18.812  20.281 105.335  0.00  0.00     0.252 S 
ATOM      4  O1S IDS d 506      19.364  19.667 104.167  0.00  0.00    -0.572 OA
ATOM      5  O3S IDS d 506      18.835  21.727 105.283  0.00  0.00    -0.572 OA
ATOM      6  O4  IDS d 506      20.658  16.910 106.350  0.00  0.00    -0.390 OA
ATOM      7  O3  IDS d 506      23.079  19.293 105.215  0.00  0.00    -0.390 OA
ATOM      8  C4  IDS d 506      21.924  17.526 106.380  0.00  0.00     0.097 C 
ATOM      9  O2  IDS d 506      19.796  19.882 106.517  0.00  0.00    -0.244 OA
ATOM     10  C2  IDS d 506      21.204  20.010 106.565  0.00  0.00     0.134 C 
ATOM     11  C1  IDS d 506      21.691  19.939 108.020  0.00  0.00     0.161 C 
ATOM     12  O2S IDS d 506      17.514  19.746 105.635  0.00  0.00    -0.572 OA
ATOM     13  O5  IDS d 506      21.532  18.620 108.475  0.00  0.00    -0.340 OA
ATOM     14  O61 IDS d 506      22.120  16.463 109.837  0.00  0.00    -0.646 OA
ATOM     15  C3  IDS d 506      21.789  18.887 105.665  0.00  0.00     0.094 C 
ATOM     16  C5  IDS d 506      22.372  17.718 107.833  0.00  0.00     0.152 C 
ATOM     17  H   IDS d 506      20.379  16.790 105.428  0.00  0.00     0.210 HD
ATOM     18  H   IDS d 506      23.457  18.601 104.651  0.00  0.00     0.210 HD
ATOM     19  H   IDS d 506      22.660  16.922 105.889  0.00  0.00     0.091 H 
ATOM     20  H   IDS d 506      21.536  20.958 106.197  0.00  0.00     0.097 H 
ATOM     21  H   IDS d 506      22.714  20.243 108.081  0.00  0.00     0.133 H 
ATOM     22  H   IDS d 506      21.102  18.746 104.856  0.00  0.00     0.091 H 
ATOM     23  H   IDS d 506      23.370  18.093 107.747  0.00  0.00     0.104 H 
ATOM     24  O62 IDS d 502      31.627  29.895 107.980  0.00  0.00    -0.646 OA
ATOM     25  O2  IDS d 502      27.603  32.370 111.077  0.00  0.00    -0.244 OA
ATOM     26  S   IDS d 502      26.090  32.745 110.940  0.00  0.00     0.252 S 
ATOM     27  O3  IDS d 502      29.854  34.167 108.943  0.00  0.00    -0.390 OA
ATOM     28  O2S IDS d 502      25.399  31.505 110.673  0.00  0.00    -0.572 OA
ATOM     29  C4  IDS d 502      29.353  31.822 108.745  0.00  0.00     0.103 C 
ATOM     30  C1  IDS d 502      29.930  32.567 111.485  0.00  0.00     0.158 C 
ATOM     31  O61 IDS d 502      31.122  29.050 109.805  0.00  0.00    -0.646 OA
ATOM     32  C6  IDS d 502      31.140  30.020 109.086  0.00  0.00     0.206 C 
ATOM     33  O1  IDS d 502      30.979  33.496 111.412  0.00  0.00    -0.368 OA
ATOM     34  C3  IDS d 502      28.881  33.193 109.267  0.00  0.00     0.094 C 
ATOM     35  O3S IDS d 502      25.744  33.342 112.204  0.00  0.00    -0.572 OA
ATOM     36  O5  IDS d 502      30.271  31.322 110.927  0.00  0.00    -0.340 OA
ATOM     37  C2  IDS d 502      28.716  33.173 110.789  0.00  0.00     0.134 C 
ATOM     38  O4  IDS d 502      28.316  30.885 108.879  0.00  0.00    -0.348 OA
ATOM     39  O1S IDS d 502      25.979  33.677 109.853  0.00  0.00    -0.572 OA
ATOM     40  C5  IDS d 502      30.567  31.354 109.545  0.00  0.00     0.152 C 
ATOM     41  H   IDS d 502      29.975  34.197 107.982  0.00  0.00     0.210 HD
ATOM     42  H   IDS d 502      29.622  31.913 107.714  0.00  0.00     0.092 H 
ATOM     43  H   IDS d 502      29.710  32.368 112.513  0.00  0.00     0.133 H 
ATOM     44  H   IDS d 502      31.183  33.680 110.481  0.00  0.00     0.212 HD
ATOM     45  H   IDS d 502      27.938  33.420 108.813  0.00  0.00     0.091 H 
ATOM     46  H   IDS d 502      28.600  34.178 111.138  0.00  0.00     0.097 H 
ATOM     47  H   IDS d 502      31.334  32.076 109.358  0.00  0.00     0.104 H 
ATOM     48  S2  SGN d 505      17.408  22.844 110.513  0.00  0.00     0.251 S 
ATOM     49  O6  SGN d 505      18.901  22.564 110.431  0.00  0.00    -0.254 OA
ATOM     50  O5S SGN d 505      17.214  23.395 111.831  0.00  0.00    -0.572 OA
ATOM     51  C6  SGN d 505      19.826  23.175 109.598  0.00  0.00     0.067 C 
ATOM     52  O2S SGN d 505      23.530  20.037 114.649  0.00  0.00    -0.296 OA
ATOM     53  S1  SGN d 505      24.222  21.245 114.262  0.00  0.00     0.156 S 
ATOM     54  O6S SGN d 505      17.098  23.799 109.458  0.00  0.00    -0.572 OA
ATOM     55  O4  SGN d 505      20.895  20.764 108.800  0.00  0.00    -0.348 OA
ATOM     56  O5  SGN d 505      21.336  23.210 111.348  0.00  0.00    -0.349 OA
ATOM     57  O4S SGN d 505      16.781  21.558 110.303  0.00  0.00    -0.572 OA
ATOM     58  C1  SGN d 505      22.611  22.981 111.878  0.00  0.00     0.150 C 
ATOM     59  O1S SGN d 505      23.545  22.440 114.718  0.00  0.00    -0.296 OA
ATOM     60  N   SGN d 505      24.182  21.247 112.587  0.00  0.00    -0.210 NA
ATOM     61  C3  SGN d 505      22.704  20.852 110.541  0.00  0.00     0.083 C 
ATOM     62  C2  SGN d 505      22.874  21.489 111.934  0.00  0.00     0.081 C 
ATOM     63  O3S SGN d 505      25.589  21.202 114.643  0.00  0.00    -0.296 OA
ATOM     64  C4  SGN d 505      21.253  21.197 110.096  0.00  0.00     0.095 C 
ATOM     65  C5  SGN d 505      21.158  22.688 110.068  0.00  0.00     0.091 C 
ATOM     66  O3  SGN d 505      22.866  19.445 110.666  0.00  0.00    -0.391 OA
ATOM     67  H   SGN d 505      19.763  24.240 109.685  0.00  0.00     0.080 H 
ATOM     68  H   SGN d 505      19.654  22.939 108.568  0.00  0.00     0.080 H 
ATOM     69  H   SGN d 505      22.601  20.096 114.376  0.00  0.00     0.231 HD
ATOM     70  H   SGN d 505      22.661  23.371 112.874  0.00  0.00     0.131 H 
ATOM     71  H   SGN d 505      22.618  22.416 114.430  0.00  0.00     0.231 HD
ATOM     72  H   SGN d 505      24.517  20.336 112.272  0.00  0.00     0.140 HD
ATOM     73  H   SGN d 505      23.418  21.210 109.829  0.00  0.00     0.089 H 
ATOM     74  H   SGN d 505      22.146  20.994 112.542  0.00  0.00     0.076 H 
ATOM     75  H   SGN d 505      25.991  20.384 114.313  0.00  0.00     0.231 HD
ATOM     76  H   SGN d 505      20.603  20.699 110.784  0.00  0.00     0.091 H 
ATOM     77  H   SGN d 505      21.920  23.011 109.389  0.00  0.00     0.090 H 
ATOM     78  H   SGN d 505      22.227  19.102 111.309  0.00  0.00     0.210 HD
ATOM     79  C6  SGN d 503      29.139  26.886 109.308  0.00  0.00     0.067 C 
ATOM     80  O6  SGN d 503      29.054  26.115 108.129  0.00  0.00    -0.254 OA
ATOM     81  C4  SGN d 503      26.770  27.750 108.877  0.00  0.00     0.095 C 
ATOM     82  O5  SGN d 503      28.799  28.773 108.048  0.00  0.00    -0.349 OA
ATOM     83  O4  SGN d 503      26.244  27.164 110.023  0.00  0.00    -0.348 OA
ATOM     84  S1  SGN d 503      26.103  31.585 105.645  0.00  0.00     0.156 S 
ATOM     85  O4S SGN d 503      30.924  24.678 108.636  0.00  0.00    -0.572 OA
ATOM     86  O2S SGN d 503      25.662  30.513 104.754  0.00  0.00    -0.296 OA
ATOM     87  C3  SGN d 503      25.984  29.025 108.580  0.00  0.00     0.083 C 
ATOM     88  S2  SGN d 503      30.184  25.224 107.549  0.00  0.00     0.251 S 
ATOM     89  O5S SGN d 503      29.542  24.185 106.750  0.00  0.00    -0.572 OA
ATOM     90  C1  SGN d 503      28.174  30.007 107.796  0.00  0.00     0.150 C 
ATOM     91  O1S SGN d 503      27.487  31.953 105.410  0.00  0.00    -0.296 OA
ATOM     92  O6S SGN d 503      30.986  26.129 106.822  0.00  0.00    -0.572 OA
ATOM     93  C2  SGN d 503      26.692  29.775 107.467  0.00  0.00     0.081 C 
ATOM     94  N   SGN d 503      26.033  31.035 107.175  0.00  0.00    -0.210 NA
ATOM     95  O3  SGN d 503      24.685  28.653 108.160  0.00  0.00    -0.391 OA
ATOM     96  C5  SGN d 503      28.250  28.087 109.130  0.00  0.00     0.091 C 
ATOM     97  O3S SGN d 503      25.222  32.730 105.663  0.00  0.00    -0.296 OA
ATOM     98  H   SGN d 503      28.810  26.308 110.146  0.00  0.00     0.080 H 
ATOM     99  H   SGN d 503      30.150  27.189 109.487  0.00  0.00     0.080 H 
ATOM    100  H   SGN d 503      26.697  27.085 108.042  0.00  0.00     0.091 H 
ATOM    101  H   SGN d 503      26.297  29.780 104.791  0.00  0.00     0.231 HD
ATOM    102  H   SGN d 503      25.918  29.650 109.446  0.00  0.00     0.089 H 
ATOM    103  H   SGN d 503      28.652  30.466 106.955  0.00  0.00     0.131 H 
ATOM    104  H   SGN d 503      28.037  31.154 105.406  0.00  0.00     0.231 HD
ATOM    105  H   SGN d 503      26.641  29.160 106.594  0.00  0.00     0.076 H 
ATOM    106  H   SGN d 503      25.048  30.927 107.415  0.00  0.00     0.140 HD
ATOM    107  H   SGN d 503      24.748  28.087 107.375  0.00  0.00     0.210 HD
ATOM    108  H   SGN d 503      28.224  28.661 110.032  0.00  0.00     0.090 H 
ATOM    109  H   SGN d 503      25.574  33.399 106.271  0.00  0.00     0.231 HD
ATOM    110  O61 IDS d 504      22.410  24.860 108.209  0.00  0.00    -0.646 OA
ATOM    111  O62 IDS d 504      21.444  26.353 109.338  0.00  0.00    -0.646 OA
ATOM    112  O3S IDS d 504      28.781  24.049 111.639  0.00  0.00    -0.572 OA
ATOM    113  S   IDS d 504      27.746  23.096 111.787  0.00  0.00     0.252 S 
ATOM    114  C6  IDS d 504      22.446  25.665 109.131  0.00  0.00     0.206 C 
ATOM    115  O3  IDS d 504      24.750  26.742 112.566  0.00  0.00    -0.390 OA
ATOM    116  C1  IDS d 504      26.082  25.778 109.932  0.00  0.00     0.161 C 
ATOM    117  O2  IDS d 504      26.511  23.808 111.206  0.00  0.00    -0.244 OA
ATOM    118  C5  IDS d 504      23.696  25.797 110.017  0.00  0.00     0.152 C 
ATOM    119  C4  IDS d 504      23.630  25.048 111.347  0.00  0.00     0.103 C 
ATOM    120  O5  IDS d 504      24.849  25.411 109.304  0.00  0.00    -0.340 OA
ATOM    121  O4  IDS d 504      23.583  23.648 111.118  0.00  0.00    -0.348 OA
ATOM    122  C2  IDS d 504      26.191  25.193 111.325  0.00  0.00     0.134 C 
ATOM    123  O1S IDS d 504      27.454  22.838 113.150  0.00  0.00    -0.572 OA
ATOM    124  O2S IDS d 504      27.933  21.881 111.048  0.00  0.00    -0.572 OA
ATOM    125  C3  IDS d 504      24.869  25.383 112.164  0.00  0.00     0.094 C 
ATOM    126  H   IDS d 504      23.936  26.856 113.081  0.00  0.00     0.210 HD
ATOM    127  H   IDS d 504      26.853  25.380 109.306  0.00  0.00     0.133 H 
ATOM    128  H   IDS d 504      23.743  26.833 110.276  0.00  0.00     0.104 H 
ATOM    129  H   IDS d 504      22.748  25.344 111.877  0.00  0.00     0.092 H 
ATOM    130  H   IDS d 504      26.961  25.714 111.855  0.00  0.00     0.097 H 
ATOM    131  H   IDS d 504      24.932  24.725 113.005  0.00  0.00     0.091 H 
ENDROOT
TORSDOF 40
ENDMDL
MODEL 11
REMARK VINA RESULT:     -10.6      3.587      8.220
REMARK  0 active torsions:
REMARK  status: ('A' for Active; 'I' for Inactive)
REMARK       I    between atoms: C6_1  and  C5_82 
REMARK       I    between atoms: O2_4  and  C2_65 
REMARK       I    between atoms: O2_4  and  S_6 
REMARK       I    between atoms: S2_5  and  O6_13 
REMARK       I    between atoms: C6_7  and  C5_66 
REMARK       I    between atoms: C6_7  and  O6_11 
REMARK       I    between atoms: S_8  and  O2_37 
REMARK       I    between atoms: O6_11  and  S2_34 
REMARK       I    between atoms: O6_13  and  C6_16 
REMARK       I    between atoms: C6_16  and  C5_76 
REMARK       I    between atoms: O2S_17  and  S1_21 
REMARK       I    between atoms: O4_18  and  C4_33 
REMARK       I    between atoms: C4_19  and  O4_25 
REMARK       I    between atoms: O3_20  and  C3_57 
REMARK       I    between atoms: S1_21  and  N_56 
REMARK       I    between atoms: S1_21  and  O1S_55 
REMARK       I    between atoms: S1_21  and  O3S_68 
REMARK       I    between atoms: O3_24  and  C3_80 
REMARK       I    between atoms: O4_25  and  C1_53 
REMARK       I    between atoms: S1_26  and  N_59 
REMARK       I    between atoms: S1_26  and  O1S_42 
REMARK       I    between atoms: S1_26  and  O2S_29 
REMARK       I    between atoms: S1_26  and  O3S_87 
REMARK       I    between atoms: S_30  and  O2_54 
REMARK       I    between atoms: C3_31  and  O3_61 
REMARK       I    between atoms: O4_36  and  C4_70 
REMARK       I    between atoms: O4_36  and  C1_52 
REMARK       I    between atoms: O2_37  and  C2_45 
REMARK       I    between atoms: C4_38  and  O4_71 
REMARK       I    between atoms: C1_39  and  O1_51 
REMARK       I    between atoms: C1_40  and  O4_71 
REMARK       I    between atoms: C6_46  and  C5_84 
REMARK       I    between atoms: C6_47  and  C5_64 
REMARK       I    between atoms: C1_48  and  O4_77 
REMARK       I    between atoms: O3_50  and  C3_86 
REMARK       I    between atoms: O2_54  and  C2_79 
REMARK       I    between atoms: N_56  and  C2_67 
REMARK       I    between atoms: C2_58  and  N_59 
REMARK       I    between atoms: C3_62  and  O3_81 
REMARK       I    between atoms: C4_69  and  O4_77 
ROOT
ATOM      1  C6  IDS d 506      16.546  28.661 112.048  0.00  0.00     0.206 C 
ATOM      2  O62 IDS d 506      15.972  29.270 112.934  0.00  0.00    -0.646 OA
ATOM      3  S   IDS d 506      19.195  23.028 112.826  0.00  0.00     0.252 S 
ATOM      4  O1S IDS d 506      19.191  23.306 114.229  0.00  0.00    -0.572 OA
ATOM      5  O3S IDS d 506      20.478  22.568 112.339  0.00  0.00    -0.572 OA
ATOM      6  O4  IDS d 506      16.766  26.085 113.573  0.00  0.00    -0.390 OA
ATOM      7  O3  IDS d 506      20.146  27.064 114.241  0.00  0.00    -0.390 OA
ATOM      8  C4  IDS d 506      17.823  27.015 113.595  0.00  0.00     0.097 C 
ATOM      9  O2  IDS d 506      18.953  24.433 112.126  0.00  0.00    -0.244 OA
ATOM     10  C2  IDS d 506      19.640  25.650 112.344  0.00  0.00     0.134 C 
ATOM     11  C1  IDS d 506      19.406  26.607 111.167  0.00  0.00     0.161 C 
ATOM     12  O2S IDS d 506      18.109  22.159 112.469  0.00  0.00    -0.572 OA
ATOM     13  O5  IDS d 506      18.073  27.048 111.212  0.00  0.00    -0.340 OA
ATOM     14  O61 IDS d 506      16.088  28.727 110.916  0.00  0.00    -0.646 OA
ATOM     15  C3  IDS d 506      19.137  26.213 113.703  0.00  0.00     0.094 C 
ATOM     16  C5  IDS d 506      17.803  27.853 112.312  0.00  0.00     0.152 C 
ATOM     17  H   IDS d 506      16.782  25.558 114.387  0.00  0.00     0.210 HD
ATOM     18  H   IDS d 506      19.846  27.423 115.091  0.00  0.00     0.210 HD
ATOM     19  H   IDS d 506      17.731  27.686 114.424  0.00  0.00     0.091 H 
ATOM     20  H   IDS d 506      20.700  25.513 112.397  0.00  0.00     0.097 H 
ATOM     21  H   IDS d 506      20.083  27.434 111.223  0.00  0.00     0.133 H 
ATOM     22  H   IDS d 506      18.937  25.372 114.334  0.00  0.00     0.091 H 
ATOM     23  H   IDS d 506      18.568  28.584 112.469  0.00  0.00     0.104 H 
ATOM     24  O62 IDS d 502      32.240  32.172 109.685  0.00  0.00    -0.646 OA
ATOM     25  O2  IDS d 502      31.918  28.909 105.084  0.00  0.00    -0.244 OA
ATOM     26  S   IDS d 502      31.648  27.408 104.735  0.00  0.00     0.252 S 
ATOM     27  O3  IDS d 502      34.973  29.578 106.835  0.00  0.00    -0.390 OA
ATOM     28  O2S IDS d 502      30.348  27.102 105.286  0.00  0.00    -0.572 OA
ATOM     29  C4  IDS d 502      32.772  29.817 107.776  0.00  0.00     0.103 C 
ATOM     30  C1  IDS d 502      32.955  31.039 105.156  0.00  0.00     0.158 C 
ATOM     31  O61 IDS d 502      30.822  32.630 108.242  0.00  0.00    -0.646 OA
ATOM     32  C6  IDS d 502      31.860  32.087 108.533  0.00  0.00     0.206 C 
ATOM     33  O1  IDS d 502      34.222  31.642 105.107  0.00  0.00    -0.368 OA
ATOM     34  C3  IDS d 502      33.635  29.144 106.692  0.00  0.00     0.094 C 
ATOM     35  O3S IDS d 502      31.699  27.350 103.297  0.00  0.00    -0.572 OA
ATOM     36  O5  IDS d 502      32.157  31.543 106.198  0.00  0.00    -0.340 OA
ATOM     37  C2  IDS d 502      33.157  29.533 105.290  0.00  0.00     0.134 C 
ATOM     38  O4  IDS d 502      31.488  29.249 107.776  0.00  0.00    -0.348 OA
ATOM     39  O1S IDS d 502      32.695  26.634 105.344  0.00  0.00    -0.572 OA
ATOM     40  C5  IDS d 502      32.665  31.315 107.497  0.00  0.00     0.152 C 
ATOM     41  H   IDS d 502      35.298  29.342 107.718  0.00  0.00     0.210 HD
ATOM     42  H   IDS d 502      33.229  29.668 108.732  0.00  0.00     0.092 H 
ATOM     43  H   IDS d 502      32.426  31.266 104.255  0.00  0.00     0.133 H 
ATOM     44  H   IDS d 502      34.707  31.440 105.923  0.00  0.00     0.212 HD
ATOM     45  H   IDS d 502      33.556  28.083 106.809  0.00  0.00     0.091 H 
ATOM     46  H   IDS d 502      33.894  29.232 104.577  0.00  0.00     0.097 H 
ATOM     47  H   IDS d 502      33.662  31.695 107.565  0.00  0.00     0.104 H 
ATOM     48  S2  SGN d 505      19.507  22.769 106.895  0.00  0.00     0.251 S 
ATOM     49  O6  SGN d 505      19.907  24.147 107.401  0.00  0.00    -0.254 OA
ATOM     50  O5S SGN d 505      19.567  22.880 105.458  0.00  0.00    -0.572 OA
ATOM     51  C6  SGN d 505      21.041  24.477 108.128  0.00  0.00     0.067 C 
ATOM     52  O2S SGN d 505      18.551  30.500 105.558  0.00  0.00    -0.296 OA
ATOM     53  S1  SGN d 505      19.991  30.590 105.610  0.00  0.00     0.156 S 
ATOM     54  O6S SGN d 505      20.482  21.824 107.422  0.00  0.00    -0.572 OA
ATOM     55  O4  SGN d 505      19.591  25.913 109.981  0.00  0.00    -0.348 OA
ATOM     56  O5  SGN d 505      21.250  26.405 106.870  0.00  0.00    -0.349 OA
ATOM     57  O4S SGN d 505      18.179  22.554 107.424  0.00  0.00    -0.572 OA
ATOM     58  C1  SGN d 505      21.447  27.786 106.758  0.00  0.00     0.150 C 
ATOM     59  O1S SGN d 505      20.633  29.768 104.604  0.00  0.00    -0.296 OA
ATOM     60  N   SGN d 505      20.408  29.972 107.110  0.00  0.00    -0.210 NA
ATOM     61  C3  SGN d 505      19.974  28.085 108.776  0.00  0.00     0.083 C 
ATOM     62  C2  SGN d 505      20.242  28.515 107.321  0.00  0.00     0.081 C 
ATOM     63  O3S SGN d 505      20.426  31.941 105.583  0.00  0.00    -0.296 OA
ATOM     64  C4  SGN d 505      19.784  26.541 108.730  0.00  0.00     0.095 C 
ATOM     65  C5  SGN d 505      21.051  25.970 108.180  0.00  0.00     0.091 C 
ATOM     66  O3  SGN d 505      18.784  28.721 109.223  0.00  0.00    -0.391 OA
ATOM     67  H   SGN d 505      21.920  24.112 107.640  0.00  0.00     0.080 H 
ATOM     68  H   SGN d 505      21.029  24.044 109.107  0.00  0.00     0.080 H 
ATOM     69  H   SGN d 505      18.284  29.567 105.578  0.00  0.00     0.231 HD
ATOM     70  H   SGN d 505      21.550  28.052 105.726  0.00  0.00     0.131 H 
ATOM     71  H   SGN d 505      20.299  28.859 104.668  0.00  0.00     0.231 HD
ATOM     72  H   SGN d 505      19.835  30.449 107.807  0.00  0.00     0.140 HD
ATOM     73  H   SGN d 505      20.768  28.353 109.442  0.00  0.00     0.089 H 
ATOM     74  H   SGN d 505      19.350  28.242 106.797  0.00  0.00     0.076 H 
ATOM     75  H   SGN d 505      19.967  32.442 106.274  0.00  0.00     0.231 HD
ATOM     76  H   SGN d 505      18.902  26.365 108.151  0.00  0.00     0.091 H 
ATOM     77  H   SGN d 505      21.826  26.304 108.839  0.00  0.00     0.090 H 
ATOM     78  H   SGN d 505      18.052  28.490 108.630  0.00  0.00     0.210 HD
ATOM     79  C6  SGN d 503      28.236  31.402 109.059  0.00  0.00     0.067 C 
ATOM     80  O6  SGN d 503      27.833  31.163 110.391  0.00  0.00    -0.254 OA
ATOM     81  C4  SGN d 503      28.111  28.887 108.604  0.00  0.00     0.095 C 
ATOM     82  O5  SGN d 503      30.063  30.061 109.418  0.00  0.00    -0.349 OA
ATOM     83  O4  SGN d 503      27.086  29.008 107.673  0.00  0.00    -0.348 OA
ATOM     84  S1  SGN d 503      32.008  25.951 109.945  0.00  0.00     0.156 S 
ATOM     85  O4S SGN d 503      27.231  33.448 110.880  0.00  0.00    -0.572 OA
ATOM     86  O2S SGN d 503      31.119  25.596 111.050  0.00  0.00    -0.296 OA
ATOM     87  C3  SGN d 503      28.971  27.683 108.224  0.00  0.00     0.083 C 
ATOM     88  S2  SGN d 503      27.678  32.243 111.494  0.00  0.00     0.251 S 
ATOM     89  O5S SGN d 503      26.710  31.731 112.460  0.00  0.00    -0.572 OA
ATOM     90  C1  SGN d 503      30.943  29.029 109.049  0.00  0.00     0.150 C 
ATOM     91  O1S SGN d 503      32.967  26.972 110.324  0.00  0.00    -0.296 OA
ATOM     92  O6S SGN d 503      28.988  32.409 111.989  0.00  0.00    -0.572 OA
ATOM     93  C2  SGN d 503      30.207  27.682 109.105  0.00  0.00     0.081 C 
ATOM     94  N   SGN d 503      31.106  26.596 108.754  0.00  0.00    -0.210 NA
ATOM     95  O3  SGN d 503      28.213  26.511 108.456  0.00  0.00    -0.391 OA
ATOM     96  C5  SGN d 503      28.957  30.172 108.577  0.00  0.00     0.091 C 
ATOM     97  O3S SGN d 503      32.633  24.814 109.308  0.00  0.00    -0.296 OA
ATOM     98  H   SGN d 503      27.379  31.587 108.446  0.00  0.00     0.080 H 
ATOM     99  H   SGN d 503      28.877  32.258 109.008  0.00  0.00     0.080 H 
ATOM    100  H   SGN d 503      27.717  28.745 109.589  0.00  0.00     0.091 H 
ATOM    101  H   SGN d 503      30.737  26.403 111.429  0.00  0.00     0.231 HD
ATOM    102  H   SGN d 503      29.265  27.726 107.197  0.00  0.00     0.089 H 
ATOM    103  H   SGN d 503      31.759  29.011 109.741  0.00  0.00     0.131 H 
ATOM    104  H   SGN d 503      32.502  27.711 110.746  0.00  0.00     0.231 HD
ATOM    105  H   SGN d 503      29.875  27.530 110.110  0.00  0.00     0.076 H 
ATOM    106  H   SGN d 503      30.538  25.846 108.361  0.00  0.00     0.140 HD
ATOM    107  H   SGN d 503      27.949  26.475 109.388  0.00  0.00     0.210 HD
ATOM    108  H   SGN d 503      29.215  30.279 107.544  0.00  0.00     0.090 H 
ATOM    109  H   SGN d 503      33.207  25.122 108.588  0.00  0.00     0.231 HD
ATOM    110  O61 IDS d 504      23.946  25.735 109.322  0.00  0.00    -0.646 OA
ATOM    111  O62 IDS d 504      24.552  24.798 107.536  0.00  0.00    -0.646 OA
ATOM    112  O3S IDS d 504      25.014  32.802 107.935  0.00  0.00    -0.572 OA
ATOM    113  S   IDS d 504      23.713  32.245 107.928  0.00  0.00     0.252 S 
ATOM    114  C6  IDS d 504      24.425  25.830 108.199  0.00  0.00     0.206 C 
ATOM    115  O3  IDS d 504      25.439  28.709 105.209  0.00  0.00    -0.390 OA
ATOM    116  C1  IDS d 504      25.834  29.276 108.236  0.00  0.00     0.161 C 
ATOM    117  O2  IDS d 504      23.968  30.727 107.915  0.00  0.00    -0.244 OA
ATOM    118  C5  IDS d 504      24.832  27.198 107.627  0.00  0.00     0.152 C 
ATOM    119  C4  IDS d 504      23.810  27.840 106.691  0.00  0.00     0.103 C 
ATOM    120  O5  IDS d 504      25.162  28.089 108.668  0.00  0.00    -0.340 OA
ATOM    121  O4  IDS d 504      22.629  28.166 107.409  0.00  0.00    -0.348 OA
ATOM    122  C2  IDS d 504      25.010  30.044 107.221  0.00  0.00     0.134 C 
ATOM    123  O1S IDS d 504      23.015  32.544 106.731  0.00  0.00    -0.572 OA
ATOM    124  O2S IDS d 504      22.924  32.542 109.087  0.00  0.00    -0.572 OA
ATOM    125  C3  IDS d 504      24.408  29.109 106.103  0.00  0.00     0.094 C 
ATOM    126  H   IDS d 504      25.066  28.134 104.522  0.00  0.00     0.210 HD
ATOM    127  H   IDS d 504      25.970  29.866 109.118  0.00  0.00     0.133 H 
ATOM    128  H   IDS d 504      25.689  26.997 107.018  0.00  0.00     0.104 H 
ATOM    129  H   IDS d 504      23.563  27.152 105.910  0.00  0.00     0.092 H 
ATOM    130  H   IDS d 504      25.649  30.740 106.719  0.00  0.00     0.097 H 
ATOM    131  H   IDS d 504      23.644  29.667 105.603  0.00  0.00     0.091 H 
ENDROOT
TORSDOF 40
ENDMDL
MODEL 12
REMARK VINA RESULT:     -10.6      4.394      6.235
REMARK  0 active torsions:
REMARK  status: ('A' for Active; 'I' for Inactive)
REMARK       I    between atoms: C6_1  and  C5_82 
REMARK       I    between atoms: O2_4  and  C2_65 
REMARK       I    between atoms: O2_4  and  S_6 
REMARK       I    between atoms: S2_5  and  O6_13 
REMARK       I    between atoms: C6_7  and  C5_66 
REMARK       I    between atoms: C6_7  and  O6_11 
REMARK       I    between atoms: S_8  and  O2_37 
REMARK       I    between atoms: O6_11  and  S2_34 
REMARK       I    between atoms: O6_13  and  C6_16 
REMARK       I    between atoms: C6_16  and  C5_76 
REMARK       I    between atoms: O2S_17  and  S1_21 
REMARK       I    between atoms: O4_18  and  C4_33 
REMARK       I    between atoms: C4_19  and  O4_25 
REMARK       I    between atoms: O3_20  and  C3_57 
REMARK       I    between atoms: S1_21  and  N_56 
REMARK       I    between atoms: S1_21  and  O1S_55 
REMARK       I    between atoms: S1_21  and  O3S_68 
REMARK       I    between atoms: O3_24  and  C3_80 
REMARK       I    between atoms: O4_25  and  C1_53 
REMARK       I    between atoms: S1_26  and  N_59 
REMARK       I    between atoms: S1_26  and  O1S_42 
REMARK       I    between atoms: S1_26  and  O2S_29 
REMARK       I    between atoms: S1_26  and  O3S_87 
REMARK       I    between atoms: S_30  and  O2_54 
REMARK       I    between atoms: C3_31  and  O3_61 
REMARK       I    between atoms: O4_36  and  C4_70 
REMARK       I    between atoms: O4_36  and  C1_52 
REMARK       I    between atoms: O2_37  and  C2_45 
REMARK       I    between atoms: C4_38  and  O4_71 
REMARK       I    between atoms: C1_39  and  O1_51 
REMARK       I    between atoms: C1_40  and  O4_71 
REMARK       I    between atoms: C6_46  and  C5_84 
REMARK       I    between atoms: C6_47  and  C5_64 
REMARK       I    between atoms: C1_48  and  O4_77 
REMARK       I    between atoms: O3_50  and  C3_86 
REMARK       I    between atoms: O2_54  and  C2_79 
REMARK       I    between atoms: N_56  and  C2_67 
REMARK       I    between atoms: C2_58  and  N_59 
REMARK       I    between atoms: C3_62  and  O3_81 
REMARK       I    between atoms: C4_69  and  O4_77 
ROOT
ATOM      1  C6  IDS d 506      19.883  16.452 110.225  0.00  0.00     0.206 C 
ATOM      2  O62 IDS d 506      20.178  15.438 109.616  0.00  0.00    -0.646 OA
ATOM      3  S   IDS d 506      15.011  20.123 108.760  0.00  0.00     0.252 S 
ATOM      4  O1S IDS d 506      15.041  19.513 107.466  0.00  0.00    -0.572 OA
ATOM      5  O3S IDS d 506      14.965  21.568 108.708  0.00  0.00    -0.572 OA
ATOM      6  O4  IDS d 506      17.220  16.819 108.892  0.00  0.00    -0.390 OA
ATOM      7  O3  IDS d 506      18.862  19.263 106.854  0.00  0.00    -0.390 OA
ATOM      8  C4  IDS d 506      18.361  17.473 108.389  0.00  0.00     0.097 C 
ATOM      9  O2  IDS d 506      16.414  19.765 109.417  0.00  0.00    -0.244 OA
ATOM     10  C2  IDS d 506      17.706  19.937 108.869  0.00  0.00     0.134 C 
ATOM     11  C1  IDS d 506      18.762  19.895 109.984  0.00  0.00     0.161 C 
ATOM     12  O2S IDS d 506      13.978  19.551 109.576  0.00  0.00    -0.572 OA
ATOM     13  O5  IDS d 506      18.852  18.576 110.459  0.00  0.00    -0.340 OA
ATOM     14  O61 IDS d 506      20.025  16.453 111.440  0.00  0.00    -0.646 OA
ATOM     15  C3  IDS d 506      17.894  18.823 107.802  0.00  0.00     0.094 C 
ATOM     16  C5  IDS d 506      19.371  17.694 109.520  0.00  0.00     0.152 C 
ATOM     17  H   IDS d 506      16.583  16.681 108.173  0.00  0.00     0.210 HD
ATOM     18  H   IDS d 506      18.990  18.577 106.180  0.00  0.00     0.210 HD
ATOM     19  H   IDS d 506      18.841  16.888 107.633  0.00  0.00     0.091 H 
ATOM     20  H   IDS d 506      17.823  20.891 108.398  0.00  0.00     0.097 H 
ATOM     21  H   IDS d 506      19.706  20.231 109.610  0.00  0.00     0.133 H 
ATOM     22  H   IDS d 506      16.936  18.653 107.356  0.00  0.00     0.091 H 
ATOM     23  H   IDS d 506      20.229  18.098 109.024  0.00  0.00     0.104 H 
ATOM     24  O62 IDS d 502      27.438  30.148 105.804  0.00  0.00    -0.646 OA
ATOM     25  O2  IDS d 502      25.012  32.531 110.316  0.00  0.00    -0.244 OA
ATOM     26  S   IDS d 502      23.571  32.858 110.829  0.00  0.00     0.252 S 
ATOM     27  O3  IDS d 502      26.099  34.374 107.439  0.00  0.00    -0.390 OA
ATOM     28  O2S IDS d 502      22.872  31.595 110.872  0.00  0.00    -0.572 OA
ATOM     29  C4  IDS d 502      25.636  32.013 107.462  0.00  0.00     0.103 C 
ATOM     30  C1  IDS d 502      27.287  32.802 109.708  0.00  0.00     0.158 C 
ATOM     31  O61 IDS d 502      27.774  29.307 107.670  0.00  0.00    -0.646 OA
ATOM     32  C6  IDS d 502      27.457  30.269 107.014  0.00  0.00     0.206 C 
ATOM     33  O1  IDS d 502      28.178  33.762 109.203  0.00  0.00    -0.368 OA
ATOM     34  C3  IDS d 502      25.383  33.374 108.138  0.00  0.00     0.094 C 
ATOM     35  O3S IDS d 502      23.769  33.457 112.123  0.00  0.00    -0.572 OA
ATOM     36  O5  IDS d 502      27.401  31.563 109.053  0.00  0.00    -0.340 OA
ATOM     37  C2  IDS d 502      25.875  33.365 109.589  0.00  0.00     0.134 C 
ATOM     38  O4  IDS d 502      24.782  31.045 108.016  0.00  0.00    -0.348 OA
ATOM     39  O1S IDS d 502      22.983  33.776 109.892  0.00  0.00    -0.572 OA
ATOM     40  C5  IDS d 502      27.088  31.590 107.675  0.00  0.00     0.152 C 
ATOM     41  H   IDS d 502      25.803  34.397 106.516  0.00  0.00     0.210 HD
ATOM     42  H   IDS d 502      25.444  32.101 106.413  0.00  0.00     0.092 H 
ATOM     43  H   IDS d 502      27.527  32.607 110.732  0.00  0.00     0.133 H 
ATOM     44  H   IDS d 502      27.966  33.943 108.274  0.00  0.00     0.212 HD
ATOM     45  H   IDS d 502      24.331  33.567 108.124  0.00  0.00     0.091 H 
ATOM     46  H   IDS d 502      25.884  34.369 109.957  0.00  0.00     0.097 H 
ATOM     47  H   IDS d 502      27.682  32.333 107.186  0.00  0.00     0.104 H 
ATOM     48  S2  SGN d 505      15.833  22.694 114.057  0.00  0.00     0.251 S 
ATOM     49  O6  SGN d 505      17.162  22.458 113.354  0.00  0.00    -0.254 OA
ATOM     50  O5S SGN d 505      16.195  23.252 115.336  0.00  0.00    -0.572 OA
ATOM     51  C6  SGN d 505      17.631  23.089 112.211  0.00  0.00     0.067 C 
ATOM     52  O2S SGN d 505      23.214  20.117 115.225  0.00  0.00    -0.296 OA
ATOM     53  S1  SGN d 505      23.640  21.341 114.588  0.00  0.00     0.156 S 
ATOM     54  O6S SGN d 505      15.078  23.629 113.234  0.00  0.00    -0.572 OA
ATOM     55  O4  SGN d 505      18.342  20.703 111.029  0.00  0.00    -0.348 OA
ATOM     56  O5  SGN d 505      19.735  23.188 113.165  0.00  0.00    -0.349 OA
ATOM     57  O4S SGN d 505      15.218  21.388 114.126  0.00  0.00    -0.572 OA
ATOM     58  C1  SGN d 505      21.121  23.003 113.108  0.00  0.00     0.150 C 
ATOM     59  O1S SGN d 505      23.179  22.520 115.290  0.00  0.00    -0.296 OA
ATOM     60  N   SGN d 505      22.899  21.325 113.084  0.00  0.00    -0.210 NA
ATOM     61  C3  SGN d 505      20.712  20.864 111.849  0.00  0.00     0.083 C 
ATOM     62  C2  SGN d 505      21.431  21.521 113.043  0.00  0.00     0.081 C 
ATOM     63  O3S SGN d 505      25.041  21.344 114.358  0.00  0.00    -0.296 OA
ATOM     64  C4  SGN d 505      19.198  21.160 112.056  0.00  0.00     0.095 C 
ATOM     65  C5  SGN d 505      19.052  22.647 112.076  0.00  0.00     0.091 C 
ATOM     66  O3  SGN d 505      20.956  19.464 111.889  0.00  0.00    -0.391 OA
ATOM     67  H   SGN d 505      17.577  24.152 112.321  0.00  0.00     0.080 H 
ATOM     68  H   SGN d 505      17.050  22.837 111.349  0.00  0.00     0.080 H 
ATOM     69  H   SGN d 505      22.254  20.145 115.368  0.00  0.00     0.231 HD
ATOM     70  H   SGN d 505      21.573  23.404 113.992  0.00  0.00     0.131 H 
ATOM     71  H   SGN d 505      22.219  22.465 115.419  0.00  0.00     0.231 HD
ATOM     72  H   SGN d 505      23.099  20.421 112.655  0.00  0.00     0.140 HD
ATOM     73  H   SGN d 505      21.049  21.237 110.904  0.00  0.00     0.089 H 
ATOM     74  H   SGN d 505      21.042  21.010 113.899  0.00  0.00     0.076 H 
ATOM     75  H   SGN d 505      25.293  20.535 113.887  0.00  0.00     0.231 HD
ATOM     76  H   SGN d 505      18.913  20.650 112.952  0.00  0.00     0.091 H 
ATOM     77  H   SGN d 505      19.448  22.987 111.141  0.00  0.00     0.090 H 
ATOM     78  H   SGN d 505      20.657  19.108 112.740  0.00  0.00     0.210 HD
ATOM     79  C6  SGN d 503      25.836  27.078 108.045  0.00  0.00     0.067 C 
ATOM     80  O6  SGN d 503      25.288  26.293 107.008  0.00  0.00    -0.254 OA
ATOM     81  C4  SGN d 503      23.479  27.865 108.654  0.00  0.00     0.095 C 
ATOM     82  O5  SGN d 503      24.937  28.941 107.052  0.00  0.00    -0.349 OA
ATOM     83  O4  SGN d 503      23.502  27.276 109.913  0.00  0.00    -0.348 OA
ATOM     84  S1  SGN d 503      21.393  31.645 106.015  0.00  0.00     0.156 S 
ATOM     85  O4S SGN d 503      27.242  24.918 106.677  0.00  0.00    -0.572 OA
ATOM     86  O2S SGN d 503      20.653  30.551 105.388  0.00  0.00    -0.296 OA
ATOM     87  C3  SGN d 503      22.601  29.113 108.719  0.00  0.00     0.083 C 
ATOM     88  S2  SGN d 503      26.097  25.431 106.004  0.00  0.00     0.251 S 
ATOM     89  O5S SGN d 503      25.212  24.365 105.545  0.00  0.00    -0.572 OA
ATOM     90  C1  SGN d 503      24.226  30.153 107.090  0.00  0.00     0.150 C 
ATOM     91  O1S SGN d 503      22.538  32.052 105.221  0.00  0.00    -0.296 OA
ATOM     92  O6S SGN d 503      26.490  26.352 105.011  0.00  0.00    -0.572 OA
ATOM     93  C2  SGN d 503      22.752  29.872 107.414  0.00  0.00     0.081 C 
ATOM     94  N   SGN d 503      21.990  31.109 107.431  0.00  0.00    -0.210 NA
ATOM     95  O3  SGN d 503      21.258  28.698 108.883  0.00  0.00    -0.391 OA
ATOM     96  C5  SGN d 503      24.916  28.249 108.262  0.00  0.00     0.091 C 
ATOM     97  O3S SGN d 503      20.565  32.763 106.406  0.00  0.00    -0.296 OA
ATOM     98  H   SGN d 503      25.908  26.499 108.942  0.00  0.00     0.080 H 
ATOM     99  H   SGN d 503      26.818  27.414 107.783  0.00  0.00     0.080 H 
ATOM    100  H   SGN d 503      23.083  27.190 107.924  0.00  0.00     0.091 H 
ATOM    101  H   SGN d 503      21.268  29.838 105.152  0.00  0.00     0.231 HD
ATOM    102  H   SGN d 503      22.885  29.744 109.535  0.00  0.00     0.089 H 
ATOM    103  H   SGN d 503      24.291  30.617 106.128  0.00  0.00     0.131 H 
ATOM    104  H   SGN d 503      23.061  31.271 104.984  0.00  0.00     0.231 HD
ATOM    105  H   SGN d 503      22.357  29.247 106.641  0.00  0.00     0.076 H 
ATOM    106  H   SGN d 503      21.202  30.973 108.062  0.00  0.00     0.140 HD
ATOM    107  H   SGN d 503      21.003  28.126 108.142  0.00  0.00     0.210 HD
ATOM    108  H   SGN d 503      25.254  28.832 109.093  0.00  0.00     0.090 H 
ATOM    109  H   SGN d 503      21.119  33.449 106.812  0.00  0.00     0.231 HD
ATOM    110  O61 IDS d 504      19.337  24.838 109.871  0.00  0.00    -0.646 OA
ATOM    111  O62 IDS d 504      18.888  26.311 111.306  0.00  0.00    -0.646 OA
ATOM    112  O3S IDS d 504      26.582  24.255 110.300  0.00  0.00    -0.572 OA
ATOM    113  S   IDS d 504      25.735  23.273 110.867  0.00  0.00     0.252 S 
ATOM    114  C6  IDS d 504      19.732  25.653 110.695  0.00  0.00     0.206 C 
ATOM    115  O3  IDS d 504      23.230  26.834 112.846  0.00  0.00    -0.390 OA
ATOM    116  C1  IDS d 504      23.361  25.885 109.893  0.00  0.00     0.161 C 
ATOM    117  O2  IDS d 504      24.348  23.941 110.861  0.00  0.00    -0.244 OA
ATOM    118  C5  IDS d 504      21.234  25.831 110.974  0.00  0.00     0.152 C 
ATOM    119  C4  IDS d 504      21.756  25.095 112.205  0.00  0.00     0.103 C 
ATOM    120  O5  IDS d 504      21.991  25.474 109.840  0.00  0.00    -0.340 OA
ATOM    121  O4  IDS d 504      21.662  23.691 112.013  0.00  0.00    -0.348 OA
ATOM    122  C2  IDS d 504      24.064  25.317 111.109  0.00  0.00     0.134 C 
ATOM    123  O1S IDS d 504      26.052  23.020 112.225  0.00  0.00    -0.572 OA
ATOM    124  O2S IDS d 504      25.634  22.057 110.113  0.00  0.00    -0.572 OA
ATOM    125  C3  IDS d 504      23.212  25.475 112.427  0.00  0.00     0.094 C 
ATOM    126  H   IDS d 504      22.705  26.929 113.656  0.00  0.00     0.210 HD
ATOM    127  H   IDS d 504      23.810  25.504 108.999  0.00  0.00     0.133 H 
ATOM    128  H   IDS d 504      21.352  26.872 111.192  0.00  0.00     0.104 H 
ATOM    129  H   IDS d 504      21.170  25.369 113.058  0.00  0.00     0.092 H 
ATOM    130  H   IDS d 504      24.969  25.866 111.268  0.00  0.00     0.097 H 
ATOM    131  H   IDS d 504      23.644  24.828 113.161  0.00  0.00     0.091 H 
ENDROOT
TORSDOF 40
ENDMDL
MODEL 13
REMARK VINA RESULT:     -10.5      3.822      8.619
REMARK  0 active torsions:
REMARK  status: ('A' for Active; 'I' for Inactive)
REMARK       I    between atoms: C6_1  and  C5_82 
REMARK       I    between atoms: O2_4  and  C2_65 
REMARK       I    between atoms: O2_4  and  S_6 
REMARK       I    between atoms: S2_5  and  O6_13 
REMARK       I    between atoms: C6_7  and  C5_66 
REMARK       I    between atoms: C6_7  and  O6_11 
REMARK       I    between atoms: S_8  and  O2_37 
REMARK       I    between atoms: O6_11  and  S2_34 
REMARK       I    between atoms: O6_13  and  C6_16 
REMARK       I    between atoms: C6_16  and  C5_76 
REMARK       I    between atoms: O2S_17  and  S1_21 
REMARK       I    between atoms: O4_18  and  C4_33 
REMARK       I    between atoms: C4_19  and  O4_25 
REMARK       I    between atoms: O3_20  and  C3_57 
REMARK       I    between atoms: S1_21  and  N_56 
REMARK       I    between atoms: S1_21  and  O1S_55 
REMARK       I    between atoms: S1_21  and  O3S_68 
REMARK       I    between atoms: O3_24  and  C3_80 
REMARK       I    between atoms: O4_25  and  C1_53 
REMARK       I    between atoms: S1_26  and  N_59 
REMARK       I    between atoms: S1_26  and  O1S_42 
REMARK       I    between atoms: S1_26  and  O2S_29 
REMARK       I    between atoms: S1_26  and  O3S_87 
REMARK       I    between atoms: S_30  and  O2_54 
REMARK       I    between atoms: C3_31  and  O3_61 
REMARK       I    between atoms: O4_36  and  C4_70 
REMARK       I    between atoms: O4_36  and  C1_52 
REMARK       I    between atoms: O2_37  and  C2_45 
REMARK       I    between atoms: C4_38  and  O4_71 
REMARK       I    between atoms: C1_39  and  O1_51 
REMARK       I    between atoms: C1_40  and  O4_71 
REMARK       I    between atoms: C6_46  and  C5_84 
REMARK       I    between atoms: C6_47  and  C5_64 
REMARK       I    between atoms: C1_48  and  O4_77 
REMARK       I    between atoms: O3_50  and  C3_86 
REMARK       I    between atoms: O2_54  and  C2_79 
REMARK       I    between atoms: N_56  and  C2_67 
REMARK       I    between atoms: C2_58  and  N_59 
REMARK       I    between atoms: C3_62  and  O3_81 
REMARK       I    between atoms: C4_69  and  O4_77 
ROOT
ATOM      1  C6  IDS d 506      16.636  30.587 111.987  0.00  0.00     0.206 C 
ATOM      2  O62 IDS d 506      16.151  31.464 112.680  0.00  0.00    -0.646 OA
ATOM      3  S   IDS d 506      18.489  25.012 114.186  0.00  0.00     0.252 S 
ATOM      4  O1S IDS d 506      18.524  25.621 115.480  0.00  0.00    -0.572 OA
ATOM      5  O3S IDS d 506      19.697  24.282 113.867  0.00  0.00    -0.572 OA
ATOM      6  O4  IDS d 506      16.502  28.454 114.093  0.00  0.00    -0.390 OA
ATOM      7  O3  IDS d 506      19.984  29.108 114.617  0.00  0.00    -0.390 OA
ATOM      8  C4  IDS d 506      17.677  29.213 113.925  0.00  0.00     0.097 C 
ATOM      9  O2  IDS d 506      18.442  26.224 113.160  0.00  0.00    -0.244 OA
ATOM     10  C2  IDS d 506      19.289  27.356 113.101  0.00  0.00     0.134 C 
ATOM     11  C1  IDS d 506      19.188  28.020 111.720  0.00  0.00     0.161 C 
ATOM     12  O2S IDS d 506      17.295  24.234 114.013  0.00  0.00    -0.572 OA
ATOM     13  O5  IDS d 506      17.927  28.631 111.614  0.00  0.00    -0.340 OA
ATOM     14  O61 IDS d 506      16.190  30.437 110.858  0.00  0.00    -0.646 OA
ATOM     15  C3  IDS d 506      18.868  28.293 114.267  0.00  0.00     0.094 C 
ATOM     16  C5  IDS d 506      17.770  29.708 112.478  0.00  0.00     0.152 C 
ATOM     17  H   IDS d 506      16.446  28.143 115.011  0.00  0.00     0.210 HD
ATOM     18  H   IDS d 506      19.737  29.700 115.344  0.00  0.00     0.210 HD
ATOM     19  H   IDS d 506      17.677  30.071 114.565  0.00  0.00     0.091 H 
ATOM     20  H   IDS d 506      20.320  27.095 113.220  0.00  0.00     0.097 H 
ATOM     21  H   IDS d 506      19.971  28.738 111.599  0.00  0.00     0.133 H 
ATOM     22  H   IDS d 506      18.555  27.665 115.075  0.00  0.00     0.091 H 
ATOM     23  H   IDS d 506      18.629  30.347 112.480  0.00  0.00     0.104 H 
ATOM     24  O62 IDS d 502      32.661  31.302 109.363  0.00  0.00    -0.646 OA
ATOM     25  O2  IDS d 502      31.894  27.090 105.677  0.00  0.00    -0.244 OA
ATOM     26  S   IDS d 502      31.421  25.599 105.691  0.00  0.00     0.252 S 
ATOM     27  O3  IDS d 502      35.013  27.753 107.314  0.00  0.00    -0.390 OA
ATOM     28  O2S IDS d 502      30.092  25.612 106.256  0.00  0.00    -0.572 OA
ATOM     29  C4  IDS d 502      32.865  28.504 108.097  0.00  0.00     0.103 C 
ATOM     30  C1  IDS d 502      33.213  29.017 105.267  0.00  0.00     0.158 C 
ATOM     31  O61 IDS d 502      31.319  31.579 107.807  0.00  0.00    -0.646 OA
ATOM     32  C6  IDS d 502      32.273  30.990 108.254  0.00  0.00     0.206 C 
ATOM     33  O1  IDS d 502      34.550  29.415 105.116  0.00  0.00    -0.368 OA
ATOM     34  C3  IDS d 502      33.628  27.479 107.236  0.00  0.00     0.094 C 
ATOM     35  O3S IDS d 502      31.462  25.187 104.312  0.00  0.00    -0.572 OA
ATOM     36  O5  IDS d 502      32.492  29.860 106.130  0.00  0.00    -0.340 OA
ATOM     37  C2  IDS d 502      33.207  27.576 105.767  0.00  0.00     0.134 C 
ATOM     38  O4  IDS d 502      31.515  28.129 108.192  0.00  0.00    -0.348 OA
ATOM     39  O1S IDS d 502      32.352  24.865 106.502  0.00  0.00    -0.572 OA
ATOM     40  C5  IDS d 502      32.964  29.890 107.462  0.00  0.00     0.152 C 
ATOM     41  H   IDS d 502      35.302  27.698 108.238  0.00  0.00     0.210 HD
ATOM     42  H   IDS d 502      33.298  28.532 109.075  0.00  0.00     0.092 H 
ATOM     43  H   IDS d 502      32.719  29.086 104.321  0.00  0.00     0.133 H 
ATOM     44  H   IDS d 502      35.003  29.355 105.972  0.00  0.00     0.212 HD
ATOM     45  H   IDS d 502      33.405  26.498 107.603  0.00  0.00     0.091 H 
ATOM     46  H   IDS d 502      33.895  27.014 105.172  0.00  0.00     0.097 H 
ATOM     47  H   IDS d 502      34.004  30.139 107.469  0.00  0.00     0.104 H 
ATOM     48  S2  SGN d 505      18.760  23.279 108.505  0.00  0.00     0.251 S 
ATOM     49  O6  SGN d 505      19.346  24.673 108.677  0.00  0.00    -0.254 OA
ATOM     50  O5S SGN d 505      18.834  23.028 107.087  0.00  0.00    -0.572 OA
ATOM     51  C6  SGN d 505      20.514  25.017 109.341  0.00  0.00     0.067 C 
ATOM     52  O2S SGN d 505      18.870  30.509 105.314  0.00  0.00    -0.296 OA
ATOM     53  S1  SGN d 505      20.309  30.417 105.390  0.00  0.00     0.156 S 
ATOM     54  O6S SGN d 505      19.597  22.370 109.276  0.00  0.00    -0.572 OA
ATOM     55  O4  SGN d 505      19.276  27.040 110.743  0.00  0.00    -0.348 OA
ATOM     56  O5  SGN d 505      20.985  26.535 107.662  0.00  0.00    -0.349 OA
ATOM     57  O4S SGN d 505      17.416  23.378 109.027  0.00  0.00    -0.572 OA
ATOM     58  C1  SGN d 505      21.368  27.809 107.227  0.00  0.00     0.150 C 
ATOM     59  O1S SGN d 505      20.832  29.298 104.634  0.00  0.00    -0.296 OA
ATOM     60  N   SGN d 505      20.639  30.133 107.008  0.00  0.00    -0.210 NA
ATOM     61  C3  SGN d 505      19.952  28.782 109.064  0.00  0.00     0.083 C 
ATOM     62  C2  SGN d 505      20.275  28.806 107.558  0.00  0.00     0.081 C 
ATOM     63  O3S SGN d 505      20.925  31.650 105.052  0.00  0.00    -0.296 OA
ATOM     64  C4  SGN d 505      19.552  27.313 109.386  0.00  0.00     0.095 C 
ATOM     65  C5  SGN d 505      20.729  26.463 109.031  0.00  0.00     0.091 C 
ATOM     66  O3  SGN d 505      18.860  29.660 109.305  0.00  0.00    -0.391 OA
ATOM     67  H   SGN d 505      21.334  24.430 108.983  0.00  0.00     0.080 H 
ATOM     68  H   SGN d 505      20.443  24.840 110.393  0.00  0.00     0.080 H 
ATOM     69  H   SGN d 505      18.479  29.653 105.549  0.00  0.00     0.231 HD
ATOM     70  H   SGN d 505      21.506  27.800 106.165  0.00  0.00     0.131 H 
ATOM     71  H   SGN d 505      20.377  28.484 104.904  0.00  0.00     0.231 HD
ATOM     72  H   SGN d 505      20.137  30.836 107.550  0.00  0.00     0.140 HD
ATOM     73  H   SGN d 505      20.775  29.097 109.672  0.00  0.00     0.089 H 
ATOM     74  H   SGN d 505      19.354  28.535 107.086  0.00  0.00     0.076 H 
ATOM     75  H   SGN d 505      20.539  32.362 105.587  0.00  0.00     0.231 HD
ATOM     76  H   SGN d 505      18.654  27.121 108.837  0.00  0.00     0.091 H 
ATOM     77  H   SGN d 505      21.542  26.841 109.615  0.00  0.00     0.090 H 
ATOM     78  H   SGN d 505      18.103  29.391 108.762  0.00  0.00     0.210 HD
ATOM     79  C6  SGN d 503      28.590  30.941 108.811  0.00  0.00     0.067 C 
ATOM     80  O6  SGN d 503      28.159  31.089 110.146  0.00  0.00    -0.254 OA
ATOM     81  C4  SGN d 503      28.122  28.431 108.971  0.00  0.00     0.095 C 
ATOM     82  O5  SGN d 503      30.216  29.497 109.542  0.00  0.00    -0.349 OA
ATOM     83  O4  SGN d 503      27.122  28.457 108.005  0.00  0.00    -0.348 OA
ATOM     84  S1  SGN d 503      31.581  25.419 111.107  0.00  0.00     0.156 S 
ATOM     85  O4S SGN d 503      27.874  33.483 110.051  0.00  0.00    -0.572 OA
ATOM     86  O2S SGN d 503      30.652  25.464 112.236  0.00  0.00    -0.296 OA
ATOM     87  C3  SGN d 503      28.808  27.068 108.921  0.00  0.00     0.083 C 
ATOM     88  S2  SGN d 503      28.152  32.416 110.951  0.00  0.00     0.251 S 
ATOM     89  O5S SGN d 503      27.125  32.288 111.980  0.00  0.00    -0.572 OA
ATOM     90  C1  SGN d 503      30.947  28.299 109.461  0.00  0.00     0.150 C 
ATOM     91  O1S SGN d 503      32.670  26.364 111.260  0.00  0.00    -0.296 OA
ATOM     92  O6S SGN d 503      29.474  32.521 111.435  0.00  0.00    -0.572 OA
ATOM     93  C2  SGN d 503      30.033  27.116 109.816  0.00  0.00     0.081 C 
ATOM     94  N   SGN d 503      30.774  25.869 109.767  0.00  0.00    -0.210 NA
ATOM     95  O3  SGN d 503      27.897  26.098 109.403  0.00  0.00    -0.391 OA
ATOM     96  C5  SGN d 503      29.135  29.546 108.663  0.00  0.00     0.091 C 
ATOM     97  O3S SGN d 503      32.044  24.088 110.784  0.00  0.00    -0.296 OA
ATOM     98  H   SGN d 503      27.766  31.083 108.143  0.00  0.00     0.080 H 
ATOM     99  H   SGN d 503      29.341  31.666 108.575  0.00  0.00     0.080 H 
ATOM    100  H   SGN d 503      27.712  28.586 109.948  0.00  0.00     0.091 H 
ATOM    101  H   SGN d 503      30.384  26.382 112.396  0.00  0.00     0.231 HD
ATOM    102  H   SGN d 503      29.105  26.820 107.924  0.00  0.00     0.089 H 
ATOM    103  H   SGN d 503      31.753  28.342 110.164  0.00  0.00     0.131 H 
ATOM    104  H   SGN d 503      32.311  27.239 111.476  0.00  0.00     0.231 HD
ATOM    105  H   SGN d 503      29.683  27.259 110.817  0.00  0.00     0.076 H 
ATOM    106  H   SGN d 503      30.109  25.127 109.548  0.00  0.00     0.140 HD
ATOM    107  H   SGN d 503      27.631  26.326 110.308  0.00  0.00     0.210 HD
ATOM    108  H   SGN d 503      29.405  29.364 107.644  0.00  0.00     0.090 H 
ATOM    109  H   SGN d 503      32.654  24.133 110.030  0.00  0.00     0.231 HD
ATOM    110  O61 IDS d 504      23.564  26.130 110.291  0.00  0.00    -0.646 OA
ATOM    111  O62 IDS d 504      24.036  24.715 108.804  0.00  0.00    -0.646 OA
ATOM    112  O3S IDS d 504      25.588  32.441 107.277  0.00  0.00    -0.572 OA
ATOM    113  S   IDS d 504      24.224  32.077 107.362  0.00  0.00     0.252 S 
ATOM    114  C6  IDS d 504      24.051  25.884 109.194  0.00  0.00     0.206 C 
ATOM    115  O3  IDS d 504      25.448  27.789 105.633  0.00  0.00    -0.390 OA
ATOM    116  C1  IDS d 504      25.919  29.018 108.445  0.00  0.00     0.161 C 
ATOM    117  O2  IDS d 504      24.269  30.581 107.723  0.00  0.00    -0.244 OA
ATOM    118  C5  IDS d 504      24.642  27.005 108.323  0.00  0.00     0.152 C 
ATOM    119  C4  IDS d 504      23.717  27.531 107.227  0.00  0.00     0.103 C 
ATOM    120  O5  IDS d 504      25.090  28.071 109.128  0.00  0.00    -0.340 OA
ATOM    121  O4  IDS d 504      22.591  28.176 107.806  0.00  0.00    -0.348 OA
ATOM    122  C2  IDS d 504      25.207  29.618 107.249  0.00  0.00     0.134 C 
ATOM    123  O1S IDS d 504      23.573  32.165 106.106  0.00  0.00    -0.572 OA
ATOM    124  O2S IDS d 504      23.483  32.749 108.389  0.00  0.00    -0.572 OA
ATOM    125  C3  IDS d 504      24.482  28.527 106.370  0.00  0.00     0.094 C 
ATOM    126  H   IDS d 504      25.000  27.118 105.094  0.00  0.00     0.210 HD
ATOM    127  H   IDS d 504      26.135  29.781 109.163  0.00  0.00     0.133 H 
ATOM    128  H   IDS d 504      25.463  26.551 107.808  0.00  0.00     0.104 H 
ATOM    129  H   IDS d 504      23.377  26.712 106.627  0.00  0.00     0.092 H 
ATOM    130  H   IDS d 504      25.935  30.080 106.616  0.00  0.00     0.097 H 
ATOM    131  H   IDS d 504      23.802  29.044 105.726  0.00  0.00     0.091 H 
ENDROOT
TORSDOF 40
ENDMDL
MODEL 14
REMARK VINA RESULT:     -10.5      4.739      9.592
REMARK  0 active torsions:
REMARK  status: ('A' for Active; 'I' for Inactive)
REMARK       I    between atoms: C6_1  and  C5_82 
REMARK       I    between atoms: O2_4  and  C2_65 
REMARK       I    between atoms: O2_4  and  S_6 
REMARK       I    between atoms: S2_5  and  O6_13 
REMARK       I    between atoms: C6_7  and  C5_66 
REMARK       I    between atoms: C6_7  and  O6_11 
REMARK       I    between atoms: S_8  and  O2_37 
REMARK       I    between atoms: O6_11  and  S2_34 
REMARK       I    between atoms: O6_13  and  C6_16 
REMARK       I    between atoms: C6_16  and  C5_76 
REMARK       I    between atoms: O2S_17  and  S1_21 
REMARK       I    between atoms: O4_18  and  C4_33 
REMARK       I    between atoms: C4_19  and  O4_25 
REMARK       I    between atoms: O3_20  and  C3_57 
REMARK       I    between atoms: S1_21  and  N_56 
REMARK       I    between atoms: S1_21  and  O1S_55 
REMARK       I    between atoms: S1_21  and  O3S_68 
REMARK       I    between atoms: O3_24  and  C3_80 
REMARK       I    between atoms: O4_25  and  C1_53 
REMARK       I    between atoms: S1_26  and  N_59 
REMARK       I    between atoms: S1_26  and  O1S_42 
REMARK       I    between atoms: S1_26  and  O2S_29 
REMARK       I    between atoms: S1_26  and  O3S_87 
REMARK       I    between atoms: S_30  and  O2_54 
REMARK       I    between atoms: C3_31  and  O3_61 
REMARK       I    between atoms: O4_36  and  C4_70 
REMARK       I    between atoms: O4_36  and  C1_52 
REMARK       I    between atoms: O2_37  and  C2_45 
REMARK       I    between atoms: C4_38  and  O4_71 
REMARK       I    between atoms: C1_39  and  O1_51 
REMARK       I    between atoms: C1_40  and  O4_71 
REMARK       I    between atoms: C6_46  and  C5_84 
REMARK       I    between atoms: C6_47  and  C5_64 
REMARK       I    between atoms: C1_48  and  O4_77 
REMARK       I    between atoms: O3_50  and  C3_86 
REMARK       I    between atoms: O2_54  and  C2_79 
REMARK       I    between atoms: N_56  and  C2_67 
REMARK       I    between atoms: C2_58  and  N_59 
REMARK       I    between atoms: C3_62  and  O3_81 
REMARK       I    between atoms: C4_69  and  O4_77 
ROOT
ATOM      1  C6  IDS d 506      15.942  32.696 111.333  0.00  0.00     0.206 C 
ATOM      2  O62 IDS d 506      15.631  33.827 111.665  0.00  0.00    -0.646 OA
ATOM      3  S   IDS d 506      17.715  28.230 115.366  0.00  0.00     0.252 S 
ATOM      4  O1S IDS d 506      17.989  29.285 116.294  0.00  0.00    -0.572 OA
ATOM      5  O3S IDS d 506      18.807  27.289 115.235  0.00  0.00    -0.572 OA
ATOM      6  O4  IDS d 506      15.982  31.584 114.120  0.00  0.00    -0.390 OA
ATOM      7  O3  IDS d 506      19.540  31.951 113.944  0.00  0.00    -0.390 OA
ATOM      8  C4  IDS d 506      17.167  32.065 113.532  0.00  0.00     0.097 C 
ATOM      9  O2  IDS d 506      17.597  28.944 113.952  0.00  0.00    -0.244 OA
ATOM     10  C2  IDS d 506      18.502  29.849 113.349  0.00  0.00     0.134 C 
ATOM     11  C1  IDS d 506      18.239  29.931 111.839  0.00  0.00     0.161 C 
ATOM     12  O2S IDS d 506      16.457  27.602 115.656  0.00  0.00    -0.572 OA
ATOM     13  O5  IDS d 506      17.022  30.605 111.637  0.00  0.00    -0.340 OA
ATOM     14  O61 IDS d 506      15.321  32.175 110.417  0.00  0.00    -0.646 OA
ATOM     15  C3  IDS d 506      18.330  31.210 114.079  0.00  0.00     0.094 C 
ATOM     16  C5  IDS d 506      17.075  31.943 112.007  0.00  0.00     0.152 C 
ATOM     17  H   IDS d 506      16.045  31.663 115.085  0.00  0.00     0.210 HD
ATOM     18  H   IDS d 506      19.448  32.805 114.395  0.00  0.00     0.210 HD
ATOM     19  H   IDS d 506      17.325  33.097 113.767  0.00  0.00     0.091 H 
ATOM     20  H   IDS d 506      19.519  29.529 113.447  0.00  0.00     0.097 H 
ATOM     21  H   IDS d 506      19.043  30.442 111.352  0.00  0.00     0.133 H 
ATOM     22  H   IDS d 506      18.100  30.990 115.100  0.00  0.00     0.091 H 
ATOM     23  H   IDS d 506      17.966  32.420 111.656  0.00  0.00     0.104 H 
ATOM     24  O62 IDS d 502      31.393  30.334 106.873  0.00  0.00    -0.646 OA
ATOM     25  O2  IDS d 502      29.783  25.151 105.302  0.00  0.00    -0.244 OA
ATOM     26  S   IDS d 502      29.215  23.855 105.968  0.00  0.00     0.252 S 
ATOM     27  O3  IDS d 502      33.153  26.005 106.175  0.00  0.00    -0.390 OA
ATOM     28  O2S IDS d 502      27.991  24.251 106.624  0.00  0.00    -0.572 OA
ATOM     29  C4  IDS d 502      31.207  27.262 106.824  0.00  0.00     0.103 C 
ATOM     30  C1  IDS d 502      31.156  26.587 104.008  0.00  0.00     0.158 C 
ATOM     31  O61 IDS d 502      29.853  30.150 105.497  0.00  0.00    -0.646 OA
ATOM     32  C6  IDS d 502      30.820  29.667 106.034  0.00  0.00     0.206 C 
ATOM     33  O1  IDS d 502      32.478  26.726 103.561  0.00  0.00    -0.368 OA
ATOM     34  C3  IDS d 502      31.757  25.897 106.369  0.00  0.00     0.094 C 
ATOM     35  O3S IDS d 502      29.018  22.937 104.875  0.00  0.00    -0.572 OA
ATOM     36  O5  IDS d 502      30.634  27.782 104.533  0.00  0.00    -0.340 OA
ATOM     37  C2  IDS d 502      31.125  25.466 105.042  0.00  0.00     0.134 C 
ATOM     38  O4  IDS d 502      29.865  27.124 107.212  0.00  0.00    -0.348 OA
ATOM     39  O1S IDS d 502      30.205  23.384 106.896  0.00  0.00    -0.572 OA
ATOM     40  C5  IDS d 502      31.305  28.268 105.679  0.00  0.00     0.152 C 
ATOM     41  H   IDS d 502      33.575  26.277 107.005  0.00  0.00     0.210 HD
ATOM     42  H   IDS d 502      31.785  27.614 107.654  0.00  0.00     0.092 H 
ATOM     43  H   IDS d 502      30.530  26.344 103.175  0.00  0.00     0.133 H 
ATOM     44  H   IDS d 502      33.052  26.947 104.312  0.00  0.00     0.212 HD
ATOM     45  H   IDS d 502      31.524  25.172 107.122  0.00  0.00     0.091 H 
ATOM     46  H   IDS d 502      31.674  24.637 104.650  0.00  0.00     0.097 H 
ATOM     47  H   IDS d 502      32.349  28.369 105.469  0.00  0.00     0.104 H 
ATOM     48  S2  SGN d 505      16.998  24.407 110.871  0.00  0.00     0.251 S 
ATOM     49  O6  SGN d 505      17.699  25.673 110.402  0.00  0.00    -0.254 OA
ATOM     50  O5S SGN d 505      16.838  23.617 109.675  0.00  0.00    -0.572 OA
ATOM     51  C6  SGN d 505      18.975  26.099 110.735  0.00  0.00     0.067 C 
ATOM     52  O2S SGN d 505      17.126  29.753 105.051  0.00  0.00    -0.296 OA
ATOM     53  S1  SGN d 505      18.550  29.519 104.996  0.00  0.00     0.156 S 
ATOM     54  O6S SGN d 505      17.877  23.772 111.844  0.00  0.00    -0.572 OA
ATOM     55  O4  SGN d 505      18.109  28.646 111.335  0.00  0.00    -0.348 OA
ATOM     56  O5  SGN d 505      19.290  26.775 108.546  0.00  0.00    -0.349 OA
ATOM     57  O4S SGN d 505      15.759  24.867 111.455  0.00  0.00    -0.572 OA
ATOM     58  C1  SGN d 505      19.691  27.721 107.596  0.00  0.00     0.150 C 
ATOM     59  O1S SGN d 505      18.872  28.139 104.701  0.00  0.00    -0.296 OA
ATOM     60  N   SGN d 505      19.101  29.848 106.545  0.00  0.00    -0.210 NA
ATOM     61  C3  SGN d 505      18.642  29.500 109.033  0.00  0.00     0.083 C 
ATOM     62  C2  SGN d 505      18.733  28.895 107.618  0.00  0.00     0.081 C 
ATOM     63  O3S SGN d 505      19.192  30.438 104.125  0.00  0.00    -0.296 OA
ATOM     64  C4  SGN d 505      18.194  28.333 109.961  0.00  0.00     0.095 C 
ATOM     65  C5  SGN d 505      19.241  27.272 109.848  0.00  0.00     0.091 C 
ATOM     66  O3  SGN d 505      17.663  30.531 109.021  0.00  0.00    -0.391 OA
ATOM     67  H   SGN d 505      19.689  25.323 110.555  0.00  0.00     0.080 H 
ATOM     68  H   SGN d 505      19.053  26.356 111.771  0.00  0.00     0.080 H 
ATOM     69  H   SGN d 505      16.716  29.112 105.653  0.00  0.00     0.231 HD
ATOM     70  H   SGN d 505      19.666  27.283 106.620  0.00  0.00     0.131 H 
ATOM     71  H   SGN d 505      18.408  27.558 105.324  0.00  0.00     0.231 HD
ATOM     72  H   SGN d 505      18.737  30.763 106.810  0.00  0.00     0.140 HD
ATOM     73  H   SGN d 505      19.568  29.920 109.367  0.00  0.00     0.089 H 
ATOM     74  H   SGN d 505      17.734  28.579 107.401  0.00  0.00     0.076 H 
ATOM     75  H   SGN d 505      18.942  31.343 104.368  0.00  0.00     0.231 HD
ATOM     76  H   SGN d 505      17.212  28.056 109.640  0.00  0.00     0.091 H 
ATOM     77  H   SGN d 505      20.158  27.743 110.137  0.00  0.00     0.090 H 
ATOM     78  H   SGN d 505      16.815  30.168 108.720  0.00  0.00     0.210 HD
ATOM     79  C6  SGN d 503      27.270  30.296 106.971  0.00  0.00     0.067 C 
ATOM     80  O6  SGN d 503      27.058  31.005 108.172  0.00  0.00    -0.254 OA
ATOM     81  C4  SGN d 503      26.658  28.125 108.178  0.00  0.00     0.095 C 
ATOM     82  O5  SGN d 503      28.884  29.060 108.033  0.00  0.00    -0.349 OA
ATOM     83  O4  SGN d 503      25.528  27.898 107.401  0.00  0.00    -0.348 OA
ATOM     84  S1  SGN d 503      30.183  25.775 110.944  0.00  0.00     0.156 S 
ATOM     85  O4S SGN d 503      26.931  33.189 107.155  0.00  0.00    -0.572 OA
ATOM     86  O2S SGN d 503      29.442  26.370 112.055  0.00  0.00    -0.296 OA
ATOM     87  C3  SGN d 503      27.232  26.776 108.604  0.00  0.00     0.083 C 
ATOM     88  S2  SGN d 503      27.267  32.529 108.371  0.00  0.00     0.251 S 
ATOM     89  O5S SGN d 503      26.401  32.940 109.472  0.00  0.00    -0.572 OA
ATOM     90  C1  SGN d 503      29.508  27.844 108.361  0.00  0.00     0.150 C 
ATOM     91  O1S SGN d 503      31.346  26.562 110.581  0.00  0.00    -0.296 OA
ATOM     92  O6S SGN d 503      28.651  32.649 108.621  0.00  0.00    -0.572 OA
ATOM     93  C2  SGN d 503      28.579  27.016 109.261  0.00  0.00     0.081 C 
ATOM     94  N   SGN d 503      29.216  25.765 109.635  0.00  0.00    -0.210 NA
ATOM     95  O3  SGN d 503      26.340  26.192 109.533  0.00  0.00    -0.391 OA
ATOM     96  C5  SGN d 503      27.689  28.898 107.336  0.00  0.00     0.091 C 
ATOM     97  O3S SGN d 503      30.498  24.377 111.133  0.00  0.00    -0.296 OA
ATOM     98  H   SGN d 503      26.367  30.270 106.398  0.00  0.00     0.080 H 
ATOM     99  H   SGN d 503      28.026  30.773 106.381  0.00  0.00     0.080 H 
ATOM    100  H   SGN d 503      26.414  28.698 109.048  0.00  0.00     0.091 H 
ATOM    101  H   SGN d 503      29.266  27.305 111.862  0.00  0.00     0.231 HD
ATOM    102  H   SGN d 503      27.356  26.125 107.764  0.00  0.00     0.089 H 
ATOM    103  H   SGN d 503      30.413  28.056 108.892  0.00  0.00     0.131 H 
ATOM    104  H   SGN d 503      31.086  27.489 110.466  0.00  0.00     0.231 HD
ATOM    105  H   SGN d 503      28.397  27.578 110.152  0.00  0.00     0.076 H 
ATOM    106  H   SGN d 503      28.475  25.086 109.808  0.00  0.00     0.140 HD
ATOM    107  H   SGN d 503      26.231  26.784 110.294  0.00  0.00     0.210 HD
ATOM    108  H   SGN d 503      27.787  28.302 106.453  0.00  0.00     0.090 H 
ATOM    109  H   SGN d 503      30.988  24.049 110.362  0.00  0.00     0.231 HD
ATOM    110  O61 IDS d 504      22.205  27.105 110.811  0.00  0.00    -0.646 OA
ATOM    111  O62 IDS d 504      22.345  25.177 109.976  0.00  0.00    -0.646 OA
ATOM    112  O3S IDS d 504      24.183  31.443 105.308  0.00  0.00    -0.572 OA
ATOM    113  S   IDS d 504      22.825  31.314 105.684  0.00  0.00     0.252 S 
ATOM    114  C6  IDS d 504      22.501  26.394 109.859  0.00  0.00     0.206 C 
ATOM    115  O3  IDS d 504      23.470  26.575 105.701  0.00  0.00    -0.390 OA
ATOM    116  C1  IDS d 504      24.447  28.731 107.710  0.00  0.00     0.161 C 
ATOM    117  O2  IDS d 504      22.820  30.083 106.609  0.00  0.00    -0.244 OA
ATOM    118  C5  IDS d 504      23.029  27.005 108.550  0.00  0.00     0.152 C 
ATOM    119  C4  IDS d 504      21.987  27.174 107.447  0.00  0.00     0.103 C 
ATOM    120  O5  IDS d 504      23.668  28.236 108.803  0.00  0.00    -0.340 OA
ATOM    121  O4  IDS d 504      21.011  28.128 107.838  0.00  0.00    -0.348 OA
ATOM    122  C2  IDS d 504      23.606  28.902 106.461  0.00  0.00     0.134 C 
ATOM    123  O1S IDS d 504      21.998  30.987 104.580  0.00  0.00    -0.572 OA
ATOM    124  O2S IDS d 504      22.297  32.419 106.430  0.00  0.00    -0.572 OA
ATOM    125  C3  IDS d 504      22.681  27.656 106.182  0.00  0.00     0.094 C 
ATOM    126  H   IDS d 504      22.900  25.809 105.530  0.00  0.00     0.210 HD
ATOM    127  H   IDS d 504      24.823  29.680 108.031  0.00  0.00     0.133 H 
ATOM    128  H   IDS d 504      23.729  26.288 108.174  0.00  0.00     0.104 H 
ATOM    129  H   IDS d 504      21.504  26.236 107.268  0.00  0.00     0.092 H 
ATOM    130  H   IDS d 504      24.259  28.988 105.618  0.00  0.00     0.097 H 
ATOM    131  H   IDS d 504      21.948  27.961 105.464  0.00  0.00     0.091 H 
ENDROOT
TORSDOF 40
ENDMDL
MODEL 15
REMARK VINA RESULT:     -10.5      4.497      9.083
REMARK  0 active torsions:
REMARK  status: ('A' for Active; 'I' for Inactive)
REMARK       I    between atoms: C6_1  and  C5_82 
REMARK       I    between atoms: O2_4  and  C2_65 
REMARK       I    between atoms: O2_4  and  S_6 
REMARK       I    between atoms: S2_5  and  O6_13 
REMARK       I    between atoms: C6_7  and  C5_66 
REMARK       I    between atoms: C6_7  and  O6_11 
REMARK       I    between atoms: S_8  and  O2_37 
REMARK       I    between atoms: O6_11  and  S2_34 
REMARK       I    between atoms: O6_13  and  C6_16 
REMARK       I    between atoms: C6_16  and  C5_76 
REMARK       I    between atoms: O2S_17  and  S1_21 
REMARK       I    between atoms: O4_18  and  C4_33 
REMARK       I    between atoms: C4_19  and  O4_25 
REMARK       I    between atoms: O3_20  and  C3_57 
REMARK       I    between atoms: S1_21  and  N_56 
REMARK       I    between atoms: S1_21  and  O1S_55 
REMARK       I    between atoms: S1_21  and  O3S_68 
REMARK       I    between atoms: O3_24  and  C3_80 
REMARK       I    between atoms: O4_25  and  C1_53 
REMARK       I    between atoms: S1_26  and  N_59 
REMARK       I    between atoms: S1_26  and  O1S_42 
REMARK       I    between atoms: S1_26  and  O2S_29 
REMARK       I    between atoms: S1_26  and  O3S_87 
REMARK       I    between atoms: S_30  and  O2_54 
REMARK       I    between atoms: C3_31  and  O3_61 
REMARK       I    between atoms: O4_36  and  C4_70 
REMARK       I    between atoms: O4_36  and  C1_52 
REMARK       I    between atoms: O2_37  and  C2_45 
REMARK       I    between atoms: C4_38  and  O4_71 
REMARK       I    between atoms: C1_39  and  O1_51 
REMARK       I    between atoms: C1_40  and  O4_71 
REMARK       I    between atoms: C6_46  and  C5_84 
REMARK       I    between atoms: C6_47  and  C5_64 
REMARK       I    between atoms: C1_48  and  O4_77 
REMARK       I    between atoms: O3_50  and  C3_86 
REMARK       I    between atoms: O2_54  and  C2_79 
REMARK       I    between atoms: N_56  and  C2_67 
REMARK       I    between atoms: C2_58  and  N_59 
REMARK       I    between atoms: C3_62  and  O3_81 
REMARK       I    between atoms: C4_69  and  O4_77 
ROOT
ATOM      1  C6  IDS d 506      15.518  30.816 110.365  0.00  0.00     0.206 C 
ATOM      2  O62 IDS d 506      14.979  31.491 111.225  0.00  0.00    -0.646 OA
ATOM      3  S   IDS d 506      16.899  24.734 111.042  0.00  0.00     0.252 S 
ATOM      4  O1S IDS d 506      16.793  24.947 112.453  0.00  0.00    -0.572 OA
ATOM      5  O3S IDS d 506      18.112  24.045 110.660  0.00  0.00    -0.572 OA
ATOM      6  O4  IDS d 506      15.053  28.187 111.734  0.00  0.00    -0.390 OA
ATOM      7  O3  IDS d 506      18.463  28.429 112.803  0.00  0.00    -0.390 OA
ATOM      8  C4  IDS d 506      16.264  28.881 111.923  0.00  0.00     0.097 C 
ATOM      9  O2  IDS d 506      17.020  26.189 110.413  0.00  0.00    -0.244 OA
ATOM     10  C2  IDS d 506      17.904  27.230 110.778  0.00  0.00     0.134 C 
ATOM     11  C1  IDS d 506      17.997  28.264 109.647  0.00  0.00     0.161 C 
ATOM     12  O2S IDS d 506      15.710  24.120 110.522  0.00  0.00    -0.572 OA
ATOM     13  O5  IDS d 506      16.780  28.964 109.585  0.00  0.00    -0.340 OA
ATOM     14  O61 IDS d 506      15.212  31.023 109.198  0.00  0.00    -0.646 OA
ATOM     15  C3  IDS d 506      17.373  27.824 112.112  0.00  0.00     0.094 C 
ATOM     16  C5  IDS d 506      16.553  29.759 110.702  0.00  0.00     0.152 C 
ATOM     17  H   IDS d 506      14.873  27.633 112.510  0.00  0.00     0.210 HD
ATOM     18  H   IDS d 506      18.146  28.805 113.640  0.00  0.00     0.210 HD
ATOM     19  H   IDS d 506      16.213  29.521 112.780  0.00  0.00     0.091 H 
ATOM     20  H   IDS d 506      18.903  26.878 110.929  0.00  0.00     0.097 H 
ATOM     21  H   IDS d 506      18.813  28.933 109.825  0.00  0.00     0.133 H 
ATOM     22  H   IDS d 506      16.941  27.015 112.664  0.00  0.00     0.091 H 
ATOM     23  H   IDS d 506      17.425  30.312 110.982  0.00  0.00     0.104 H 
ATOM     24  O62 IDS d 502      31.760  31.165 109.833  0.00  0.00    -0.646 OA
ATOM     25  O2  IDS d 502      31.319  28.234 105.023  0.00  0.00    -0.244 OA
ATOM     26  S   IDS d 502      30.799  26.835 104.553  0.00  0.00     0.252 S 
ATOM     27  O3  IDS d 502      34.230  28.194 107.114  0.00  0.00    -0.390 OA
ATOM     28  O2S IDS d 502      29.411  26.777 104.948  0.00  0.00    -0.572 OA
ATOM     29  C4  IDS d 502      32.028  28.834 107.841  0.00  0.00     0.103 C 
ATOM     30  C1  IDS d 502      32.741  30.105 105.337  0.00  0.00     0.158 C 
ATOM     31  O61 IDS d 502      30.631  31.962 108.287  0.00  0.00    -0.646 OA
ATOM     32  C6  IDS d 502      31.502  31.208 108.646  0.00  0.00     0.206 C 
ATOM     33  O1  IDS d 502      34.099  30.438 105.455  0.00  0.00    -0.368 OA
ATOM     34  C3  IDS d 502      32.857  28.047 106.809  0.00  0.00     0.094 C 
ATOM     35  O3S IDS d 502      30.998  26.830 103.127  0.00  0.00    -0.572 OA
ATOM     36  O5  IDS d 502      31.946  30.715 106.322  0.00  0.00    -0.340 OA
ATOM     37  C2  IDS d 502      32.625  28.585 105.394  0.00  0.00     0.134 C 
ATOM     38  O4  IDS d 502      30.665  28.540 107.674  0.00  0.00    -0.348 OA
ATOM     39  O1S IDS d 502      31.597  25.840 105.214  0.00  0.00    -0.572 OA
ATOM     40  C5  IDS d 502      32.250  30.333 107.649  0.00  0.00     0.152 C 
ATOM     41  H   IDS d 502      34.400  27.859 108.008  0.00  0.00     0.210 HD
ATOM     42  H   IDS d 502      32.336  28.555 108.826  0.00  0.00     0.092 H 
ATOM     43  H   IDS d 502      32.371  30.472 104.403  0.00  0.00     0.133 H 
ATOM     44  H   IDS d 502      34.440  30.108 106.301  0.00  0.00     0.212 HD
ATOM     45  H   IDS d 502      32.558  27.020 106.849  0.00  0.00     0.091 H 
ATOM     46  H   IDS d 502      33.364  28.170 104.740  0.00  0.00     0.097 H 
ATOM     47  H   IDS d 502      33.289  30.500 107.842  0.00  0.00     0.104 H 
ATOM     48  S2  SGN d 505      17.817  24.671 105.169  0.00  0.00     0.251 S 
ATOM     49  O6  SGN d 505      18.422  25.916 105.801  0.00  0.00    -0.254 OA
ATOM     50  O5S SGN d 505      18.058  24.829 103.756  0.00  0.00    -0.572 OA
ATOM     51  C6  SGN d 505      19.509  25.978 106.659  0.00  0.00     0.067 C 
ATOM     52  O2S SGN d 505      18.561  32.485 104.242  0.00  0.00    -0.296 OA
ATOM     53  S1  SGN d 505      19.976  32.278 104.445  0.00  0.00     0.156 S 
ATOM     54  O6S SGN d 505      18.521  23.526 105.730  0.00  0.00    -0.572 OA
ATOM     55  O4  SGN d 505      18.174  27.598 108.443  0.00  0.00    -0.348 OA
ATOM     56  O5  SGN d 505      20.235  27.875 105.554  0.00  0.00    -0.349 OA
ATOM     57  O4S SGN d 505      16.422  24.708 105.546  0.00  0.00    -0.572 OA
ATOM     58  C1  SGN d 505      20.711  29.191 105.552  0.00  0.00     0.150 C 
ATOM     59  O1S SGN d 505      20.551  31.387 103.459  0.00  0.00    -0.296 OA
ATOM     60  N   SGN d 505      20.092  31.525 105.938  0.00  0.00    -0.210 NA
ATOM     61  C3  SGN d 505      19.110  29.696 107.426  0.00  0.00     0.083 C 
ATOM     62  C2  SGN d 505      19.618  30.124 106.036  0.00  0.00     0.081 C 
ATOM     63  O3S SGN d 505      20.669  33.512 104.549  0.00  0.00    -0.296 OA
ATOM     64  C4  SGN d 505      18.625  28.226 107.262  0.00  0.00     0.095 C 
ATOM     65  C5  SGN d 505      19.808  27.434 106.807  0.00  0.00     0.091 C 
ATOM     66  O3  SGN d 505      18.026  30.541 107.790  0.00  0.00    -0.391 OA
ATOM     67  H   SGN d 505      20.348  25.463 106.239  0.00  0.00     0.080 H 
ATOM     68  H   SGN d 505      19.302  25.515 107.601  0.00  0.00     0.080 H 
ATOM     69  H   SGN d 505      18.115  31.626 104.175  0.00  0.00     0.231 HD
ATOM     70  H   SGN d 505      20.980  29.474 104.555  0.00  0.00     0.131 H 
ATOM     71  H   SGN d 505      20.039  30.563 103.431  0.00  0.00     0.231 HD
ATOM     72  H   SGN d 505      19.550  32.078 106.602  0.00  0.00     0.140 HD
ATOM     73  H   SGN d 505      19.862  29.769 108.185  0.00  0.00     0.089 H 
ATOM     74  H   SGN d 505      18.755  30.061 105.408  0.00  0.00     0.076 H 
ATOM     75  H   SGN d 505      20.243  34.067 105.221  0.00  0.00     0.231 HD
ATOM     76  H   SGN d 505      17.796  28.258 106.587  0.00  0.00     0.091 H 
ATOM     77  H   SGN d 505      20.555  27.575 107.561  0.00  0.00     0.090 H 
ATOM     78  H   SGN d 505      17.334  30.489 107.113  0.00  0.00     0.210 HD
ATOM     79  C6  SGN d 503      27.779  31.251 108.757  0.00  0.00     0.067 C 
ATOM     80  O6  SGN d 503      27.190  31.043 110.023  0.00  0.00    -0.254 OA
ATOM     81  C4  SGN d 503      27.212  28.836 108.131  0.00  0.00     0.095 C 
ATOM     82  O5  SGN d 503      29.254  29.553 109.212  0.00  0.00    -0.349 OA
ATOM     83  O4  SGN d 503      26.342  29.202 107.110  0.00  0.00    -0.348 OA
ATOM     84  S1  SGN d 503      30.278  25.115 109.668  0.00  0.00     0.156 S 
ATOM     85  O4S SGN d 503      26.999  33.379 110.595  0.00  0.00    -0.572 OA
ATOM     86  O2S SGN d 503      29.218  24.901 110.652  0.00  0.00    -0.296 OA
ATOM     87  C3  SGN d 503      27.854  27.500 107.763  0.00  0.00     0.083 C 
ATOM     88  S2  SGN d 503      27.128  32.084 111.172  0.00  0.00     0.251 S 
ATOM     89  O5S SGN d 503      25.977  31.738 112.000  0.00  0.00    -0.572 OA
ATOM     90  C1  SGN d 503      29.948  28.380 108.868  0.00  0.00     0.150 C 
ATOM     91  O1S SGN d 503      31.371  25.903 110.207  0.00  0.00    -0.296 OA
ATOM     92  O6S SGN d 503      28.382  31.958 111.807  0.00  0.00    -0.572 OA
ATOM     93  C2  SGN d 503      28.959  27.210 108.763  0.00  0.00     0.081 C 
ATOM     94  N   SGN d 503      29.660  25.980 108.436  0.00  0.00    -0.210 NA
ATOM     95  O3  SGN d 503      26.859  26.497 107.841  0.00  0.00    -0.391 OA
ATOM     96  C5  SGN d 503      28.293  29.922 108.272  0.00  0.00     0.091 C 
ATOM     97  O3S SGN d 503      30.734  23.903 109.025  0.00  0.00    -0.296 OA
ATOM     98  H   SGN d 503      27.050  31.632 108.073  0.00  0.00     0.080 H 
ATOM     99  H   SGN d 503      28.577  31.960 108.826  0.00  0.00     0.080 H 
ATOM    100  H   SGN d 503      26.690  28.735 109.059  0.00  0.00     0.091 H 
ATOM    101  H   SGN d 503      28.962  25.752 111.041  0.00  0.00     0.231 HD
ATOM    102  H   SGN d 503      28.264  27.526 106.776  0.00  0.00     0.089 H 
ATOM    103  H   SGN d 503      30.662  28.168 109.637  0.00  0.00     0.131 H 
ATOM    104  H   SGN d 503      31.016  26.702 110.626  0.00  0.00     0.231 HD
ATOM    105  H   SGN d 503      28.493  27.086 109.717  0.00  0.00     0.076 H 
ATOM    106  H   SGN d 503      29.003  25.379 107.939  0.00  0.00     0.140 HD
ATOM    107  H   SGN d 503      26.490  26.476 108.738  0.00  0.00     0.210 HD
ATOM    108  H   SGN d 503      28.681  30.018 107.280  0.00  0.00     0.090 H 
ATOM    109  H   SGN d 503      31.434  24.119 108.389  0.00  0.00     0.231 HD
ATOM    110  O61 IDS d 504      22.453  26.567 108.219  0.00  0.00    -0.646 OA
ATOM    111  O62 IDS d 504      23.059  25.604 106.448  0.00  0.00    -0.646 OA
ATOM    112  O3S IDS d 504      25.043  33.323 107.405  0.00  0.00    -0.572 OA
ATOM    113  S   IDS d 504      23.667  33.043 107.230  0.00  0.00     0.252 S 
ATOM    114  C6  IDS d 504      23.064  26.611 107.159  0.00  0.00     0.206 C 
ATOM    115  O3  IDS d 504      24.955  29.349 104.478  0.00  0.00    -0.390 OA
ATOM    116  C1  IDS d 504      25.113  29.695 107.560  0.00  0.00     0.161 C 
ATOM    117  O2  IDS d 504      23.617  31.506 107.146  0.00  0.00    -0.244 OA
ATOM    118  C5  IDS d 504      23.795  27.890 106.720  0.00  0.00     0.152 C 
ATOM    119  C4  IDS d 504      23.031  28.766 105.729  0.00  0.00     0.103 C 
ATOM    120  O5  IDS d 504      24.175  28.651 107.844  0.00  0.00    -0.340 OA
ATOM    121  O4  IDS d 504      21.864  29.295 106.343  0.00  0.00    -0.348 OA
ATOM    122  C2  IDS d 504      24.575  30.656 106.518  0.00  0.00     0.134 C 
ATOM    123  O1S IDS d 504      23.181  33.527 105.990  0.00  0.00    -0.572 OA
ATOM    124  O2S IDS d 504      22.827  33.444 108.320  0.00  0.00    -0.572 OA
ATOM    125  C3  IDS d 504      23.929  29.911 105.287  0.00  0.00     0.094 C 
ATOM    126  H   IDS d 504      24.556  28.891 103.722  0.00  0.00     0.210 HD
ATOM    127  H   IDS d 504      25.263  30.207 108.487  0.00  0.00     0.133 H 
ATOM    128  H   IDS d 504      24.658  27.547 106.189  0.00  0.00     0.104 H 
ATOM    129  H   IDS d 504      22.742  28.177 104.884  0.00  0.00     0.092 H 
ATOM    130  H   IDS d 504      25.391  31.229 106.130  0.00  0.00     0.097 H 
ATOM    131  H   IDS d 504      23.352  30.634 104.750  0.00  0.00     0.091 H 
ENDROOT
TORSDOF 40
ENDMDL
MODEL 16
REMARK VINA RESULT:     -10.5      3.377      7.194
REMARK  0 active torsions:
REMARK  status: ('A' for Active; 'I' for Inactive)
REMARK       I    between atoms: C6_1  and  C5_82 
REMARK       I    between atoms: O2_4  and  C2_65 
REMARK       I    between atoms: O2_4  and  S_6 
REMARK       I    between atoms: S2_5  and  O6_13 
REMARK       I    between atoms: C6_7  and  C5_66 
REMARK       I    between atoms: C6_7  and  O6_11 
REMARK       I    between atoms: S_8  and  O2_37 
REMARK       I    between atoms: O6_11  and  S2_34 
REMARK       I    between atoms: O6_13  and  C6_16 
REMARK       I    between atoms: C6_16  and  C5_76 
REMARK       I    between atoms: O2S_17  and  S1_21 
REMARK       I    between atoms: O4_18  and  C4_33 
REMARK       I    between atoms: C4_19  and  O4_25 
REMARK       I    between atoms: O3_20  and  C3_57 
REMARK       I    between atoms: S1_21  and  N_56 
REMARK       I    between atoms: S1_21  and  O1S_55 
REMARK       I    between atoms: S1_21  and  O3S_68 
REMARK       I    between atoms: O3_24  and  C3_80 
REMARK       I    between atoms: O4_25  and  C1_53 
REMARK       I    between atoms: S1_26  and  N_59 
REMARK       I    between atoms: S1_26  and  O1S_42 
REMARK       I    between atoms: S1_26  and  O2S_29 
REMARK       I    between atoms: S1_26  and  O3S_87 
REMARK       I    between atoms: S_30  and  O2_54 
REMARK       I    between atoms: C3_31  and  O3_61 
REMARK       I    between atoms: O4_36  and  C4_70 
REMARK       I    between atoms: O4_36  and  C1_52 
REMARK       I    between atoms: O2_37  and  C2_45 
REMARK       I    between atoms: C4_38  and  O4_71 
REMARK       I    between atoms: C1_39  and  O1_51 
REMARK       I    between atoms: C1_40  and  O4_71 
REMARK       I    between atoms: C6_46  and  C5_84 
REMARK       I    between atoms: C6_47  and  C5_64 
REMARK       I    between atoms: C1_48  and  O4_77 
REMARK       I    between atoms: O3_50  and  C3_86 
REMARK       I    between atoms: O2_54  and  C2_79 
REMARK       I    between atoms: N_56  and  C2_67 
REMARK       I    between atoms: C2_58  and  N_59 
REMARK       I    between atoms: C3_62  and  O3_81 
REMARK       I    between atoms: C4_69  and  O4_77 
ROOT
ATOM      1  C6  IDS d 506      16.109  22.322 111.311  0.00  0.00     0.206 C 
ATOM      2  O62 IDS d 506      15.697  21.491 112.102  0.00  0.00    -0.646 OA
ATOM      3  S   IDS d 506      17.239  21.128 105.257  0.00  0.00     0.252 S 
ATOM      4  O1S IDS d 506      17.291  19.745 105.619  0.00  0.00    -0.572 OA
ATOM      5  O3S IDS d 506      18.370  21.550 104.458  0.00  0.00    -0.572 OA
ATOM      6  O4  IDS d 506      15.654  20.637 108.870  0.00  0.00    -0.390 OA
ATOM      7  O3  IDS d 506      19.164  19.938 109.009  0.00  0.00    -0.390 OA
ATOM      8  C4  IDS d 506      16.912  20.643 109.503  0.00  0.00     0.097 C 
ATOM      9  O2  IDS d 506      17.369  21.919 106.628  0.00  0.00    -0.244 OA
ATOM     10  C2  IDS d 506      18.338  21.757 107.645  0.00  0.00     0.134 C 
ATOM     11  C1  IDS d 506      18.367  22.998 108.550  0.00  0.00     0.161 C 
ATOM     12  O2S IDS d 506      15.973  21.461 104.667  0.00  0.00    -0.572 OA
ATOM     13  O5  IDS d 506      17.187  23.016 109.314  0.00  0.00    -0.340 OA
ATOM     14  O61 IDS d 506      15.695  23.468 111.415  0.00  0.00    -0.646 OA
ATOM     15  C3  IDS d 506      17.979  20.450 108.405  0.00  0.00     0.094 C 
ATOM     16  C5  IDS d 506      17.118  21.975 110.232  0.00  0.00     0.152 C 
ATOM     17  H   IDS d 506      15.528  19.792 108.410  0.00  0.00     0.210 HD
ATOM     18  H   IDS d 506      18.955  19.120 109.487  0.00  0.00     0.210 HD
ATOM     19  H   IDS d 506      16.983  19.860 110.229  0.00  0.00     0.091 H 
ATOM     20  H   IDS d 506      19.328  21.668 107.249  0.00  0.00     0.097 H 
ATOM     21  H   IDS d 506      19.229  22.973 109.182  0.00  0.00     0.133 H 
ATOM     22  H   IDS d 506      17.566  19.774 107.685  0.00  0.00     0.091 H 
ATOM     23  H   IDS d 506      18.041  21.842 110.755  0.00  0.00     0.104 H 
ATOM     24  O62 IDS d 502      32.205  24.467 110.599  0.00  0.00    -0.646 OA
ATOM     25  O2  IDS d 502      31.119  28.866 107.224  0.00  0.00    -0.244 OA
ATOM     26  S   IDS d 502      30.483  29.130 105.819  0.00  0.00     0.252 S 
ATOM     27  O3  IDS d 502      34.226  27.077 107.218  0.00  0.00    -0.390 OA
ATOM     28  O2S IDS d 502      29.142  28.597 105.887  0.00  0.00    -0.572 OA
ATOM     29  C4  IDS d 502      32.146  26.213 108.064  0.00  0.00     0.103 C 
ATOM     30  C1  IDS d 502      32.661  28.897 109.025  0.00  0.00     0.158 C 
ATOM     31  O61 IDS d 502      30.965  25.973 111.302  0.00  0.00    -0.646 OA
ATOM     32  C6  IDS d 502      31.829  25.622 110.535  0.00  0.00     0.206 C 
ATOM     33  O1  IDS d 502      34.038  28.948 109.285  0.00  0.00    -0.368 OA
ATOM     34  C3  IDS d 502      32.823  27.230 107.125  0.00  0.00     0.094 C 
ATOM     35  O3S IDS d 502      30.533  30.559 105.656  0.00  0.00    -0.572 OA
ATOM     36  O5  IDS d 502      32.004  27.910 109.781  0.00  0.00    -0.340 OA
ATOM     37  C2  IDS d 502      32.474  28.665 107.529  0.00  0.00     0.134 C 
ATOM     38  O4  IDS d 502      30.760  26.213 107.839  0.00  0.00    -0.348 OA
ATOM     39  O1S IDS d 502      31.294  28.446 104.849  0.00  0.00    -0.572 OA
ATOM     40  C5  IDS d 502      32.424  26.586 109.519  0.00  0.00     0.152 C 
ATOM     41  H   IDS d 502      34.470  26.173 106.966  0.00  0.00     0.210 HD
ATOM     42  H   IDS d 502      32.540  25.238 107.868  0.00  0.00     0.092 H 
ATOM     43  H   IDS d 502      32.215  29.824 109.317  0.00  0.00     0.133 H 
ATOM     44  H   IDS d 502      34.448  28.109 109.022  0.00  0.00     0.212 HD
ATOM     45  H   IDS d 502      32.477  27.050 106.128  0.00  0.00     0.091 H 
ATOM     46  H   IDS d 502      33.118  29.339 107.005  0.00  0.00     0.097 H 
ATOM     47  H   IDS d 502      33.484  26.514 109.640  0.00  0.00     0.104 H 
ATOM     48  S2  SGN d 505      17.541  27.022 104.535  0.00  0.00     0.251 S 
ATOM     49  O6  SGN d 505      18.271  26.590 105.799  0.00  0.00    -0.254 OA
ATOM     50  O5S SGN d 505      17.642  28.460 104.532  0.00  0.00    -0.572 OA
ATOM     51  C6  SGN d 505      19.443  25.854 105.881  0.00  0.00     0.067 C 
ATOM     52  O2S SGN d 505      18.584  28.856 112.153  0.00  0.00    -0.296 OA
ATOM     53  S1  SGN d 505      19.999  28.770 111.880  0.00  0.00     0.156 S 
ATOM     54  O6S SGN d 505      18.240  26.411 103.413  0.00  0.00    -0.572 OA
ATOM     55  O4  SGN d 505      18.383  24.133 107.755  0.00  0.00    -0.348 OA
ATOM     56  O5  SGN d 505      20.147  27.222 107.607  0.00  0.00    -0.349 OA
ATOM     57  O4S SGN d 505      16.196  26.516 104.697  0.00  0.00    -0.572 OA
ATOM     58  C1  SGN d 505      20.687  27.413 108.884  0.00  0.00     0.150 C 
ATOM     59  O1S SGN d 505      20.423  29.705 110.860  0.00  0.00    -0.296 OA
ATOM     60  N   SGN d 505      20.231  27.223 111.278  0.00  0.00    -0.210 NA
ATOM     61  C3  SGN d 505      19.316  25.458 109.676  0.00  0.00     0.083 C 
ATOM     62  C2  SGN d 505      19.699  26.929 109.927  0.00  0.00     0.081 C 
ATOM     63  O3S SGN d 505      20.762  28.868 113.074  0.00  0.00    -0.296 OA
ATOM     64  C4  SGN d 505      18.742  25.414 108.229  0.00  0.00     0.095 C 
ATOM     65  C5  SGN d 505      19.830  25.894 107.324  0.00  0.00     0.091 C 
ATOM     66  O3  SGN d 505      18.320  25.083 110.619  0.00  0.00    -0.391 OA
ATOM     67  H   SGN d 505      20.206  26.295 105.275  0.00  0.00     0.080 H 
ATOM     68  H   SGN d 505      19.311  24.851 105.530  0.00  0.00     0.080 H 
ATOM     69  H   SGN d 505      18.090  28.786 111.320  0.00  0.00     0.231 HD
ATOM     70  H   SGN d 505      20.865  28.456 109.046  0.00  0.00     0.131 H 
ATOM     71  H   SGN d 505      19.870  29.595 110.070  0.00  0.00     0.231 HD
ATOM     72  H   SGN d 505      19.789  26.573 111.929  0.00  0.00     0.140 HD
ATOM     73  H   SGN d 505      20.144  24.788 109.779  0.00  0.00     0.089 H 
ATOM     74  H   SGN d 505      18.773  27.459 109.853  0.00  0.00     0.076 H 
ATOM     75  H   SGN d 505      20.436  28.222 113.719  0.00  0.00     0.231 HD
ATOM     76  H   SGN d 505      17.850  26.005 108.243  0.00  0.00     0.091 H 
ATOM     77  H   SGN d 505      20.656  25.236 107.495  0.00  0.00     0.090 H 
ATOM     78  H   SGN d 505      17.560  25.680 110.540  0.00  0.00     0.210 HD
ATOM     79  C6  SGN d 503      28.144  25.153 110.820  0.00  0.00     0.067 C 
ATOM     80  O6  SGN d 503      27.680  23.821 110.779  0.00  0.00    -0.254 OA
ATOM     81  C4  SGN d 503      27.393  25.457 108.393  0.00  0.00     0.095 C 
ATOM     82  O5  SGN d 503      29.569  24.664 109.090  0.00  0.00    -0.349 OA
ATOM     83  O4  SGN d 503      26.442  26.421 108.706  0.00  0.00    -0.348 OA
ATOM     84  S1  SGN d 503      30.407  23.833 104.667  0.00  0.00     0.156 S 
ATOM     85  O4S SGN d 503      27.668  23.489 113.169  0.00  0.00    -0.572 OA
ATOM     86  O2S SGN d 503      29.445  22.733 104.620  0.00  0.00    -0.296 OA
ATOM     87  C3  SGN d 503      27.924  25.738 106.989  0.00  0.00     0.083 C 
ATOM     88  S2  SGN d 503      27.790  22.791 111.934  0.00  0.00     0.251 S 
ATOM     89  O5S SGN d 503      26.714  21.822 111.747  0.00  0.00    -0.572 OA
ATOM     90  C1  SGN d 503      30.164  24.945 107.847  0.00  0.00     0.150 C 
ATOM     91  O1S SGN d 503      31.588  23.491 105.437  0.00  0.00    -0.296 OA
ATOM     92  O6S SGN d 503      29.094  22.272 111.797  0.00  0.00    -0.572 OA
ATOM     93  C2  SGN d 503      29.110  24.826 106.736  0.00  0.00     0.081 C 
ATOM     94  N   SGN d 503      29.709  25.085 105.438  0.00  0.00    -0.210 NA
ATOM     95  O3  SGN d 503      26.893  25.456 106.063  0.00  0.00    -0.391 OA
ATOM     96  C5  SGN d 503      28.536  25.539 109.419  0.00  0.00     0.091 C 
ATOM     97  O3S SGN d 503      30.731  24.382 103.370  0.00  0.00    -0.296 OA
ATOM     98  H   SGN d 503      27.369  25.800 111.173  0.00  0.00     0.080 H 
ATOM     99  H   SGN d 503      28.980  25.240 111.482  0.00  0.00     0.080 H 
ATOM    100  H   SGN d 503      26.965  24.476 108.420  0.00  0.00     0.091 H 
ATOM    101  H   SGN d 503      29.274  22.414 105.521  0.00  0.00     0.231 HD
ATOM    102  H   SGN d 503      28.231  26.758 106.889  0.00  0.00     0.089 H 
ATOM    103  H   SGN d 503      30.941  24.231 107.671  0.00  0.00     0.131 H 
ATOM    104  H   SGN d 503      31.320  23.128 106.295  0.00  0.00     0.231 HD
ATOM    105  H   SGN d 503      28.739  23.823 106.739  0.00  0.00     0.076 H 
ATOM    106  H   SGN d 503      28.975  25.447 104.830  0.00  0.00     0.140 HD
ATOM    107  H   SGN d 503      26.618  24.531 106.157  0.00  0.00     0.210 HD
ATOM    108  H   SGN d 503      28.824  26.570 109.389  0.00  0.00     0.090 H 
ATOM    109  H   SGN d 503      31.371  25.103 103.475  0.00  0.00     0.231 HD
ATOM    110  O61 IDS d 504      22.558  24.661 106.444  0.00  0.00    -0.646 OA
ATOM    111  O62 IDS d 504      22.928  26.368 105.269  0.00  0.00    -0.646 OA
ATOM    112  O3S IDS d 504      25.392  26.449 112.908  0.00  0.00    -0.572 OA
ATOM    113  S   IDS d 504      23.993  26.457 112.696  0.00  0.00     0.252 S 
ATOM    114  C6  IDS d 504      23.058  25.774 106.341  0.00  0.00     0.206 C 
ATOM    115  O3  IDS d 504      24.799  28.906 108.668  0.00  0.00    -0.390 OA
ATOM    116  C1  IDS d 504      25.292  25.910 109.317  0.00  0.00     0.161 C 
ATOM    117  O2  IDS d 504      23.857  26.370 111.166  0.00  0.00    -0.244 OA
ATOM    118  C5  IDS d 504      23.804  26.418 107.521  0.00  0.00     0.152 C 
ATOM    119  C4  IDS d 504      22.987  27.418 108.337  0.00  0.00     0.103 C 
ATOM    120  O5  IDS d 504      24.337  25.425 108.368  0.00  0.00    -0.340 OA
ATOM    121  O4  IDS d 504      21.919  26.755 108.996  0.00  0.00    -0.348 OA
ATOM    122  C2  IDS d 504      24.700  26.992 110.198  0.00  0.00     0.134 C 
ATOM    123  O1S IDS d 504      23.407  27.689 113.081  0.00  0.00    -0.572 OA
ATOM    124  O2S IDS d 504      23.292  25.340 113.259  0.00  0.00    -0.572 OA
ATOM    125  C3  IDS d 504      23.893  28.066 109.372  0.00  0.00     0.094 C 
ATOM    126  H   IDS d 504      24.301  29.566 108.161  0.00  0.00     0.210 HD
ATOM    127  H   IDS d 504      25.563  25.062 109.911  0.00  0.00     0.133 H 
ATOM    128  H   IDS d 504      24.589  26.990 107.072  0.00  0.00     0.104 H 
ATOM    129  H   IDS d 504      22.583  28.163 107.683  0.00  0.00     0.092 H 
ATOM    130  H   IDS d 504      25.499  27.518 110.677  0.00  0.00     0.097 H 
ATOM    131  H   IDS d 504      23.300  28.620 110.071  0.00  0.00     0.091 H 
ENDROOT
TORSDOF 40
ENDMDL
MODEL 17
REMARK VINA RESULT:     -10.5      3.928      8.995
REMARK  0 active torsions:
REMARK  status: ('A' for Active; 'I' for Inactive)
REMARK       I    between atoms: C6_1  and  C5_82 
REMARK       I    between atoms: O2_4  and  C2_65 
REMARK       I    between atoms: O2_4  and  S_6 
REMARK       I    between atoms: S2_5  and  O6_13 
REMARK       I    between atoms: C6_7  and  C5_66 
REMARK       I    between atoms: C6_7  and  O6_11 
REMARK       I    between atoms: S_8  and  O2_37 
REMARK       I    between atoms: O6_11  and  S2_34 
REMARK       I    between atoms: O6_13  and  C6_16 
REMARK       I    between atoms: C6_16  and  C5_76 
REMARK       I    between atoms: O2S_17  and  S1_21 
REMARK       I    between atoms: O4_18  and  C4_33 
REMARK       I    between atoms: C4_19  and  O4_25 
REMARK       I    between atoms: O3_20  and  C3_57 
REMARK       I    between atoms: S1_21  and  N_56 
REMARK       I    between atoms: S1_21  and  O1S_55 
REMARK       I    between atoms: S1_21  and  O3S_68 
REMARK       I    between atoms: O3_24  and  C3_80 
REMARK       I    between atoms: O4_25  and  C1_53 
REMARK       I    between atoms: S1_26  and  N_59 
REMARK       I    between atoms: S1_26  and  O1S_42 
REMARK       I    between atoms: S1_26  and  O2S_29 
REMARK       I    between atoms: S1_26  and  O3S_87 
REMARK       I    between atoms: S_30  and  O2_54 
REMARK       I    between atoms: C3_31  and  O3_61 
REMARK       I    between atoms: O4_36  and  C4_70 
REMARK       I    between atoms: O4_36  and  C1_52 
REMARK       I    between atoms: O2_37  and  C2_45 
REMARK       I    between atoms: C4_38  and  O4_71 
REMARK       I    between atoms: C1_39  and  O1_51 
REMARK       I    between atoms: C1_40  and  O4_71 
REMARK       I    between atoms: C6_46  and  C5_84 
REMARK       I    between atoms: C6_47  and  C5_64 
REMARK       I    between atoms: C1_48  and  O4_77 
REMARK       I    between atoms: O3_50  and  C3_86 
REMARK       I    between atoms: O2_54  and  C2_79 
REMARK       I    between atoms: N_56  and  C2_67 
REMARK       I    between atoms: C2_58  and  N_59 
REMARK       I    between atoms: C3_62  and  O3_81 
REMARK       I    between atoms: C4_69  and  O4_77 
ROOT
ATOM      1  C6  IDS d 506      18.323  32.561 112.524  0.00  0.00     0.206 C 
ATOM      2  O62 IDS d 506      17.961  33.335 113.394  0.00  0.00    -0.646 OA
ATOM      3  S   IDS d 506      19.501  26.481 113.521  0.00  0.00     0.252 S 
ATOM      4  O1S IDS d 506      19.630  26.813 114.907  0.00  0.00    -0.572 OA
ATOM      5  O3S IDS d 506      20.604  25.690 113.020  0.00  0.00    -0.572 OA
ATOM      6  O4  IDS d 506      17.956  30.085 114.179  0.00  0.00    -0.390 OA
ATOM      7  O3  IDS d 506      21.500  30.203 114.684  0.00  0.00    -0.390 OA
ATOM      8  C4  IDS d 506      19.213  30.716 114.116  0.00  0.00     0.097 C 
ATOM      9  O2  IDS d 506      19.590  27.869 112.754  0.00  0.00    -0.244 OA
ATOM     10  C2  IDS d 506      20.570  28.881 112.884  0.00  0.00     0.134 C 
ATOM     11  C1  IDS d 506      20.532  29.812 111.664  0.00  0.00     0.161 C 
ATOM     12  O2S IDS d 506      18.217  25.901 113.247  0.00  0.00    -0.572 OA
ATOM     13  O5  IDS d 506      19.356  30.578 111.728  0.00  0.00    -0.340 OA
ATOM     14  O61 IDS d 506      17.847  32.692 111.406  0.00  0.00    -0.646 OA
ATOM     15  C3  IDS d 506      20.286  29.612 114.225  0.00  0.00     0.094 C 
ATOM     16  C5  IDS d 506      19.347  31.473 112.791  0.00  0.00     0.152 C 
ATOM     17  H   IDS d 506      17.875  29.607 115.019  0.00  0.00     0.210 HD
ATOM     18  H   IDS d 506      21.339  30.664 115.522  0.00  0.00     0.210 HD
ATOM     19  H   IDS d 506      19.330  31.425 114.910  0.00  0.00     0.091 H 
ATOM     20  H   IDS d 506      21.562  28.481 112.910  0.00  0.00     0.097 H 
ATOM     21  H   IDS d 506      21.397  30.442 111.654  0.00  0.00     0.133 H 
ATOM     22  H   IDS d 506      19.909  28.878 114.907  0.00  0.00     0.091 H 
ATOM     23  H   IDS d 506      20.278  31.993 112.884  0.00  0.00     0.104 H 
ATOM     24  O62 IDS d 502      34.273  31.868 109.470  0.00  0.00    -0.646 OA
ATOM     25  O2  IDS d 502      32.935  28.592 105.067  0.00  0.00    -0.244 OA
ATOM     26  S   IDS d 502      32.281  27.195 104.809  0.00  0.00     0.252 S 
ATOM     27  O3  IDS d 502      36.135  28.541 106.680  0.00  0.00    -0.390 OA
ATOM     28  O2S IDS d 502      30.971  27.254 105.416  0.00  0.00    -0.572 OA
ATOM     29  C4  IDS d 502      34.110  29.373 107.676  0.00  0.00     0.103 C 
ATOM     30  C1  IDS d 502      34.477  30.391 104.989  0.00  0.00     0.158 C 
ATOM     31  O61 IDS d 502      32.953  32.606 108.051  0.00  0.00    -0.646 OA
ATOM     32  C6  IDS d 502      33.833  31.831 108.338  0.00  0.00     0.206 C 
ATOM     33  O1  IDS d 502      35.851  30.649 104.867  0.00  0.00    -0.368 OA
ATOM     34  C3  IDS d 502      34.726  28.455 106.603  0.00  0.00     0.094 C 
ATOM     35  O3S IDS d 502      32.250  27.062 103.375  0.00  0.00    -0.572 OA
ATOM     36  O5  IDS d 502      33.879  31.126 106.027  0.00  0.00    -0.340 OA
ATOM     37  C2  IDS d 502      34.299  28.890 105.199  0.00  0.00     0.134 C 
ATOM     38  O4  IDS d 502      32.725  29.150 107.748  0.00  0.00    -0.348 OA
ATOM     39  O1S IDS d 502      33.125  26.209 105.424  0.00  0.00    -0.572 OA
ATOM     40  C5  IDS d 502      34.371  30.835 107.320  0.00  0.00     0.152 C 
ATOM     41  H   IDS d 502      36.429  28.270 107.563  0.00  0.00     0.210 HD
ATOM     42  H   IDS d 502      34.557  29.155 108.624  0.00  0.00     0.092 H 
ATOM     43  H   IDS d 502      33.982  30.704 104.094  0.00  0.00     0.133 H 
ATOM     44  H   IDS d 502      36.306  30.367 105.676  0.00  0.00     0.212 HD
ATOM     45  H   IDS d 502      34.388  27.455 106.780  0.00  0.00     0.091 H 
ATOM     46  H   IDS d 502      34.903  28.380 104.479  0.00  0.00     0.097 H 
ATOM     47  H   IDS d 502      35.434  30.952 107.335  0.00  0.00     0.104 H 
ATOM     48  S2  SGN d 505      19.472  25.888 107.606  0.00  0.00     0.251 S 
ATOM     49  O6  SGN d 505      20.228  27.140 108.024  0.00  0.00    -0.254 OA
ATOM     50  O5S SGN d 505      19.493  25.916 106.164  0.00  0.00    -0.572 OA
ATOM     51  C6  SGN d 505      21.440  27.204 108.695  0.00  0.00     0.067 C 
ATOM     52  O2S SGN d 505      20.433  33.541 105.882  0.00  0.00    -0.296 OA
ATOM     53  S1  SGN d 505      21.851  33.265 105.883  0.00  0.00     0.156 S 
ATOM     54  O6S SGN d 505      20.200  24.751 108.152  0.00  0.00    -0.572 OA
ATOM     55  O4  SGN d 505      20.483  29.042 110.512  0.00  0.00    -0.348 OA
ATOM     56  O5  SGN d 505      22.071  28.958 107.327  0.00  0.00    -0.349 OA
ATOM     57  O4S SGN d 505      18.158  26.041 108.189  0.00  0.00    -0.572 OA
ATOM     58  C1  SGN d 505      22.604  30.238 107.134  0.00  0.00     0.150 C 
ATOM     59  O1S SGN d 505      22.219  32.264 104.904  0.00  0.00    -0.296 OA
ATOM     60  N   SGN d 505      22.166  32.629 107.401  0.00  0.00    -0.210 NA
ATOM     61  C3  SGN d 505      21.346  30.990 109.180  0.00  0.00     0.083 C 
ATOM     62  C2  SGN d 505      21.648  31.273 107.695  0.00  0.00     0.081 C 
ATOM     63  O3S SGN d 505      22.611  34.459 105.769  0.00  0.00    -0.296 OA
ATOM     64  C4  SGN d 505      20.772  29.544 109.224  0.00  0.00     0.095 C 
ATOM     65  C5  SGN d 505      21.828  28.647 108.665  0.00  0.00     0.091 C 
ATOM     66  O3  SGN d 505      20.376  31.926 109.630  0.00  0.00    -0.391 OA
ATOM     67  H   SGN d 505      22.176  26.607 108.199  0.00  0.00     0.080 H 
ATOM     68  H   SGN d 505      21.363  26.832 109.695  0.00  0.00     0.080 H 
ATOM     69  H   SGN d 505      19.942  32.709 105.962  0.00  0.00     0.231 HD
ATOM     70  H   SGN d 505      22.724  30.423 106.087  0.00  0.00     0.131 H 
ATOM     71  H   SGN d 505      21.671  31.473 105.028  0.00  0.00     0.231 HD
ATOM     72  H   SGN d 505      21.763  33.266 108.089  0.00  0.00     0.140 HD
ATOM     73  H   SGN d 505      22.211  31.077 109.804  0.00  0.00     0.089 H 
ATOM     74  H   SGN d 505      20.693  31.212 107.216  0.00  0.00     0.076 H 
ATOM     75  H   SGN d 505      22.323  35.091 106.446  0.00  0.00     0.231 HD
ATOM     76  H   SGN d 505      19.848  29.572 108.684  0.00  0.00     0.091 H 
ATOM     77  H   SGN d 505      22.691  28.802 109.279  0.00  0.00     0.090 H 
ATOM     78  H   SGN d 505      19.583  31.862 109.074  0.00  0.00     0.210 HD
ATOM     79  C6  SGN d 503      30.181  32.111 109.017  0.00  0.00     0.067 C 
ATOM     80  O6  SGN d 503      29.791  32.042 110.371  0.00  0.00    -0.254 OA
ATOM     81  C4  SGN d 503      29.407  29.693 108.703  0.00  0.00     0.095 C 
ATOM     82  O5  SGN d 503      31.626  30.368 109.388  0.00  0.00    -0.349 OA
ATOM     83  O4  SGN d 503      28.405  30.029 107.800  0.00  0.00    -0.348 OA
ATOM     84  S1  SGN d 503      32.495  25.928 110.075  0.00  0.00     0.156 S 
ATOM     85  O4S SGN d 503      29.806  34.424 110.755  0.00  0.00    -0.572 OA
ATOM     86  O2S SGN d 503      31.596  25.858 111.226  0.00  0.00    -0.296 OA
ATOM     87  C3  SGN d 503      29.918  28.295 108.362  0.00  0.00     0.083 C 
ATOM     88  S2  SGN d 503      29.962  33.175 111.418  0.00  0.00     0.251 S 
ATOM     89  O5S SGN d 503      28.941  32.968 112.441  0.00  0.00    -0.572 OA
ATOM     90  C1  SGN d 503      32.200  29.131 109.048  0.00  0.00     0.150 C 
ATOM     91  O1S SGN d 503      33.696  26.688 110.367  0.00  0.00    -0.296 OA
ATOM     92  O6S SGN d 503      31.293  33.024 111.861  0.00  0.00    -0.572 OA
ATOM     93  C2  SGN d 503      31.152  28.019 109.201  0.00  0.00     0.081 C 
ATOM     94  N   SGN d 503      31.732  26.727 108.881  0.00  0.00    -0.210 NA
ATOM     95  O3  SGN d 503      28.901  27.365 108.681  0.00  0.00    -0.391 OA
ATOM     96  C5  SGN d 503      30.547  30.719 108.579  0.00  0.00     0.091 C 
ATOM     97  O3S SGN d 503      32.785  24.642 109.481  0.00  0.00    -0.296 OA
ATOM     98  H   SGN d 503      29.372  32.480 108.422  0.00  0.00     0.080 H 
ATOM     99  H   SGN d 503      31.013  32.774 108.898  0.00  0.00     0.080 H 
ATOM    100  H   SGN d 503      29.034  29.700 109.706  0.00  0.00     0.091 H 
ATOM    101  H   SGN d 503      31.446  26.752 111.573  0.00  0.00     0.231 HD
ATOM    102  H   SGN d 503      30.167  28.216 107.324  0.00  0.00     0.089 H 
ATOM    103  H   SGN d 503      33.016  28.938 109.713  0.00  0.00     0.131 H 
ATOM    104  H   SGN d 503      33.451  27.538 110.763  0.00  0.00     0.231 HD
ATOM    105  H   SGN d 503      30.838  28.001 110.223  0.00  0.00     0.076 H 
ATOM    106  H   SGN d 503      30.976  26.128 108.547  0.00  0.00     0.140 HD
ATOM    107  H   SGN d 503      28.678  27.439 109.622  0.00  0.00     0.210 HD
ATOM    108  H   SGN d 503      30.777  30.711 107.534  0.00  0.00     0.090 H 
ATOM    109  H   SGN d 503      33.384  24.762 108.728  0.00  0.00     0.231 HD
ATOM    110  O61 IDS d 504      24.619  27.736 109.725  0.00  0.00    -0.646 OA
ATOM    111  O62 IDS d 504      24.889  26.598 107.974  0.00  0.00    -0.646 OA
ATOM    112  O3S IDS d 504      27.368  34.232 107.922  0.00  0.00    -0.572 OA
ATOM    113  S   IDS d 504      25.970  34.023 107.987  0.00  0.00     0.252 S 
ATOM    114  C6  IDS d 504      25.055  27.656 108.583  0.00  0.00     0.206 C 
ATOM    115  O3  IDS d 504      26.626  30.048 105.410  0.00  0.00    -0.390 OA
ATOM    116  C1  IDS d 504      27.287  30.631 108.387  0.00  0.00     0.161 C 
ATOM    117  O2  IDS d 504      25.834  32.491 108.048  0.00  0.00    -0.244 OA
ATOM    118  C5  IDS d 504      25.768  28.849 107.925  0.00  0.00     0.152 C 
ATOM    119  C4  IDS d 504      24.899  29.687 106.989  0.00  0.00     0.103 C 
ATOM    120  O5  IDS d 504      26.357  29.673 108.904  0.00  0.00    -0.340 OA
ATOM    121  O4  IDS d 504      23.871  30.334 107.725  0.00  0.00    -0.348 OA
ATOM    122  C2  IDS d 504      26.638  31.536 107.360  0.00  0.00     0.134 C 
ATOM    123  O1S IDS d 504      25.317  34.436 106.799  0.00  0.00    -0.572 OA
ATOM    124  O2S IDS d 504      25.333  34.562 109.153  0.00  0.00    -0.572 OA
ATOM    125  C3  IDS d 504      25.770  30.735 106.314  0.00  0.00     0.094 C 
ATOM    126  H   IDS d 504      26.090  29.556 104.768  0.00  0.00     0.210 HD
ATOM    127  H   IDS d 504      27.607  31.205 109.231  0.00  0.00     0.133 H 
ATOM    128  H   IDS d 504      26.518  28.411 107.300  0.00  0.00     0.104 H 
ATOM    129  H   IDS d 504      24.452  29.051 106.255  0.00  0.00     0.092 H 
ATOM    130  H   IDS d 504      27.408  32.025 106.800  0.00  0.00     0.097 H 
ATOM    131  H   IDS d 504      25.150  31.447 105.810  0.00  0.00     0.091 H 
ENDROOT
TORSDOF 40
ENDMDL
MODEL 18
REMARK VINA RESULT:     -10.4      2.966      4.337
REMARK  0 active torsions:
REMARK  status: ('A' for Active; 'I' for Inactive)
REMARK       I    between atoms: C6_1  and  C5_82 
REMARK       I    between atoms: O2_4  and  C2_65 
REMARK       I    between atoms: O2_4  and  S_6 
REMARK       I    between atoms: S2_5  and  O6_13 
REMARK       I    between atoms: C6_7  and  C5_66 
REMARK       I    between atoms: C6_7  and  O6_11 
REMARK       I    between atoms: S_8  and  O2_37 
REMARK       I    between atoms: O6_11  and  S2_34 
REMARK       I    between atoms: O6_13  and  C6_16 
REMARK       I    between atoms: C6_16  and  C5_76 
REMARK       I    between atoms: O2S_17  and  S1_21 
REMARK       I    between atoms: O4_18  and  C4_33 
REMARK       I    between atoms: C4_19  and  O4_25 
REMARK       I    between atoms: O3_20  and  C3_57 
REMARK       I    between atoms: S1_21  and  N_56 
REMARK       I    between atoms: S1_21  and  O1S_55 
REMARK       I    between atoms: S1_21  and  O3S_68 
REMARK       I    between atoms: O3_24  and  C3_80 
REMARK       I    between atoms: O4_25  and  C1_53 
REMARK       I    between atoms: S1_26  and  N_59 
REMARK       I    between atoms: S1_26  and  O1S_42 
REMARK       I    between atoms: S1_26  and  O2S_29 
REMARK       I    between atoms: S1_26  and  O3S_87 
REMARK       I    between atoms: S_30  and  O2_54 
REMARK       I    between atoms: C3_31  and  O3_61 
REMARK       I    between atoms: O4_36  and  C4_70 
REMARK       I    between atoms: O4_36  and  C1_52 
REMARK       I    between atoms: O2_37  and  C2_45 
REMARK       I    between atoms: C4_38  and  O4_71 
REMARK       I    between atoms: C1_39  and  O1_51 
REMARK       I    between atoms: C1_40  and  O4_71 
REMARK       I    between atoms: C6_46  and  C5_84 
REMARK       I    between atoms: C6_47  and  C5_64 
REMARK       I    between atoms: C1_48  and  O4_77 
REMARK       I    between atoms: O3_50  and  C3_86 
REMARK       I    between atoms: O2_54  and  C2_79 
REMARK       I    between atoms: N_56  and  C2_67 
REMARK       I    between atoms: C2_58  and  N_59 
REMARK       I    between atoms: C3_62  and  O3_81 
REMARK       I    between atoms: C4_69  and  O4_77 
ROOT
ATOM      1  C6  IDS d 506      20.340  16.528 109.599  0.00  0.00     0.206 C 
ATOM      2  O62 IDS d 506      20.582  15.441 109.103  0.00  0.00    -0.646 OA
ATOM      3  S   IDS d 506      16.586  20.815 106.976  0.00  0.00     0.252 S 
ATOM      4  O1S IDS d 506      16.786  20.121 105.741  0.00  0.00    -0.572 OA
ATOM      5  O3S IDS d 506      16.796  22.242 106.869  0.00  0.00    -0.572 OA
ATOM      6  O4  IDS d 506      18.123  17.220 107.699  0.00  0.00    -0.390 OA
ATOM      7  O3  IDS d 506      20.551  19.229 105.997  0.00  0.00    -0.390 OA
ATOM      8  C4  IDS d 506      19.439  17.650 107.440  0.00  0.00     0.097 C 
ATOM      9  O2  IDS d 506      17.735  20.286 107.937  0.00  0.00    -0.244 OA
ATOM     10  C2  IDS d 506      19.124  20.213 107.684  0.00  0.00     0.134 C 
ATOM     11  C1  IDS d 506      19.896  20.081 109.005  0.00  0.00     0.161 C 
ATOM     12  O2S IDS d 506      15.321  20.471 107.561  0.00  0.00    -0.572 OA
ATOM     13  O5  IDS d 506      19.658  18.800 109.531  0.00  0.00    -0.340 OA
ATOM     14  O61 IDS d 506      20.219  16.590 110.815  0.00  0.00    -0.646 OA
ATOM     15  C3  IDS d 506      19.343  19.013 106.722  0.00  0.00     0.094 C 
ATOM     16  C5  IDS d 506      20.208  17.785 108.759  0.00  0.00     0.152 C 
ATOM     17  H   IDS d 506      17.640  17.136 106.862  0.00  0.00     0.210 HD
ATOM     18  H   IDS d 506      20.702  18.487 105.391  0.00  0.00     0.210 HD
ATOM     19  H   IDS d 506      19.963  16.945 106.828  0.00  0.00     0.091 H 
ATOM     20  H   IDS d 506      19.498  21.102 107.221  0.00  0.00     0.097 H 
ATOM     21  H   IDS d 506      20.941  20.237 108.839  0.00  0.00     0.133 H 
ATOM     22  H   IDS d 506      18.488  18.967 106.081  0.00  0.00     0.091 H 
ATOM     23  H   IDS d 506      21.208  18.013 108.452  0.00  0.00     0.104 H 
ATOM     24  O62 IDS d 502      30.870  28.523 106.521  0.00  0.00    -0.646 OA
ATOM     25  O2  IDS d 502      27.979  31.562 110.305  0.00  0.00    -0.244 OA
ATOM     26  S   IDS d 502      26.538  32.147 110.476  0.00  0.00     0.252 S 
ATOM     27  O3  IDS d 502      29.949  33.009 107.683  0.00  0.00    -0.390 OA
ATOM     28  O2S IDS d 502      25.642  31.017 110.404  0.00  0.00    -0.572 OA
ATOM     29  C4  IDS d 502      29.099  30.758 107.679  0.00  0.00     0.103 C 
ATOM     30  C1  IDS d 502      30.344  31.428 110.207  0.00  0.00     0.158 C 
ATOM     31  O61 IDS d 502      30.654  27.768 108.440  0.00  0.00    -0.646 OA
ATOM     32  C6  IDS d 502      30.652  28.722 107.700  0.00  0.00     0.206 C 
ATOM     33  O1  IDS d 502      31.471  32.198 109.882  0.00  0.00    -0.368 OA
ATOM     34  C3  IDS d 502      28.942  32.185 108.238  0.00  0.00     0.094 C 
ATOM     35  O3S IDS d 502      26.555  32.795 111.762  0.00  0.00    -0.572 OA
ATOM     36  O5  IDS d 502      30.383  30.145 109.634  0.00  0.00    -0.340 OA
ATOM     37  C2  IDS d 502      29.105  32.197 109.761  0.00  0.00     0.134 C 
ATOM     38  O4  IDS d 502      27.995  29.978 108.061  0.00  0.00    -0.348 OA
ATOM     39  O1S IDS d 502      26.327  33.080 109.404  0.00  0.00    -0.572 OA
ATOM     40  C5  IDS d 502      30.379  30.126 108.221  0.00  0.00     0.152 C 
ATOM     41  H   IDS d 502      29.865  33.015 106.716  0.00  0.00     0.210 HD
ATOM     42  H   IDS d 502      29.152  30.803 106.611  0.00  0.00     0.092 H 
ATOM     43  H   IDS d 502      30.323  31.268 111.264  0.00  0.00     0.133 H 
ATOM     44  H   IDS d 502      31.495  32.346 108.923  0.00  0.00     0.212 HD
ATOM     45  H   IDS d 502      27.965  32.541 107.985  0.00  0.00     0.091 H 
ATOM     46  H   IDS d 502      29.206  33.210 110.090  0.00  0.00     0.097 H 
ATOM     47  H   IDS d 502      31.181  30.731 107.852  0.00  0.00     0.104 H 
ATOM     48  S2  SGN d 505      16.685  23.580 112.238  0.00  0.00     0.251 S 
ATOM     49  O6  SGN d 505      18.073  23.089 111.854  0.00  0.00    -0.254 OA
ATOM     50  O5S SGN d 505      16.855  24.160 113.547  0.00  0.00    -0.572 OA
ATOM     51  C6  SGN d 505      18.874  23.558 110.824  0.00  0.00     0.067 C 
ATOM     52  O2S SGN d 505      23.102  19.954 115.092  0.00  0.00    -0.296 OA
ATOM     53  S1  SGN d 505      23.855  21.048 114.525  0.00  0.00     0.156 S 
ATOM     54  O6S SGN d 505      16.292  24.564 111.238  0.00  0.00    -0.572 OA
ATOM     55  O4  SGN d 505      19.406  21.015 109.906  0.00  0.00    -0.348 OA
ATOM     56  O5  SGN d 505      20.713  23.388 112.215  0.00  0.00    -0.349 OA
ATOM     57  O4S SGN d 505      15.857  22.395 112.211  0.00  0.00    -0.572 OA
ATOM     58  C1  SGN d 505      22.028  22.983 112.473  0.00  0.00     0.150 C 
ATOM     59  O1S SGN d 505      23.462  22.331 115.070  0.00  0.00    -0.296 OA
ATOM     60  N   SGN d 505      23.459  21.047 112.897  0.00  0.00    -0.210 NA
ATOM     61  C3  SGN d 505      21.539  20.855 111.223  0.00  0.00     0.083 C 
ATOM     62  C2  SGN d 505      22.089  21.469 112.525  0.00  0.00     0.081 C 
ATOM     63  O3S SGN d 505      25.253  20.814 114.612  0.00  0.00    -0.296 OA
ATOM     64  C4  SGN d 505      20.089  21.400 111.081  0.00  0.00     0.095 C 
ATOM     65  C5  SGN d 505      20.196  22.889 111.020  0.00  0.00     0.091 C 
ATOM     66  O3  SGN d 505      21.529  19.440 111.361  0.00  0.00    -0.391 OA
ATOM     67  H   SGN d 505      18.979  24.622 110.884  0.00  0.00     0.080 H 
ATOM     68  H   SGN d 505      18.456  23.343 109.863  0.00  0.00     0.080 H 
ATOM     69  H   SGN d 505      22.153  20.143 115.018  0.00  0.00     0.231 HD
ATOM     70  H   SGN d 505      22.342  23.367 113.421  0.00  0.00     0.131 H 
ATOM     71  H   SGN d 505      22.501  22.437 114.985  0.00  0.00     0.231 HD
ATOM     72  H   SGN d 505      23.590  20.096 112.551  0.00  0.00     0.140 HD
ATOM     73  H   SGN d 505      22.128  21.104 110.365  0.00  0.00     0.089 H 
ATOM     74  H   SGN d 505      21.446  21.086 113.290  0.00  0.00     0.076 H 
ATOM     75  H   SGN d 505      25.459  19.945 114.233  0.00  0.00     0.231 HD
ATOM     76  H   SGN d 505      19.538  21.004 111.908  0.00  0.00     0.091 H 
ATOM     77  H   SGN d 505      20.833  23.097 110.186  0.00  0.00     0.090 H 
ATOM     78  H   SGN d 505      21.000  19.195 112.136  0.00  0.00     0.210 HD
ATOM     79  C6  SGN d 503      28.332  25.905 108.449  0.00  0.00     0.067 C 
ATOM     80  O6  SGN d 503      27.892  25.148 107.343  0.00  0.00    -0.254 OA
ATOM     81  C4  SGN d 503      26.067  27.095 108.496  0.00  0.00     0.095 C 
ATOM     82  O5  SGN d 503      27.994  27.814 107.223  0.00  0.00    -0.349 OA
ATOM     83  O4  SGN d 503      25.722  26.597 109.747  0.00  0.00    -0.348 OA
ATOM     84  S1  SGN d 503      25.262  30.968 105.341  0.00  0.00     0.156 S 
ATOM     85  O4S SGN d 503      29.611  23.462 107.496  0.00  0.00    -0.572 OA
ATOM     86  O2S SGN d 503      24.497  29.964 104.602  0.00  0.00    -0.296 OA
ATOM     87  C3  SGN d 503      25.419  28.467 108.326  0.00  0.00     0.083 C 
ATOM     88  S2  SGN d 503      28.738  24.102 106.571  0.00  0.00     0.251 S 
ATOM     89  O5S SGN d 503      27.804  23.160 105.962  0.00  0.00    -0.572 OA
ATOM     90  C1  SGN d 503      27.506  29.123 107.063  0.00  0.00     0.150 C 
ATOM     91  O1S SGN d 503      26.601  31.134 104.808  0.00  0.00    -0.296 OA
ATOM     92  O6S SGN d 503      29.484  24.879 105.660  0.00  0.00    -0.572 OA
ATOM     93  C2  SGN d 503      25.971  29.103 107.063  0.00  0.00     0.081 C 
ATOM     94  N   SGN d 503      25.444  30.442 106.870  0.00  0.00    -0.210 NA
ATOM     95  O3  SGN d 503      24.022  28.282 108.201  0.00  0.00    -0.391 OA
ATOM     96  C5  SGN d 503      27.599  27.219 108.420  0.00  0.00     0.091 C 
ATOM     97  O3S SGN d 503      24.571  32.227 105.503  0.00  0.00    -0.296 OA
ATOM     98  H   SGN d 503      28.112  25.385 109.358  0.00  0.00     0.080 H 
ATOM     99  H   SGN d 503      29.389  26.063 108.401  0.00  0.00     0.080 H 
ATOM    100  H   SGN d 503      25.727  26.443 107.719  0.00  0.00     0.091 H 
ATOM    101  H   SGN d 503      25.019  29.149 104.531  0.00  0.00     0.231 HD
ATOM    102  H   SGN d 503      25.627  29.100 109.163  0.00  0.00     0.089 H 
ATOM    103  H   SGN d 503      27.853  29.505 106.125  0.00  0.00     0.131 H 
ATOM    104  H   SGN d 503      27.022  30.265 104.717  0.00  0.00     0.231 HD
ATOM    105  H   SGN d 503      25.650  28.496 106.242  0.00  0.00     0.076 H 
ATOM    106  H   SGN d 503      24.528  30.476 107.316  0.00  0.00     0.140 HD
ATOM    107  H   SGN d 503      23.838  27.708 107.441  0.00  0.00     0.210 HD
ATOM    108  H   SGN d 503      27.846  27.797 109.286  0.00  0.00     0.090 H 
ATOM    109  H   SGN d 503      25.133  32.842 106.000  0.00  0.00     0.231 HD
ATOM    110  O61 IDS d 504      21.310  24.851 108.864  0.00  0.00    -0.646 OA
ATOM    111  O62 IDS d 504      20.822  26.472 110.116  0.00  0.00    -0.646 OA
ATOM    112  O3S IDS d 504      28.092  23.161 110.903  0.00  0.00    -0.572 OA
ATOM    113  S   IDS d 504      26.990  22.366 111.300  0.00  0.00     0.252 S 
ATOM    114  C6  IDS d 504      21.653  25.648 109.728  0.00  0.00     0.206 C 
ATOM    115  O3  IDS d 504      24.761  26.405 112.561  0.00  0.00    -0.390 OA
ATOM    116  C1  IDS d 504      25.355  25.247 109.742  0.00  0.00     0.161 C 
ATOM    117  O2  IDS d 504      25.770  23.243 110.966  0.00  0.00    -0.244 OA
ATOM    118  C5  IDS d 504      23.069  25.605 110.326  0.00  0.00     0.152 C 
ATOM    119  C4  IDS d 504      23.185  24.881 111.666  0.00  0.00     0.103 C 
ATOM    120  O5  IDS d 504      23.978  25.056 109.400  0.00  0.00    -0.340 OA
ATOM    121  O4  IDS d 504      22.897  23.500 111.502  0.00  0.00    -0.348 OA
ATOM    122  C2  IDS d 504      25.677  24.660 111.101  0.00  0.00     0.134 C 
ATOM    123  O1S IDS d 504      26.964  22.160 112.702  0.00  0.00    -0.572 OA
ATOM    124  O2S IDS d 504      26.847  21.133 110.582  0.00  0.00    -0.572 OA
ATOM    125  C3  IDS d 504      24.603  25.041 112.192  0.00  0.00     0.094 C 
ATOM    126  H   IDS d 504      24.100  26.637 113.231  0.00  0.00     0.210 HD
ATOM    127  H   IDS d 504      25.913  24.740 108.982  0.00  0.00     0.133 H 
ATOM    128  H   IDS d 504      23.312  26.626 110.532  0.00  0.00     0.104 H 
ATOM    129  H   IDS d 504      22.486  25.302 112.358  0.00  0.00     0.092 H 
ATOM    130  H   IDS d 504      26.607  25.069 111.438  0.00  0.00     0.097 H 
ATOM    131  H   IDS d 504      24.753  24.385 113.024  0.00  0.00     0.091 H 
ENDROOT
TORSDOF 40
ENDMDL
MODEL 19
REMARK VINA RESULT:     -10.4      4.120      7.919
REMARK  0 active torsions:
REMARK  status: ('A' for Active; 'I' for Inactive)
REMARK       I    between atoms: C6_1  and  C5_82 
REMARK       I    between atoms: O2_4  and  C2_65 
REMARK       I    between atoms: O2_4  and  S_6 
REMARK       I    between atoms: S2_5  and  O6_13 
REMARK       I    between atoms: C6_7  and  C5_66 
REMARK       I    between atoms: C6_7  and  O6_11 
REMARK       I    between atoms: S_8  and  O2_37 
REMARK       I    between atoms: O6_11  and  S2_34 
REMARK       I    between atoms: O6_13  and  C6_16 
REMARK       I    between atoms: C6_16  and  C5_76 
REMARK       I    between atoms: O2S_17  and  S1_21 
REMARK       I    between atoms: O4_18  and  C4_33 
REMARK       I    between atoms: C4_19  and  O4_25 
REMARK       I    between atoms: O3_20  and  C3_57 
REMARK       I    between atoms: S1_21  and  N_56 
REMARK       I    between atoms: S1_21  and  O1S_55 
REMARK       I    between atoms: S1_21  and  O3S_68 
REMARK       I    between atoms: O3_24  and  C3_80 
REMARK       I    between atoms: O4_25  and  C1_53 
REMARK       I    between atoms: S1_26  and  N_59 
REMARK       I    between atoms: S1_26  and  O1S_42 
REMARK       I    between atoms: S1_26  and  O2S_29 
REMARK       I    between atoms: S1_26  and  O3S_87 
REMARK       I    between atoms: S_30  and  O2_54 
REMARK       I    between atoms: C3_31  and  O3_61 
REMARK       I    between atoms: O4_36  and  C4_70 
REMARK       I    between atoms: O4_36  and  C1_52 
REMARK       I    between atoms: O2_37  and  C2_45 
REMARK       I    between atoms: C4_38  and  O4_71 
REMARK       I    between atoms: C1_39  and  O1_51 
REMARK       I    between atoms: C1_40  and  O4_71 
REMARK       I    between atoms: C6_46  and  C5_84 
REMARK       I    between atoms: C6_47  and  C5_64 
REMARK       I    between atoms: C1_48  and  O4_77 
REMARK       I    between atoms: O3_50  and  C3_86 
REMARK       I    between atoms: O2_54  and  C2_79 
REMARK       I    between atoms: N_56  and  C2_67 
REMARK       I    between atoms: C2_58  and  N_59 
REMARK       I    between atoms: C3_62  and  O3_81 
REMARK       I    between atoms: C4_69  and  O4_77 
ROOT
ATOM      1  C6  IDS d 506      15.832  23.985 112.121  0.00  0.00     0.206 C 
ATOM      2  O62 IDS d 506      15.335  23.355 113.039  0.00  0.00    -0.646 OA
ATOM      3  S   IDS d 506      16.226  21.865 106.231  0.00  0.00     0.252 S 
ATOM      4  O1S IDS d 506      16.042  20.554 106.773  0.00  0.00    -0.572 OA
ATOM      5  O3S IDS d 506      17.348  21.954 105.322  0.00  0.00    -0.572 OA
ATOM      6  O4  IDS d 506      14.871  22.141 109.959  0.00  0.00    -0.390 OA
ATOM      7  O3  IDS d 506      18.184  20.781 109.997  0.00  0.00    -0.390 OA
ATOM      8  C4  IDS d 506      16.154  21.974 110.515  0.00  0.00     0.097 C 
ATOM      9  O2  IDS d 506      16.612  22.775 107.474  0.00  0.00    -0.244 OA
ATOM     10  C2  IDS d 506      17.612  22.549 108.449  0.00  0.00     0.134 C 
ATOM     11  C1  IDS d 506      17.948  23.859 109.175  0.00  0.00     0.161 C 
ATOM     12  O2S IDS d 506      15.002  22.368 105.672  0.00  0.00    -0.572 OA
ATOM     13  O5  IDS d 506      16.858  24.203 109.993  0.00  0.00    -0.340 OA
ATOM     14  O61 IDS d 506      15.653  25.195 112.093  0.00  0.00    -0.646 OA
ATOM     15  C3  IDS d 506      17.073  21.441 109.396  0.00  0.00     0.094 C 
ATOM     16  C5  IDS d 506      16.667  23.317 111.045  0.00  0.00     0.152 C 
ATOM     17  H   IDS d 506      14.550  21.288 109.624  0.00  0.00     0.210 HD
ATOM     18  H   IDS d 506      17.863  20.085 110.593  0.00  0.00     0.210 HD
ATOM     19  H   IDS d 506      16.133  21.286 111.335  0.00  0.00     0.091 H 
ATOM     20  H   IDS d 506      18.532  22.217 108.014  0.00  0.00     0.097 H 
ATOM     21  H   IDS d 506      18.838  23.740 109.756  0.00  0.00     0.133 H 
ATOM     22  H   IDS d 506      16.483  20.778 108.797  0.00  0.00     0.091 H 
ATOM     23  H   IDS d 506      17.587  23.067 111.531  0.00  0.00     0.104 H 
ATOM     24  O62 IDS d 502      31.933  22.789 110.242  0.00  0.00    -0.646 OA
ATOM     25  O2  IDS d 502      31.434  26.872 106.369  0.00  0.00    -0.244 OA
ATOM     26  S   IDS d 502      30.749  27.084 104.979  0.00  0.00     0.252 S 
ATOM     27  O3  IDS d 502      34.134  24.515 106.434  0.00  0.00    -0.390 OA
ATOM     28  O2S IDS d 502      29.341  26.841 105.192  0.00  0.00    -0.572 OA
ATOM     29  C4  IDS d 502      32.003  24.190 107.502  0.00  0.00     0.103 C 
ATOM     30  C1  IDS d 502      33.093  26.815 108.062  0.00  0.00     0.158 C 
ATOM     31  O61 IDS d 502      31.062  24.585 110.803  0.00  0.00    -0.646 OA
ATOM     32  C6  IDS d 502      31.778  23.979 110.044  0.00  0.00     0.206 C 
ATOM     33  O1  IDS d 502      34.472  26.623 108.237  0.00  0.00    -0.368 OA
ATOM     34  C3  IDS d 502      32.782  24.931 106.399  0.00  0.00     0.094 C 
ATOM     35  O3S IDS d 502      31.056  28.445 104.622  0.00  0.00    -0.572 OA
ATOM     36  O5  IDS d 502      32.324  26.078 108.980  0.00  0.00    -0.340 OA
ATOM     37  C2  IDS d 502      32.746  26.445 106.624  0.00  0.00     0.134 C 
ATOM     38  O4  IDS d 502      30.628  24.438 107.355  0.00  0.00    -0.348 OA
ATOM     39  O1S IDS d 502      31.334  26.141 104.067  0.00  0.00    -0.572 OA
ATOM     40  C5  IDS d 502      32.462  24.675 108.876  0.00  0.00     0.152 C 
ATOM     41  H   IDS d 502      34.181  23.556 106.293  0.00  0.00     0.210 HD
ATOM     42  H   IDS d 502      32.188  23.140 107.418  0.00  0.00     0.092 H 
ATOM     43  H   IDS d 502      32.857  27.841 108.251  0.00  0.00     0.133 H 
ATOM     44  H   IDS d 502      34.692  25.693 108.067  0.00  0.00     0.212 HD
ATOM     45  H   IDS d 502      32.330  24.703 105.456  0.00  0.00     0.091 H 
ATOM     46  H   IDS d 502      33.462  26.908 105.979  0.00  0.00     0.097 H 
ATOM     47  H   IDS d 502      33.496  24.409 108.947  0.00  0.00     0.104 H 
ATOM     48  S2  SGN d 505      17.581  27.449 104.706  0.00  0.00     0.251 S 
ATOM     49  O6  SGN d 505      18.315  27.037 105.974  0.00  0.00    -0.254 OA
ATOM     50  O5S SGN d 505      17.953  28.827 104.503  0.00  0.00    -0.572 OA
ATOM     51  C6  SGN d 505      19.329  26.098 106.090  0.00  0.00     0.067 C 
ATOM     52  O2S SGN d 505      19.561  29.951 111.937  0.00  0.00    -0.296 OA
ATOM     53  S1  SGN d 505      20.909  29.553 111.601  0.00  0.00     0.156 S 
ATOM     54  O6S SGN d 505      18.059  26.580 103.639  0.00  0.00    -0.572 OA
ATOM     55  O4  SGN d 505      18.116  24.863 108.234  0.00  0.00    -0.348 OA
ATOM     56  O5  SGN d 505      20.416  27.499 107.574  0.00  0.00    -0.349 OA
ATOM     57  O4S SGN d 505      16.182  27.244 105.008  0.00  0.00    -0.572 OA
ATOM     58  C1  SGN d 505      21.083  27.733 108.782  0.00  0.00     0.150 C 
ATOM     59  O1S SGN d 505      21.419  30.254 110.442  0.00  0.00    -0.296 OA
ATOM     60  N   SGN d 505      20.793  27.930 111.201  0.00  0.00    -0.210 NA
ATOM     61  C3  SGN d 505      19.434  26.200 109.904  0.00  0.00     0.083 C 
ATOM     62  C2  SGN d 505      20.108  27.585 109.934  0.00  0.00     0.081 C 
ATOM     63  O3S SGN d 505      21.769  29.642 112.727  0.00  0.00    -0.296 OA
ATOM     64  C4  SGN d 505      18.748  26.095 108.511  0.00  0.00     0.095 C 
ATOM     65  C5  SGN d 505      19.831  26.236 107.491  0.00  0.00     0.091 C 
ATOM     66  O3  SGN d 505      18.464  26.148 110.943  0.00  0.00    -0.391 OA
ATOM     67  H   SGN d 505      20.111  26.302 105.389  0.00  0.00     0.080 H 
ATOM     68  H   SGN d 505      18.981  25.107 105.885  0.00  0.00     0.080 H 
ATOM     69  H   SGN d 505      18.998  29.880 111.150  0.00  0.00     0.231 HD
ATOM     70  H   SGN d 505      21.468  28.731 108.792  0.00  0.00     0.131 H 
ATOM     71  H   SGN d 505      20.793  30.161 109.706  0.00  0.00     0.231 HD
ATOM     72  H   SGN d 505      20.290  27.464 111.957  0.00  0.00     0.140 HD
ATOM     73  H   SGN d 505      20.126  25.396 110.051  0.00  0.00     0.089 H 
ATOM     74  H   SGN d 505      19.297  28.276 109.840  0.00  0.00     0.076 H 
ATOM     75  H   SGN d 505      21.380  29.157 113.471  0.00  0.00     0.231 HD
ATOM     76  H   SGN d 505      17.989  26.849 108.494  0.00  0.00     0.091 H 
ATOM     77  H   SGN d 505      20.528  25.453 107.703  0.00  0.00     0.090 H 
ATOM     78  H   SGN d 505      17.827  26.870 110.827  0.00  0.00     0.210 HD
ATOM     79  C6  SGN d 503      28.107  24.289 110.591  0.00  0.00     0.067 C 
ATOM     80  O6  SGN d 503      27.396  23.082 110.756  0.00  0.00    -0.254 OA
ATOM     81  C4  SGN d 503      27.234  24.439 108.191  0.00  0.00     0.095 C 
ATOM     82  O5  SGN d 503      29.269  23.320 108.867  0.00  0.00    -0.349 OA
ATOM     83  O4  SGN d 503      26.512  25.604 108.423  0.00  0.00    -0.348 OA
ATOM     84  S1  SGN d 503      29.576  21.808 104.558  0.00  0.00     0.156 S 
ATOM     85  O4S SGN d 503      27.514  23.051 113.166  0.00  0.00    -0.572 OA
ATOM     86  O2S SGN d 503      28.422  20.924 104.713  0.00  0.00    -0.296 OA
ATOM     87  C3  SGN d 503      27.695  24.437 106.735  0.00  0.00     0.083 C 
ATOM     88  S2  SGN d 503      27.401  22.198 112.032  0.00  0.00     0.251 S 
ATOM     89  O5S SGN d 503      26.150  21.447 112.037  0.00  0.00    -0.572 OA
ATOM     90  C1  SGN d 503      29.805  23.324 107.567  0.00  0.00     0.150 C 
ATOM     91  O1S SGN d 503      30.729  21.335 105.301  0.00  0.00    -0.296 OA
ATOM     92  O6S SGN d 503      28.568  21.417 111.895  0.00  0.00    -0.572 OA
ATOM     93  C2  SGN d 503      28.662  23.283 106.542  0.00  0.00     0.081 C 
ATOM     94  N   SGN d 503      29.193  23.258 105.190  0.00  0.00    -0.210 NA
ATOM     95  O3  SGN d 503      26.558  24.255 105.914  0.00  0.00    -0.391 OA
ATOM     96  C5  SGN d 503      28.451  24.417 109.132  0.00  0.00     0.091 C 
ATOM     97  O3S SGN d 503      29.894  22.120 103.183  0.00  0.00    -0.296 OA
ATOM     98  H   SGN d 503      27.499  25.115 110.897  0.00  0.00     0.080 H 
ATOM     99  H   SGN d 503      28.995  24.288 111.189  0.00  0.00     0.080 H 
ATOM    100  H   SGN d 503      26.632  23.574 108.374  0.00  0.00     0.091 H 
ATOM    101  H   SGN d 503      28.267  20.757 105.656  0.00  0.00     0.231 HD
ATOM    102  H   SGN d 503      28.180  25.356 106.481  0.00  0.00     0.089 H 
ATOM    103  H   SGN d 503      30.416  22.454 107.447  0.00  0.00     0.131 H 
ATOM    104  H   SGN d 503      30.467  21.139 106.214  0.00  0.00     0.231 HD
ATOM    105  H   SGN d 503      28.109  22.382 106.701  0.00  0.00     0.076 H 
ATOM    106  H   SGN d 503      28.494  23.682 104.581  0.00  0.00     0.140 HD
ATOM    107  H   SGN d 503      26.120  23.421 106.146  0.00  0.00     0.210 HD
ATOM    108  H   SGN d 503      28.926  25.358 108.948  0.00  0.00     0.090 H 
ATOM    109  H   SGN d 503      30.665  22.707 103.154  0.00  0.00     0.231 HD
ATOM    110  O61 IDS d 504      22.196  24.388 106.636  0.00  0.00    -0.646 OA
ATOM    111  O62 IDS d 504      22.787  25.832 105.223  0.00  0.00    -0.646 OA
ATOM    112  O3S IDS d 504      25.828  26.350 112.634  0.00  0.00    -0.572 OA
ATOM    113  S   IDS d 504      24.443  26.610 112.501  0.00  0.00     0.252 S 
ATOM    114  C6  IDS d 504      22.888  25.359 106.357  0.00  0.00     0.206 C 
ATOM    115  O3  IDS d 504      25.373  28.342 108.141  0.00  0.00    -0.390 OA
ATOM    116  C1  IDS d 504      25.339  25.409 109.160  0.00  0.00     0.161 C 
ATOM    117  O2  IDS d 504      24.170  26.366 111.006  0.00  0.00    -0.244 OA
ATOM    118  C5  IDS d 504      23.835  25.980 107.397  0.00  0.00     0.152 C 
ATOM    119  C4  IDS d 504      23.291  27.214 108.113  0.00  0.00     0.103 C 
ATOM    120  O5  IDS d 504      24.236  25.012 108.339  0.00  0.00    -0.340 OA
ATOM    121  O4  IDS d 504      22.173  26.861 108.914  0.00  0.00    -0.348 OA
ATOM    122  C2  IDS d 504      25.036  26.686 109.918  0.00  0.00     0.134 C 
ATOM    123  O1S IDS d 504      24.134  27.971 112.747  0.00  0.00    -0.572 OA
ATOM    124  O2S IDS d 504      23.590  25.731 113.246  0.00  0.00    -0.572 OA
ATOM    125  C3  IDS d 504      24.383  27.791 109.001  0.00  0.00     0.094 C 
ATOM    126  H   IDS d 504      24.970  29.021 107.577  0.00  0.00     0.210 HD
ATOM    127  H   IDS d 504      25.491  24.603 109.847  0.00  0.00     0.133 H 
ATOM    128  H   IDS d 504      24.675  26.326 106.832  0.00  0.00     0.104 H 
ATOM    129  H   IDS d 504      22.984  27.939 107.388  0.00  0.00     0.092 H 
ATOM    130  H   IDS d 504      25.956  27.097 110.277  0.00  0.00     0.097 H 
ATOM    131  H   IDS d 504      23.965  28.532 109.649  0.00  0.00     0.091 H 
ENDROOT
TORSDOF 40
ENDMDL
MODEL 20
REMARK VINA RESULT:     -10.4      4.912      9.678
REMARK  0 active torsions:
REMARK  status: ('A' for Active; 'I' for Inactive)
REMARK       I    between atoms: C6_1  and  C5_82 
REMARK       I    between atoms: O2_4  and  C2_65 
REMARK       I    between atoms: O2_4  and  S_6 
REMARK       I    between atoms: S2_5  and  O6_13 
REMARK       I    between atoms: C6_7  and  C5_66 
REMARK       I    between atoms: C6_7  and  O6_11 
REMARK       I    between atoms: S_8  and  O2_37 
REMARK       I    between atoms: O6_11  and  S2_34 
REMARK       I    between atoms: O6_13  and  C6_16 
REMARK       I    between atoms: C6_16  and  C5_76 
REMARK       I    between atoms: O2S_17  and  S1_21 
REMARK       I    between atoms: O4_18  and  C4_33 
REMARK       I    between atoms: C4_19  and  O4_25 
REMARK       I    between atoms: O3_20  and  C3_57 
REMARK       I    between atoms: S1_21  and  N_56 
REMARK       I    between atoms: S1_21  and  O1S_55 
REMARK       I    between atoms: S1_21  and  O3S_68 
REMARK       I    between atoms: O3_24  and  C3_80 
REMARK       I    between atoms: O4_25  and  C1_53 
REMARK       I    between atoms: S1_26  and  N_59 
REMARK       I    between atoms: S1_26  and  O1S_42 
REMARK       I    between atoms: S1_26  and  O2S_29 
REMARK       I    between atoms: S1_26  and  O3S_87 
REMARK       I    between atoms: S_30  and  O2_54 
REMARK       I    between atoms: C3_31  and  O3_61 
REMARK       I    between atoms: O4_36  and  C4_70 
REMARK       I    between atoms: O4_36  and  C1_52 
REMARK       I    between atoms: O2_37  and  C2_45 
REMARK       I    between atoms: C4_38  and  O4_71 
REMARK       I    between atoms: C1_39  and  O1_51 
REMARK       I    between atoms: C1_40  and  O4_71 
REMARK       I    between atoms: C6_46  and  C5_84 
REMARK       I    between atoms: C6_47  and  C5_64 
REMARK       I    between atoms: C1_48  and  O4_77 
REMARK       I    between atoms: O3_50  and  C3_86 
REMARK       I    between atoms: O2_54  and  C2_79 
REMARK       I    between atoms: N_56  and  C2_67 
REMARK       I    between atoms: C2_58  and  N_59 
REMARK       I    between atoms: C3_62  and  O3_81 
REMARK       I    between atoms: C4_69  and  O4_77 
ROOT
ATOM      1  C6  IDS d 506      14.936  29.370 110.205  0.00  0.00     0.206 C 
ATOM      2  O62 IDS d 506      13.980  28.958 110.839  0.00  0.00    -0.646 OA
ATOM      3  S   IDS d 506      15.916  28.117 104.137  0.00  0.00     0.252 S 
ATOM      4  O1S IDS d 506      15.020  27.013 104.301  0.00  0.00    -0.572 OA
ATOM      5  O3S IDS d 506      17.157  27.752 103.489  0.00  0.00    -0.572 OA
ATOM      6  O4  IDS d 506      13.875  28.546 107.522  0.00  0.00    -0.390 OA
ATOM      7  O3  IDS d 506      16.065  25.726 107.806  0.00  0.00    -0.390 OA
ATOM      8  C4  IDS d 506      14.738  27.692 108.237  0.00  0.00     0.097 C 
ATOM      9  O2  IDS d 506      16.317  28.544 105.614  0.00  0.00    -0.244 OA
ATOM     10  C2  IDS d 506      16.799  27.727 106.662  0.00  0.00     0.134 C 
ATOM     11  C1  IDS d 506      17.479  28.590 107.735  0.00  0.00     0.161 C 
ATOM     12  O2S IDS d 506      15.256  29.229 103.514  0.00  0.00    -0.572 OA
ATOM     13  O5  IDS d 506      16.486  29.322 108.409  0.00  0.00    -0.340 OA
ATOM     14  O61 IDS d 506      15.338  30.501 110.443  0.00  0.00    -0.646 OA
ATOM     15  C3  IDS d 506      15.583  26.922 107.200  0.00  0.00     0.094 C 
ATOM     16  C5  IDS d 506      15.636  28.520 109.161  0.00  0.00     0.152 C 
ATOM     17  H   IDS d 506      13.308  28.017 106.939  0.00  0.00     0.210 HD
ATOM     18  H   IDS d 506      15.316  25.212 108.147  0.00  0.00     0.210 HD
ATOM     19  H   IDS d 506      14.187  27.007 108.847  0.00  0.00     0.091 H 
ATOM     20  H   IDS d 506      17.549  27.040 106.328  0.00  0.00     0.097 H 
ATOM     21  H   IDS d 506      18.024  27.970 108.416  0.00  0.00     0.133 H 
ATOM     22  H   IDS d 506      14.945  26.725 106.363  0.00  0.00     0.091 H 
ATOM     23  H   IDS d 506      16.174  27.786 109.724  0.00  0.00     0.104 H 
ATOM     24  O62 IDS d 502      28.587  20.576 110.938  0.00  0.00    -0.646 OA
ATOM     25  O2  IDS d 502      31.062  24.827 108.159  0.00  0.00    -0.244 OA
ATOM     26  S   IDS d 502      30.953  25.529 106.766  0.00  0.00     0.252 S 
ATOM     27  O3  IDS d 502      32.272  21.453 108.115  0.00  0.00    -0.390 OA
ATOM     28  O2S IDS d 502      29.589  25.994 106.663  0.00  0.00    -0.572 OA
ATOM     29  C4  IDS d 502      30.024  22.097 108.682  0.00  0.00     0.103 C 
ATOM     30  C1  IDS d 502      31.984  23.734 110.050  0.00  0.00     0.158 C 
ATOM     31  O61 IDS d 502      28.505  22.478 111.761  0.00  0.00    -0.646 OA
ATOM     32  C6  IDS d 502      29.047  21.699 111.014  0.00  0.00     0.206 C 
ATOM     33  O1  IDS d 502      33.021  22.861 110.410  0.00  0.00    -0.368 OA
ATOM     34  C3  IDS d 502      31.322  22.487 107.947  0.00  0.00     0.094 C 
ATOM     35  O3S IDS d 502      31.926  26.590 106.812  0.00  0.00    -0.572 OA
ATOM     36  O5  IDS d 502      30.749  23.366 110.609  0.00  0.00    -0.340 OA
ATOM     37  C2  IDS d 502      31.914  23.775 108.527  0.00  0.00     0.134 C 
ATOM     38  O4  IDS d 502      29.009  23.013 108.362  0.00  0.00    -0.348 OA
ATOM     39  O1S IDS d 502      31.273  24.547 105.767  0.00  0.00    -0.572 OA
ATOM     40  C5  IDS d 502      30.260  22.107 110.190  0.00  0.00     0.152 C 
ATOM     41  H   IDS d 502      31.918  20.626 107.755  0.00  0.00     0.210 HD
ATOM     42  H   IDS d 502      29.730  21.115 108.376  0.00  0.00     0.092 H 
ATOM     43  H   IDS d 502      32.196  24.707 110.440  0.00  0.00     0.133 H 
ATOM     44  H   IDS d 502      32.835  21.975 110.059  0.00  0.00     0.212 HD
ATOM     45  H   IDS d 502      31.091  22.639 106.913  0.00  0.00     0.091 H 
ATOM     46  H   IDS d 502      32.907  23.899 108.151  0.00  0.00     0.097 H 
ATOM     47  H   IDS d 502      30.999  21.355 110.374  0.00  0.00     0.104 H 
ATOM     48  S2  SGN d 505      20.005  32.429 104.290  0.00  0.00     0.251 S 
ATOM     49  O6  SGN d 505      20.098  31.547 105.526  0.00  0.00    -0.254 OA
ATOM     50  O5S SGN d 505      20.999  33.452 104.499  0.00  0.00    -0.572 OA
ATOM     51  C6  SGN d 505      20.503  30.222 105.584  0.00  0.00     0.067 C 
ATOM     52  O2S SGN d 505      20.850  32.655 112.145  0.00  0.00    -0.296 OA
ATOM     53  S1  SGN d 505      21.907  31.688 111.963  0.00  0.00     0.156 S 
ATOM     54  O6S SGN d 505      20.309  31.584 103.143  0.00  0.00    -0.572 OA
ATOM     55  O4  SGN d 505      18.331  29.489 107.113  0.00  0.00    -0.348 OA
ATOM     56  O5  SGN d 505      21.656  30.691 107.533  0.00  0.00    -0.349 OA
ATOM     57  O4S SGN d 505      18.642  32.910 104.282  0.00  0.00    -0.572 OA
ATOM     58  C1  SGN d 505      22.000  30.404 108.859  0.00  0.00     0.150 C 
ATOM     59  O1S SGN d 505      22.973  32.185 111.119  0.00  0.00    -0.296 OA
ATOM     60  N   SGN d 505      21.184  30.404 111.164  0.00  0.00    -0.210 NA
ATOM     61  C3  SGN d 505      19.600  29.764 109.265  0.00  0.00     0.083 C 
ATOM     62  C2  SGN d 505      20.791  30.613 109.750  0.00  0.00     0.081 C 
ATOM     63  O3S SGN d 505      22.372  31.190 113.209  0.00  0.00    -0.296 OA
ATOM     64  C4  SGN d 505      19.350  30.196 107.790  0.00  0.00     0.095 C 
ATOM     65  C5  SGN d 505      20.611  29.910 107.041  0.00  0.00     0.091 C 
ATOM     66  O3  SGN d 505      18.471  30.068 110.072  0.00  0.00    -0.391 OA
ATOM     67  H   SGN d 505      21.450  30.099 105.102  0.00  0.00     0.080 H 
ATOM     68  H   SGN d 505      19.816  29.571 105.085  0.00  0.00     0.080 H 
ATOM     69  H   SGN d 505      20.554  32.976 111.278  0.00  0.00     0.231 HD
ATOM     70  H   SGN d 505      22.776  31.067 109.181  0.00  0.00     0.131 H 
ATOM     71  H   SGN d 505      22.599  32.511 110.285  0.00  0.00     0.231 HD
ATOM     72  H   SGN d 505      20.340  30.158 111.682  0.00  0.00     0.140 HD
ATOM     73  H   SGN d 505      19.785  28.712 109.329  0.00  0.00     0.089 H 
ATOM     74  H   SGN d 505      20.440  31.621 109.689  0.00  0.00     0.076 H 
ATOM     75  H   SGN d 505      21.619  30.871 113.731  0.00  0.00     0.231 HD
ATOM     76  H   SGN d 505      19.050  31.222 107.826  0.00  0.00     0.091 H 
ATOM     77  H   SGN d 505      20.792  28.863 107.174  0.00  0.00     0.090 H 
ATOM     78  H   SGN d 505      18.287  31.019 110.027  0.00  0.00     0.210 HD
ATOM     79  C6  SGN d 503      25.919  23.721 110.969  0.00  0.00     0.067 C 
ATOM     80  O6  SGN d 503      24.724  23.018 110.706  0.00  0.00    -0.254 OA
ATOM     81  C4  SGN d 503      25.898  24.594 108.564  0.00  0.00     0.095 C 
ATOM     82  O5  SGN d 503      26.938  22.535 109.291  0.00  0.00    -0.349 OA
ATOM     83  O4  SGN d 503      25.748  25.923 108.945  0.00  0.00    -0.348 OA
ATOM     84  S1  SGN d 503      27.688  21.642 104.865  0.00  0.00     0.156 S 
ATOM     85  O4S SGN d 503      24.155  22.622 113.017  0.00  0.00    -0.572 OA
ATOM     86  O2S SGN d 503      26.266  21.437 104.594  0.00  0.00    -0.296 OA
ATOM     87  C3  SGN d 503      26.685  24.551 107.256  0.00  0.00     0.083 C 
ATOM     88  S2  SGN d 503      23.982  22.093 111.707  0.00  0.00     0.251 S 
ATOM     89  O5S SGN d 503      22.578  22.070 111.308  0.00  0.00    -0.572 OA
ATOM     90  C1  SGN d 503      27.748  22.440 108.146  0.00  0.00     0.150 C 
ATOM     91  O1S SGN d 503      28.251  20.566 105.659  0.00  0.00    -0.296 OA
ATOM     92  O6S SGN d 503      24.658  20.860 111.589  0.00  0.00    -0.572 OA
ATOM     93  C2  SGN d 503      27.038  23.105 106.959  0.00  0.00     0.081 C 
ATOM     94  N   SGN d 503      27.846  22.994 105.757  0.00  0.00    -0.210 NA
ATOM     95  O3  SGN d 503      25.860  25.067 106.229  0.00  0.00    -0.391 OA
ATOM     96  C5  SGN d 503      26.666  23.848 109.669  0.00  0.00     0.091 C 
ATOM     97  O3S SGN d 503      28.473  21.929 103.686  0.00  0.00    -0.296 OA
ATOM     98  H   SGN d 503      25.693  24.693 111.357  0.00  0.00     0.080 H 
ATOM     99  H   SGN d 503      26.510  23.201 111.694  0.00  0.00     0.080 H 
ATOM    100  H   SGN d 503      24.946  24.128 108.421  0.00  0.00     0.091 H 
ATOM    101  H   SGN d 503      25.802  21.250 105.426  0.00  0.00     0.231 HD
ATOM    102  H   SGN d 503      27.582  25.130 107.325  0.00  0.00     0.089 H 
ATOM    103  H   SGN d 503      27.907  21.405 107.925  0.00  0.00     0.131 H 
ATOM    104  H   SGN d 503      27.692  20.411 106.436  0.00  0.00     0.231 HD
ATOM    105  H   SGN d 503      26.118  22.587 106.792  0.00  0.00     0.076 H 
ATOM    106  H   SGN d 503      27.609  23.785 105.157  0.00  0.00     0.140 HD
ATOM    107  H   SGN d 503      25.048  24.539 106.170  0.00  0.00     0.210 HD
ATOM    108  H   SGN d 503      27.545  24.443 109.808  0.00  0.00     0.090 H 
ATOM    109  H   SGN d 503      29.402  22.053 103.938  0.00  0.00     0.231 HD
ATOM    110  O61 IDS d 504      22.018  27.258 106.188  0.00  0.00    -0.646 OA
ATOM    111  O62 IDS d 504      23.557  28.385 105.298  0.00  0.00    -0.646 OA
ATOM    112  O3S IDS d 504      24.358  26.359 113.023  0.00  0.00    -0.572 OA
ATOM    113  S   IDS d 504      23.335  27.288 112.718  0.00  0.00     0.252 S 
ATOM    114  C6  IDS d 504      23.120  27.783 106.280  0.00  0.00     0.206 C 
ATOM    115  O3  IDS d 504      26.094  28.874 109.148  0.00  0.00    -0.390 OA
ATOM    116  C1  IDS d 504      24.463  26.244 109.394  0.00  0.00     0.161 C 
ATOM    117  O2  IDS d 504      23.400  27.408 111.184  0.00  0.00    -0.244 OA
ATOM    118  C5  IDS d 504      23.923  27.710 107.590  0.00  0.00     0.152 C 
ATOM    119  C4  IDS d 504      23.823  28.947 108.481  0.00  0.00     0.103 C 
ATOM    120  O5  IDS d 504      23.569  26.558 108.321  0.00  0.00    -0.340 OA
ATOM    121  O4  IDS d 504      22.496  29.097 108.962  0.00  0.00    -0.348 OA
ATOM    122  C2  IDS d 504      24.576  27.392 110.377  0.00  0.00     0.134 C 
ATOM    123  O1S IDS d 504      23.620  28.577 113.233  0.00  0.00    -0.572 OA
ATOM    124  O2S IDS d 504      22.010  26.862 113.064  0.00  0.00    -0.572 OA
ATOM    125  C3  IDS d 504      24.770  28.783 109.660  0.00  0.00     0.094 C 
ATOM    126  H   IDS d 504      26.212  29.730 108.707  0.00  0.00     0.210 HD
ATOM    127  H   IDS d 504      24.041  25.388 109.878  0.00  0.00     0.133 H 
ATOM    128  H   IDS d 504      24.947  27.661 107.284  0.00  0.00     0.104 H 
ATOM    129  H   IDS d 504      24.087  29.815 107.913  0.00  0.00     0.092 H 
ATOM    130  H   IDS d 504      25.446  27.240 110.981  0.00  0.00     0.097 H 
ATOM    131  H   IDS d 504      24.573  29.543 110.386  0.00  0.00     0.091 H 
ENDROOT
TORSDOF 40
ENDMDL
MODEL 21
REMARK VINA RESULT:     -10.4      5.626     10.525
REMARK  0 active torsions:
REMARK  status: ('A' for Active; 'I' for Inactive)
REMARK       I    between atoms: C6_1  and  C5_82 
REMARK       I    between atoms: O2_4  and  C2_65 
REMARK       I    between atoms: O2_4  and  S_6 
REMARK       I    between atoms: S2_5  and  O6_13 
REMARK       I    between atoms: C6_7  and  C5_66 
REMARK       I    between atoms: C6_7  and  O6_11 
REMARK       I    between atoms: S_8  and  O2_37 
REMARK       I    between atoms: O6_11  and  S2_34 
REMARK       I    between atoms: O6_13  and  C6_16 
REMARK       I    between atoms: C6_16  and  C5_76 
REMARK       I    between atoms: O2S_17  and  S1_21 
REMARK       I    between atoms: O4_18  and  C4_33 
REMARK       I    between atoms: C4_19  and  O4_25 
REMARK       I    between atoms: O3_20  and  C3_57 
REMARK       I    between atoms: S1_21  and  N_56 
REMARK       I    between atoms: S1_21  and  O1S_55 
REMARK       I    between atoms: S1_21  and  O3S_68 
REMARK       I    between atoms: O3_24  and  C3_80 
REMARK       I    between atoms: O4_25  and  C1_53 
REMARK       I    between atoms: S1_26  and  N_59 
REMARK       I    between atoms: S1_26  and  O1S_42 
REMARK       I    between atoms: S1_26  and  O2S_29 
REMARK       I    between atoms: S1_26  and  O3S_87 
REMARK       I    between atoms: S_30  and  O2_54 
REMARK       I    between atoms: C3_31  and  O3_61 
REMARK       I    between atoms: O4_36  and  C4_70 
REMARK       I    between atoms: O4_36  and  C1_52 
REMARK       I    between atoms: O2_37  and  C2_45 
REMARK       I    between atoms: C4_38  and  O4_71 
REMARK       I    between atoms: C1_39  and  O1_51 
REMARK       I    between atoms: C1_40  and  O4_71 
REMARK       I    between atoms: C6_46  and  C5_84 
REMARK       I    between atoms: C6_47  and  C5_64 
REMARK       I    between atoms: C1_48  and  O4_77 
REMARK       I    between atoms: O3_50  and  C3_86 
REMARK       I    between atoms: O2_54  and  C2_79 
REMARK       I    between atoms: N_56  and  C2_67 
REMARK       I    between atoms: C2_58  and  N_59 
REMARK       I    between atoms: C3_62  and  O3_81 
REMARK       I    between atoms: C4_69  and  O4_77 
ROOT
ATOM      1  C6  IDS d 506      17.310  28.361 113.241  0.00  0.00     0.206 C 
ATOM      2  O62 IDS d 506      16.943  28.582 114.383  0.00  0.00    -0.646 OA
ATOM      3  S   IDS d 506      14.931  23.825 109.618  0.00  0.00     0.252 S 
ATOM      4  O1S IDS d 506      14.458  23.217 110.824  0.00  0.00    -0.572 OA
ATOM      5  O3S IDS d 506      15.640  22.905 108.756  0.00  0.00    -0.572 OA
ATOM      6  O4  IDS d 506      15.078  26.463 112.589  0.00  0.00    -0.390 OA
ATOM      7  O3  IDS d 506      17.456  23.856 113.199  0.00  0.00    -0.390 OA
ATOM      8  C4  IDS d 506      16.311  25.973 113.062  0.00  0.00     0.097 C 
ATOM      9  O2  IDS d 506      16.014  24.888 110.089  0.00  0.00    -0.244 OA
ATOM     10  C2  IDS d 506      17.115  24.692 110.955  0.00  0.00     0.134 C 
ATOM     11  C1  IDS d 506      18.135  25.826 110.777  0.00  0.00     0.161 C 
ATOM     12  O2S IDS d 506      13.875  24.530 108.948  0.00  0.00    -0.572 OA
ATOM     13  O5  IDS d 506      17.586  27.003 111.314  0.00  0.00    -0.340 OA
ATOM     14  O61 IDS d 506      17.598  29.317 112.536  0.00  0.00    -0.646 OA
ATOM     15  C3  IDS d 506      16.543  24.600 112.397  0.00  0.00     0.094 C 
ATOM     16  C5  IDS d 506      17.432  26.951 112.694  0.00  0.00     0.152 C 
ATOM     17  H   IDS d 506      14.371  25.842 112.824  0.00  0.00     0.210 HD
ATOM     18  H   IDS d 506      17.112  23.789 114.103  0.00  0.00     0.210 HD
ATOM     19  H   IDS d 506      16.303  25.871 114.127  0.00  0.00     0.091 H 
ATOM     20  H   IDS d 506      17.647  23.790 110.734  0.00  0.00     0.097 H 
ATOM     21  H   IDS d 506      19.053  25.576 111.265  0.00  0.00     0.133 H 
ATOM     22  H   IDS d 506      15.587  24.124 112.323  0.00  0.00     0.091 H 
ATOM     23  H   IDS d 506      18.296  26.545 113.178  0.00  0.00     0.104 H 
ATOM     24  O62 IDS d 502      30.218  18.653 111.411  0.00  0.00    -0.646 OA
ATOM     25  O2  IDS d 502      30.047  20.038 105.937  0.00  0.00    -0.244 OA
ATOM     26  S   IDS d 502      29.077  19.871 104.721  0.00  0.00     0.252 S 
ATOM     27  O3  IDS d 502      31.528  17.018 107.176  0.00  0.00    -0.390 OA
ATOM     28  O2S IDS d 502      27.834  20.490 105.120  0.00  0.00    -0.572 OA
ATOM     29  C4  IDS d 502      29.907  18.340 108.365  0.00  0.00     0.103 C 
ATOM     30  C1  IDS d 502      32.019  19.982 107.253  0.00  0.00     0.158 C 
ATOM     31  O61 IDS d 502      30.318  20.658 110.893  0.00  0.00    -0.646 OA
ATOM     32  C6  IDS d 502      30.464  19.503 110.578  0.00  0.00     0.206 C 
ATOM     33  O1  IDS d 502      33.200  19.244 107.421  0.00  0.00    -0.368 OA
ATOM     34  C3  IDS d 502      30.500  17.972 106.992  0.00  0.00     0.094 C 
ATOM     35  O3S IDS d 502      29.736  20.543 103.631  0.00  0.00    -0.572 OA
ATOM     36  O5  IDS d 502      31.376  20.259 108.471  0.00  0.00    -0.340 OA
ATOM     37  C2  IDS d 502      31.108  19.201 106.310  0.00  0.00     0.134 C 
ATOM     38  O4  IDS d 502      28.759  19.129 108.187  0.00  0.00    -0.348 OA
ATOM     39  O1S IDS d 502      28.934  18.462 104.481  0.00  0.00    -0.572 OA
ATOM     40  C5  IDS d 502      30.936  19.118 109.182  0.00  0.00     0.152 C 
ATOM     41  H   IDS d 502      31.164  16.230 107.608  0.00  0.00     0.210 HD
ATOM     42  H   IDS d 502      29.647  17.443 108.887  0.00  0.00     0.092 H 
ATOM     43  H   IDS d 502      32.259  20.936 106.833  0.00  0.00     0.133 H 
ATOM     44  H   IDS d 502      32.988  18.377 107.802  0.00  0.00     0.212 HD
ATOM     45  H   IDS d 502      29.714  17.582 106.379  0.00  0.00     0.091 H 
ATOM     46  H   IDS d 502      31.693  18.879 105.474  0.00  0.00     0.097 H 
ATOM     47  H   IDS d 502      31.757  18.448 109.330  0.00  0.00     0.104 H 
ATOM     48  S2  SGN d 505      17.698  26.504 105.090  0.00  0.00     0.251 S 
ATOM     49  O6  SGN d 505      18.596  26.444 106.317  0.00  0.00    -0.254 OA
ATOM     50  O5S SGN d 505      18.471  27.229 104.112  0.00  0.00    -0.572 OA
ATOM     51  C6  SGN d 505      19.162  25.314 106.888  0.00  0.00     0.067 C 
ATOM     52  O2S SGN d 505      22.718  30.782 109.445  0.00  0.00    -0.296 OA
ATOM     53  S1  SGN d 505      23.629  29.668 109.317  0.00  0.00     0.156 S 
ATOM     54  O6S SGN d 505      17.439  25.128 104.687  0.00  0.00    -0.572 OA
ATOM     55  O4  SGN d 505      18.349  26.029 109.422  0.00  0.00    -0.348 OA
ATOM     56  O5  SGN d 505      21.115  26.503 107.232  0.00  0.00    -0.349 OA
ATOM     57  O4S SGN d 505      16.507  27.188 105.539  0.00  0.00    -0.572 OA
ATOM     58  C1  SGN d 505      22.177  26.917 108.045  0.00  0.00     0.150 C 
ATOM     59  O1S SGN d 505      23.955  29.377 107.936  0.00  0.00    -0.296 OA
ATOM     60  N   SGN d 505      22.790  28.352 109.927  0.00  0.00    -0.210 NA
ATOM     61  C3  SGN d 505      20.539  27.146 109.941  0.00  0.00     0.083 C 
ATOM     62  C2  SGN d 505      21.652  27.837 109.131  0.00  0.00     0.081 C 
ATOM     63  O3S SGN d 505      24.777  29.842 110.133  0.00  0.00    -0.296 OA
ATOM     64  C4  SGN d 505      19.449  26.747 108.904  0.00  0.00     0.095 C 
ATOM     65  C5  SGN d 505      20.107  25.831 107.924  0.00  0.00     0.091 C 
ATOM     66  O3  SGN d 505      20.018  28.079 110.879  0.00  0.00    -0.391 OA
ATOM     67  H   SGN d 505      19.688  24.744 106.151  0.00  0.00     0.080 H 
ATOM     68  H   SGN d 505      18.423  24.666 107.310  0.00  0.00     0.080 H 
ATOM     69  H   SGN d 505      21.946  30.634 108.877  0.00  0.00     0.231 HD
ATOM     70  H   SGN d 505      22.888  27.460 107.458  0.00  0.00     0.131 H 
ATOM     71  H   SGN d 505      23.136  29.269 107.427  0.00  0.00     0.231 HD
ATOM     72  H   SGN d 505      22.426  28.620 110.842  0.00  0.00     0.140 HD
ATOM     73  H   SGN d 505      20.887  26.288 110.480  0.00  0.00     0.089 H 
ATOM     74  H   SGN d 505      21.176  28.696 108.708  0.00  0.00     0.076 H 
ATOM     75  H   SGN d 505      24.501  30.034 111.043  0.00  0.00     0.231 HD
ATOM     76  H   SGN d 505      19.067  27.663 108.505  0.00  0.00     0.091 H 
ATOM     77  H   SGN d 505      20.489  25.017 108.504  0.00  0.00     0.090 H 
ATOM     78  H   SGN d 505      19.697  28.864 110.409  0.00  0.00     0.210 HD
ATOM     79  C6  SGN d 503      27.574  21.800 111.070  0.00  0.00     0.067 C 
ATOM     80  O6  SGN d 503      26.559  21.349 111.940  0.00  0.00    -0.254 OA
ATOM     81  C4  SGN d 503      26.088  21.201 109.076  0.00  0.00     0.095 C 
ATOM     82  O5  SGN d 503      27.656  19.702 110.146  0.00  0.00    -0.349 OA
ATOM     83  O4  SGN d 503      25.973  22.517 108.642  0.00  0.00    -0.348 OA
ATOM     84  S1  SGN d 503      25.947  16.404 107.472  0.00  0.00     0.156 S 
ATOM     85  O4S SGN d 503      27.438  22.412 113.920  0.00  0.00    -0.572 OA
ATOM     86  O2S SGN d 503      24.665  16.402 108.175  0.00  0.00    -0.296 OA
ATOM     87  C3  SGN d 503      26.011  20.281 107.859  0.00  0.00     0.083 C 
ATOM     88  S2  SGN d 503      26.650  21.307 113.489  0.00  0.00     0.251 S 
ATOM     89  O5S SGN d 503      25.284  21.379 113.999  0.00  0.00    -0.572 OA
ATOM     90  C1  SGN d 503      27.697  18.824 109.048  0.00  0.00     0.150 C 
ATOM     91  O1S SGN d 503      27.013  15.842 108.280  0.00  0.00    -0.296 OA
ATOM     92  O6S SGN d 503      27.325  20.097 113.753  0.00  0.00    -0.572 OA
ATOM     93  C2  SGN d 503      26.355  18.871 108.303  0.00  0.00     0.081 C 
ATOM     94  N   SGN d 503      26.364  17.950 107.181  0.00  0.00    -0.210 NA
ATOM     95  O3  SGN d 503      24.687  20.320 107.361  0.00  0.00    -0.391 OA
ATOM     96  C5  SGN d 503      27.443  21.031 109.783  0.00  0.00     0.091 C 
ATOM     97  O3S SGN d 503      25.889  15.822 106.150  0.00  0.00    -0.296 OA
ATOM     98  H   SGN d 503      27.456  22.847 110.883  0.00  0.00     0.080 H 
ATOM     99  H   SGN d 503      28.539  21.645 111.505  0.00  0.00     0.080 H 
ATOM    100  H   SGN d 503      25.301  20.954 109.758  0.00  0.00     0.091 H 
ATOM    101  H   SGN d 503      24.777  16.805 109.051  0.00  0.00     0.231 HD
ATOM    102  H   SGN d 503      26.693  20.591 107.096  0.00  0.00     0.089 H 
ATOM    103  H   SGN d 503      27.862  17.831 109.411  0.00  0.00     0.131 H 
ATOM    104  H   SGN d 503      27.011  16.262 109.154  0.00  0.00     0.231 HD
ATOM    105  H   SGN d 503      25.589  18.562 108.983  0.00  0.00     0.076 H 
ATOM    106  H   SGN d 503      25.717  18.314 106.482  0.00  0.00     0.140 HD
ATOM    107  H   SGN d 503      24.071  20.038 108.056  0.00  0.00     0.210 HD
ATOM    108  H   SGN d 503      28.147  21.395 109.065  0.00  0.00     0.090 H 
ATOM    109  H   SGN d 503      26.769  15.856 105.743  0.00  0.00     0.231 HD
ATOM    110  O61 IDS d 504      21.189  22.912 108.141  0.00  0.00    -0.646 OA
ATOM    111  O62 IDS d 504      21.780  23.003 106.122  0.00  0.00    -0.646 OA
ATOM    112  O3S IDS d 504      27.036  25.396 111.697  0.00  0.00    -0.572 OA
ATOM    113  S   IDS d 504      25.888  26.205 111.524  0.00  0.00     0.252 S 
ATOM    114  C6  IDS d 504      22.061  23.146 107.314  0.00  0.00     0.206 C 
ATOM    115  O3  IDS d 504      25.918  24.941 106.911  0.00  0.00    -0.390 OA
ATOM    116  C1  IDS d 504      25.123  23.303 109.427  0.00  0.00     0.161 C 
ATOM    117  O2  IDS d 504      25.071  25.453 110.458  0.00  0.00    -0.244 OA
ATOM    118  C5  IDS d 504      23.455  23.624 107.750  0.00  0.00     0.152 C 
ATOM    119  C4  IDS d 504      23.680  25.133 107.661  0.00  0.00     0.103 C 
ATOM    120  O5  IDS d 504      23.749  23.168 109.051  0.00  0.00    -0.340 OA
ATOM    121  O4  IDS d 504      22.840  25.807 108.586  0.00  0.00    -0.348 OA
ATOM    122  C2  IDS d 504      25.586  24.743 109.333  0.00  0.00     0.134 C 
ATOM    123  O1S IDS d 504      26.210  27.467 110.964  0.00  0.00    -0.572 OA
ATOM    124  O2S IDS d 504      25.063  26.339 112.688  0.00  0.00    -0.572 OA
ATOM    125  C3  IDS d 504      25.134  25.435 107.990  0.00  0.00     0.094 C 
ATOM    126  H   IDS d 504      25.638  25.367 106.086  0.00  0.00     0.210 HD
ATOM    127  H   IDS d 504      25.178  22.966 110.441  0.00  0.00     0.133 H 
ATOM    128  H   IDS d 504      24.129  23.194 107.039  0.00  0.00     0.104 H 
ATOM    129  H   IDS d 504      23.448  25.468 106.672  0.00  0.00     0.092 H 
ATOM    130  H   IDS d 504      26.656  24.759 109.335  0.00  0.00     0.097 H 
ATOM    131  H   IDS d 504      25.260  26.490 108.121  0.00  0.00     0.091 H 
ENDROOT
TORSDOF 40
ENDMDL
MODEL 22
REMARK VINA RESULT:     -10.3      4.477     10.038
REMARK  0 active torsions:
REMARK  status: ('A' for Active; 'I' for Inactive)
REMARK       I    between atoms: C6_1  and  C5_82 
REMARK       I    between atoms: O2_4  and  C2_65 
REMARK       I    between atoms: O2_4  and  S_6 
REMARK       I    between atoms: S2_5  and  O6_13 
REMARK       I    between atoms: C6_7  and  C5_66 
REMARK       I    between atoms: C6_7  and  O6_11 
REMARK       I    between atoms: S_8  and  O2_37 
REMARK       I    between atoms: O6_11  and  S2_34 
REMARK       I    between atoms: O6_13  and  C6_16 
REMARK       I    between atoms: C6_16  and  C5_76 
REMARK       I    between atoms: O2S_17  and  S1_21 
REMARK       I    between atoms: O4_18  and  C4_33 
REMARK       I    between atoms: C4_19  and  O4_25 
REMARK       I    between atoms: O3_20  and  C3_57 
REMARK       I    between atoms: S1_21  and  N_56 
REMARK       I    between atoms: S1_21  and  O1S_55 
REMARK       I    between atoms: S1_21  and  O3S_68 
REMARK       I    between atoms: O3_24  and  C3_80 
REMARK       I    between atoms: O4_25  and  C1_53 
REMARK       I    between atoms: S1_26  and  N_59 
REMARK       I    between atoms: S1_26  and  O1S_42 
REMARK       I    between atoms: S1_26  and  O2S_29 
REMARK       I    between atoms: S1_26  and  O3S_87 
REMARK       I    between atoms: S_30  and  O2_54 
REMARK       I    between atoms: C3_31  and  O3_61 
REMARK       I    between atoms: O4_36  and  C4_70 
REMARK       I    between atoms: O4_36  and  C1_52 
REMARK       I    between atoms: O2_37  and  C2_45 
REMARK       I    between atoms: C4_38  and  O4_71 
REMARK       I    between atoms: C1_39  and  O1_51 
REMARK       I    between atoms: C1_40  and  O4_71 
REMARK       I    between atoms: C6_46  and  C5_84 
REMARK       I    between atoms: C6_47  and  C5_64 
REMARK       I    between atoms: C1_48  and  O4_77 
REMARK       I    between atoms: O3_50  and  C3_86 
REMARK       I    between atoms: O2_54  and  C2_79 
REMARK       I    between atoms: N_56  and  C2_67 
REMARK       I    between atoms: C2_58  and  N_59 
REMARK       I    between atoms: C3_62  and  O3_81 
REMARK       I    between atoms: C4_69  and  O4_77 
ROOT
ATOM      1  C6  IDS d 506      28.486  17.364 108.962  0.00  0.00     0.206 C 
ATOM      2  O62 IDS d 506      28.428  16.412 109.721  0.00  0.00    -0.646 OA
ATOM      3  S   IDS d 506      32.838  21.867 109.330  0.00  0.00     0.252 S 
ATOM      4  O1S IDS d 506      33.052  21.443 110.680  0.00  0.00    -0.572 OA
ATOM      5  O3S IDS d 506      32.658  23.297 109.204  0.00  0.00    -0.572 OA
ATOM      6  O4  IDS d 506      31.188  18.292 109.881  0.00  0.00    -0.390 OA
ATOM      7  O3  IDS d 506      29.413  20.729 111.814  0.00  0.00    -0.390 OA
ATOM      8  C4  IDS d 506      30.020  18.837 110.449  0.00  0.00     0.097 C 
ATOM      9  O2  IDS d 506      31.447  21.224 108.910  0.00  0.00    -0.244 OA
ATOM     10  C2  IDS d 506      30.213  21.280 109.599  0.00  0.00     0.134 C 
ATOM     11  C1  IDS d 506      29.060  20.934 108.646  0.00  0.00     0.161 C 
ATOM     12  O2S IDS d 506      33.852  21.345 108.459  0.00  0.00    -0.572 OA
ATOM     13  O5  IDS d 506      29.131  19.563 108.345  0.00  0.00    -0.340 OA
ATOM     14  O61 IDS d 506      28.210  17.178 107.785  0.00  0.00    -0.646 OA
ATOM     15  C3  IDS d 506      30.327  20.307 110.805  0.00  0.00     0.094 C 
ATOM     16  C5  IDS d 506      28.867  18.752 109.442  0.00  0.00     0.152 C 
ATOM     17  H   IDS d 506      31.915  18.348 110.521  0.00  0.00     0.210 HD
ATOM     18  H   IDS d 506      29.473  20.130 112.575  0.00  0.00     0.210 HD
ATOM     19  H   IDS d 506      29.728  18.297 111.325  0.00  0.00     0.091 H 
ATOM     20  H   IDS d 506      29.998  22.263 109.965  0.00  0.00     0.097 H 
ATOM     21  H   IDS d 506      28.122  21.178 109.098  0.00  0.00     0.133 H 
ATOM     22  H   IDS d 506      31.343  20.341 111.138  0.00  0.00     0.091 H 
ATOM     23  H   IDS d 506      28.017  19.092 109.996  0.00  0.00     0.104 H 
ATOM     24  O62 IDS d 502      19.374  30.298 112.689  0.00  0.00    -0.646 OA
ATOM     25  O2  IDS d 502      20.866  32.367 107.648  0.00  0.00    -0.244 OA
ATOM     26  S   IDS d 502      22.170  32.825 106.915  0.00  0.00     0.252 S 
ATOM     27  O3  IDS d 502      19.827  34.409 110.404  0.00  0.00    -0.390 OA
ATOM     28  O2S IDS d 502      23.054  31.683 106.929  0.00  0.00    -0.572 OA
ATOM     29  C4  IDS d 502      20.656  32.159 110.599  0.00  0.00     0.103 C 
ATOM     30  C1  IDS d 502      18.659  32.386 108.513  0.00  0.00     0.158 C 
ATOM     31  O61 IDS d 502      18.971  29.170 110.996  0.00  0.00    -0.646 OA
ATOM     32  C6  IDS d 502      19.200  30.249 111.486  0.00  0.00     0.206 C 
ATOM     33  O1  IDS d 502      17.688  33.267 109.013  0.00  0.00    -0.368 OA
ATOM     34  C3  IDS d 502      20.610  33.437 109.740  0.00  0.00     0.094 C 
ATOM     35  O3S IDS d 502      21.735  33.207 105.596  0.00  0.00    -0.572 OA
ATOM     36  O5  IDS d 502      18.820  31.245 109.318  0.00  0.00    -0.340 OA
ATOM     37  C2  IDS d 502      19.968  33.158 108.378  0.00  0.00     0.134 C 
ATOM     38  O4  IDS d 502      21.587  31.259 110.056  0.00  0.00    -0.348 OA
ATOM     39  O1S IDS d 502      22.704  33.938 107.650  0.00  0.00    -0.572 OA
ATOM     40  C5  IDS d 502      19.277  31.506 110.631  0.00  0.00     0.152 C 
ATOM     41  H   IDS d 502      20.215  34.601 111.271  0.00  0.00     0.210 HD
ATOM     42  H   IDS d 502      20.948  32.417 111.596  0.00  0.00     0.092 H 
ATOM     43  H   IDS d 502      18.341  32.021 107.560  0.00  0.00     0.133 H 
ATOM     44  H   IDS d 502      17.971  33.602 109.879  0.00  0.00     0.212 HD
ATOM     45  H   IDS d 502      21.613  33.781 109.593  0.00  0.00     0.091 H 
ATOM     46  H   IDS d 502      19.756  34.090 107.898  0.00  0.00     0.097 H 
ATOM     47  H   IDS d 502      18.629  32.215 111.102  0.00  0.00     0.104 H 
ATOM     48  S2  SGN d 505      31.028  23.542 103.921  0.00  0.00     0.251 S 
ATOM     49  O6  SGN d 505      29.841  23.216 104.815  0.00  0.00    -0.254 OA
ATOM     50  O5S SGN d 505      30.441  23.862 102.643  0.00  0.00    -0.572 OA
ATOM     51  C6  SGN d 505      29.408  23.922 105.927  0.00  0.00     0.067 C 
ATOM     52  O2S SGN d 505      24.073  19.789 104.046  0.00  0.00    -0.296 OA
ATOM     53  S1  SGN d 505      23.530  21.014 104.585  0.00  0.00     0.156 S 
ATOM     54  O6S SGN d 505      31.710  24.680 104.522  0.00  0.00    -0.572 OA
ATOM     55  O4  SGN d 505      29.226  21.644 107.466  0.00  0.00    -0.348 OA
ATOM     56  O5  SGN d 505      27.222  23.584 105.254  0.00  0.00    -0.349 OA
ATOM     57  O4S SGN d 505      31.833  22.342 103.927  0.00  0.00    -0.572 OA
ATOM     58  C1  SGN d 505      25.898  23.211 105.513  0.00  0.00     0.150 C 
ATOM     59  O1S SGN d 505      23.714  22.140 103.693  0.00  0.00    -0.296 OA
ATOM     60  N   SGN d 505      24.427  21.312 105.969  0.00  0.00    -0.210 NA
ATOM     61  C3  SGN d 505      26.784  21.346 106.952  0.00  0.00     0.083 C 
ATOM     62  C2  SGN d 505      25.840  21.722 105.793  0.00  0.00     0.081 C 
ATOM     63  O3S SGN d 505      22.181  20.846 104.994  0.00  0.00    -0.296 OA
ATOM     64  C4  SGN d 505      28.198  21.827 106.514  0.00  0.00     0.095 C 
ATOM     65  C5  SGN d 505      28.100  23.303 106.300  0.00  0.00     0.091 C 
ATOM     66  O3  SGN d 505      26.764  19.933 107.110  0.00  0.00    -0.391 OA
ATOM     67  H   SGN d 505      29.278  24.957 105.687  0.00  0.00     0.080 H 
ATOM     68  H   SGN d 505      30.114  23.878 106.730  0.00  0.00     0.080 H 
ATOM     69  H   SGN d 505      24.993  19.936 103.776  0.00  0.00     0.231 HD
ATOM     70  H   SGN d 505      25.292  23.417 104.655  0.00  0.00     0.131 H 
ATOM     71  H   SGN d 505      24.650  22.207 103.447  0.00  0.00     0.231 HD
ATOM     72  H   SGN d 505      24.424  20.456 106.525  0.00  0.00     0.140 HD
ATOM     73  H   SGN d 505      26.499  21.792 107.883  0.00  0.00     0.089 H 
ATOM     74  H   SGN d 505      26.207  21.160 104.960  0.00  0.00     0.076 H 
ATOM     75  H   SGN d 505      22.116  20.081 105.588  0.00  0.00     0.231 HD
ATOM     76  H   SGN d 505      28.459  21.246 105.655  0.00  0.00     0.091 H 
ATOM     77  H   SGN d 505      27.762  23.706 107.232  0.00  0.00     0.090 H 
ATOM     78  H   SGN d 505      27.020  19.511 106.275  0.00  0.00     0.210 HD
ATOM     79  C6  SGN d 503      21.187  27.215 110.635  0.00  0.00     0.067 C 
ATOM     80  O6  SGN d 503      21.966  26.667 111.676  0.00  0.00    -0.254 OA
ATOM     81  C4  SGN d 503      23.304  28.244 109.633  0.00  0.00     0.095 C 
ATOM     82  O5  SGN d 503      21.880  29.306 111.274  0.00  0.00    -0.349 OA
ATOM     83  O4  SGN d 503      23.235  27.490 108.467  0.00  0.00    -0.348 OA
ATOM     84  S1  SGN d 503      25.038  32.611 111.510  0.00  0.00     0.156 S 
ATOM     85  O4S SGN d 503      20.307  25.083 112.422  0.00  0.00    -0.572 OA
ATOM     86  O2S SGN d 503      26.010  31.732 112.158  0.00  0.00    -0.296 OA
ATOM     87  C3  SGN d 503      23.958  29.584 109.306  0.00  0.00     0.083 C 
ATOM     88  S2  SGN d 503      21.423  25.842 112.873  0.00  0.00     0.251 S 
ATOM     89  O5S SGN d 503      22.514  24.989 113.334  0.00  0.00    -0.572 OA
ATOM     90  C1  SGN d 503      22.379  30.592 111.000  0.00  0.00     0.150 C 
ATOM     91  O1S SGN d 503      23.939  32.954 112.393  0.00  0.00    -0.296 OA
ATOM     92  O6S SGN d 503      21.001  26.825 113.794  0.00  0.00    -0.572 OA
ATOM     93  C2  SGN d 503      23.834  30.486 110.520  0.00  0.00     0.081 C 
ATOM     94  N   SGN d 503      24.380  31.806 110.258  0.00  0.00    -0.210 NA
ATOM     95  O3  SGN d 503      25.323  29.350 109.017  0.00  0.00    -0.391 OA
ATOM     96  C5  SGN d 503      21.877  28.466 110.163  0.00  0.00     0.091 C 
ATOM     97  O3S SGN d 503      25.627  33.773 110.883  0.00  0.00    -0.296 OA
ATOM     98  H   SGN d 503      21.109  26.515 109.830  0.00  0.00     0.080 H 
ATOM     99  H   SGN d 503      20.199  27.438 110.982  0.00  0.00     0.080 H 
ATOM    100  H   SGN d 503      23.882  27.740 110.379  0.00  0.00     0.091 H 
ATOM    101  H   SGN d 503      25.547  30.977 112.556  0.00  0.00     0.231 HD
ATOM    102  H   SGN d 503      23.487  30.050 108.466  0.00  0.00     0.089 H 
ATOM    103  H   SGN d 503      22.348  31.169 111.901  0.00  0.00     0.131 H 
ATOM    104  H   SGN d 503      23.578  32.145 112.788  0.00  0.00     0.231 HD
ATOM    105  H   SGN d 503      24.408  30.036 111.303  0.00  0.00     0.076 H 
ATOM    106  H   SGN d 503      25.105  31.700 109.548  0.00  0.00     0.140 HD
ATOM    107  H   SGN d 503      25.747  28.928 109.781  0.00  0.00     0.210 HD
ATOM    108  H   SGN d 503      21.359  28.875 109.320  0.00  0.00     0.090 H 
ATOM    109  H   SGN d 503      24.929  34.309 110.475  0.00  0.00     0.231 HD
ATOM    110  O61 IDS d 504      27.716  25.710 108.248  0.00  0.00    -0.646 OA
ATOM    111  O62 IDS d 504      27.759  27.022 106.603  0.00  0.00    -0.646 OA
ATOM    112  O3S IDS d 504      20.656  24.032 108.847  0.00  0.00    -0.572 OA
ATOM    113  S   IDS d 504      21.581  23.114 108.294  0.00  0.00     0.252 S 
ATOM    114  C6  IDS d 504      27.106  26.338 107.393  0.00  0.00     0.206 C 
ATOM    115  O3  IDS d 504      23.245  26.695 105.596  0.00  0.00    -0.390 OA
ATOM    116  C1  IDS d 504      23.599  26.150 108.632  0.00  0.00     0.161 C 
ATOM    117  O2  IDS d 504      22.834  23.971 108.038  0.00  0.00    -0.244 OA
ATOM    118  C5  IDS d 504      25.573  26.258 107.295  0.00  0.00     0.152 C 
ATOM    119  C4  IDS d 504      25.041  25.292 106.238  0.00  0.00     0.103 C 
ATOM    120  O5  IDS d 504      25.014  25.953 108.553  0.00  0.00    -0.340 OA
ATOM    121  O4  IDS d 504      25.380  23.956 106.581  0.00  0.00    -0.348 OA
ATOM    122  C2  IDS d 504      22.864  25.326 107.594  0.00  0.00     0.134 C 
ATOM    123  O1S IDS d 504      21.159  22.635 107.029  0.00  0.00    -0.572 OA
ATOM    124  O2S IDS d 504      21.959  22.041 109.166  0.00  0.00    -0.572 OA
ATOM    125  C3  IDS d 504      23.528  25.424 106.167  0.00  0.00     0.094 C 
ATOM    126  H   IDS d 504      23.654  26.753 104.718  0.00  0.00     0.210 HD
ATOM    127  H   IDS d 504      23.320  25.834 109.615  0.00  0.00     0.133 H 
ATOM    128  H   IDS d 504      25.266  27.230 106.972  0.00  0.00     0.104 H 
ATOM    129  H   IDS d 504      25.477  25.528 105.290  0.00  0.00     0.092 H 
ATOM    130  H   IDS d 504      21.871  25.711 107.492  0.00  0.00     0.097 H 
ATOM    131  H   IDS d 504      23.125  24.626 105.577  0.00  0.00     0.091 H 
ENDROOT
TORSDOF 40
ENDMDL
MODEL 23
REMARK VINA RESULT:     -10.3      3.359      4.793
REMARK  0 active torsions:
REMARK  status: ('A' for Active; 'I' for Inactive)
REMARK       I    between atoms: C6_1  and  C5_82 
REMARK       I    between atoms: O2_4  and  C2_65 
REMARK       I    between atoms: O2_4  and  S_6 
REMARK       I    between atoms: S2_5  and  O6_13 
REMARK       I    between atoms: C6_7  and  C5_66 
REMARK       I    between atoms: C6_7  and  O6_11 
REMARK       I    between atoms: S_8  and  O2_37 
REMARK       I    between atoms: O6_11  and  S2_34 
REMARK       I    between atoms: O6_13  and  C6_16 
REMARK       I    between atoms: C6_16  and  C5_76 
REMARK       I    between atoms: O2S_17  and  S1_21 
REMARK       I    between atoms: O4_18  and  C4_33 
REMARK       I    between atoms: C4_19  and  O4_25 
REMARK       I    between atoms: O3_20  and  C3_57 
REMARK       I    between atoms: S1_21  and  N_56 
REMARK       I    between atoms: S1_21  and  O1S_55 
REMARK       I    between atoms: S1_21  and  O3S_68 
REMARK       I    between atoms: O3_24  and  C3_80 
REMARK       I    between atoms: O4_25  and  C1_53 
REMARK       I    between atoms: S1_26  and  N_59 
REMARK       I    between atoms: S1_26  and  O1S_42 
REMARK       I    between atoms: S1_26  and  O2S_29 
REMARK       I    between atoms: S1_26  and  O3S_87 
REMARK       I    between atoms: S_30  and  O2_54 
REMARK       I    between atoms: C3_31  and  O3_61 
REMARK       I    between atoms: O4_36  and  C4_70 
REMARK       I    between atoms: O4_36  and  C1_52 
REMARK       I    between atoms: O2_37  and  C2_45 
REMARK       I    between atoms: C4_38  and  O4_71 
REMARK       I    between atoms: C1_39  and  O1_51 
REMARK       I    between atoms: C1_40  and  O4_71 
REMARK       I    between atoms: C6_46  and  C5_84 
REMARK       I    between atoms: C6_47  and  C5_64 
REMARK       I    between atoms: C1_48  and  O4_77 
REMARK       I    between atoms: O3_50  and  C3_86 
REMARK       I    between atoms: O2_54  and  C2_79 
REMARK       I    between atoms: N_56  and  C2_67 
REMARK       I    between atoms: C2_58  and  N_59 
REMARK       I    between atoms: C3_62  and  O3_81 
REMARK       I    between atoms: C4_69  and  O4_77 
ROOT
ATOM      1  C6  IDS d 506      19.694  17.498 109.561  0.00  0.00     0.206 C 
ATOM      2  O62 IDS d 506      19.851  16.488 108.897  0.00  0.00    -0.646 OA
ATOM      3  S   IDS d 506      15.641  22.055 108.091  0.00  0.00     0.252 S 
ATOM      4  O1S IDS d 506      15.655  21.532 106.760  0.00  0.00    -0.572 OA
ATOM      5  O3S IDS d 506      15.847  23.487 108.143  0.00  0.00    -0.572 OA
ATOM      6  O4  IDS d 506      17.233  18.412 108.108  0.00  0.00    -0.390 OA
ATOM      7  O3  IDS d 506      19.409  20.650 106.352  0.00  0.00    -0.390 OA
ATOM      8  C4  IDS d 506      18.502  18.885 107.721  0.00  0.00     0.097 C 
ATOM      9  O2  IDS d 506      16.911  21.416 108.800  0.00  0.00    -0.244 OA
ATOM     10  C2  IDS d 506      18.249  21.390 108.342  0.00  0.00     0.134 C 
ATOM     11  C1  IDS d 506      19.201  21.094 109.509  0.00  0.00     0.161 C 
ATOM     12  O2S IDS d 506      14.470  21.625 108.802  0.00  0.00    -0.572 OA
ATOM     13  O5  IDS d 506      19.030  19.753 109.891  0.00  0.00    -0.340 OA
ATOM     14  O61 IDS d 506      19.749  17.399 110.779  0.00  0.00    -0.646 OA
ATOM     15  C3  IDS d 506      18.316  20.329 107.209  0.00  0.00     0.094 C 
ATOM     16  C5  IDS d 506      19.454  18.853 108.921  0.00  0.00     0.152 C 
ATOM     17  H   IDS d 506      16.633  18.434 107.345  0.00  0.00     0.210 HD
ATOM     18  H   IDS d 506      19.463  19.995 105.638  0.00  0.00     0.210 HD
ATOM     19  H   IDS d 506      18.925  18.272 106.952  0.00  0.00     0.091 H 
ATOM     20  H   IDS d 506      18.561  22.336 107.950  0.00  0.00     0.097 H 
ATOM     21  H   IDS d 506      20.213  21.281 109.216  0.00  0.00     0.133 H 
ATOM     22  H   IDS d 506      17.376  20.359 106.697  0.00  0.00     0.091 H 
ATOM     23  H   IDS d 506      20.400  19.129 108.506  0.00  0.00     0.104 H 
ATOM     24  O62 IDS d 502      29.782  29.894 106.599  0.00  0.00    -0.646 OA
ATOM     25  O2  IDS d 502      27.495  32.383 111.126  0.00  0.00    -0.244 OA
ATOM     26  S   IDS d 502      26.100  32.926 111.578  0.00  0.00     0.252 S 
ATOM     27  O3  IDS d 502      29.080  34.180 108.460  0.00  0.00    -0.390 OA
ATOM     28  O2S IDS d 502      25.192  31.806 111.489  0.00  0.00    -0.572 OA
ATOM     29  C4  IDS d 502      28.218  31.941 108.283  0.00  0.00     0.103 C 
ATOM     30  C1  IDS d 502      29.820  32.285 110.672  0.00  0.00     0.158 C 
ATOM     31  O61 IDS d 502      29.838  28.892 108.414  0.00  0.00    -0.646 OA
ATOM     32  C6  IDS d 502      29.738  29.935 107.813  0.00  0.00     0.206 C 
ATOM     33  O1  IDS d 502      30.895  33.102 110.291  0.00  0.00    -0.368 OA
ATOM     34  C3  IDS d 502      28.157  33.280 109.041  0.00  0.00     0.094 C 
ATOM     35  O3S IDS d 502      26.308  33.400 112.922  0.00  0.00    -0.572 OA
ATOM     36  O5  IDS d 502      29.764  31.089 109.936  0.00  0.00    -0.340 OA
ATOM     37  C2  IDS d 502      28.537  33.094 110.513  0.00  0.00     0.134 C 
ATOM     38  O4  IDS d 502      27.173  31.107 108.715  0.00  0.00    -0.348 OA
ATOM     39  O1S IDS d 502      25.746  33.990 110.679  0.00  0.00    -0.572 OA
ATOM     40  C5  IDS d 502      29.557  31.256 108.547  0.00  0.00     0.152 C 
ATOM     41  H   IDS d 502      28.858  34.312 107.525  0.00  0.00     0.210 HD
ATOM     42  H   IDS d 502      28.117  32.126 107.234  0.00  0.00     0.092 H 
ATOM     43  H   IDS d 502      29.951  31.988 111.691  0.00  0.00     0.133 H 
ATOM     44  H   IDS d 502      30.783  33.375 109.367  0.00  0.00     0.212 HD
ATOM     45  H   IDS d 502      27.157  33.657 108.981  0.00  0.00     0.091 H 
ATOM     46  H   IDS d 502      28.694  34.056 110.954  0.00  0.00     0.097 H 
ATOM     47  H   IDS d 502      30.302  31.912 108.149  0.00  0.00     0.104 H 
ATOM     48  S2  SGN d 505      16.523  24.107 113.601  0.00  0.00     0.251 S 
ATOM     49  O6  SGN d 505      17.837  23.685 112.960  0.00  0.00    -0.254 OA
ATOM     50  O5S SGN d 505      16.885  24.512 114.937  0.00  0.00    -0.572 OA
ATOM     51  C6  SGN d 505      18.485  24.292 111.896  0.00  0.00     0.067 C 
ATOM     52  O2S SGN d 505      23.250  20.200 115.000  0.00  0.00    -0.296 OA
ATOM     53  S1  SGN d 505      23.924  21.367 114.479  0.00  0.00     0.156 S 
ATOM     54  O6S SGN d 505      15.999  25.209 112.807  0.00  0.00    -0.572 OA
ATOM     55  O4  SGN d 505      18.855  21.897 110.585  0.00  0.00    -0.348 OA
ATOM     56  O5  SGN d 505      20.504  23.959 112.974  0.00  0.00    -0.349 OA
ATOM     57  O4S SGN d 505      15.688  22.928 113.538  0.00  0.00    -0.572 OA
ATOM     58  C1  SGN d 505      21.838  23.536 112.984  0.00  0.00     0.150 C 
ATOM     59  O1S SGN d 505      23.625  22.562 115.239  0.00  0.00    -0.296 OA
ATOM     60  N   SGN d 505      23.297  21.575 112.939  0.00  0.00    -0.210 NA
ATOM     61  C3  SGN d 505      21.155  21.586 111.549  0.00  0.00     0.083 C 
ATOM     62  C2  SGN d 505      21.892  22.029 112.828  0.00  0.00     0.081 C 
ATOM     63  O3S SGN d 505      25.317  21.137 114.332  0.00  0.00    -0.296 OA
ATOM     64  C4  SGN d 505      19.704  22.131 111.690  0.00  0.00     0.095 C 
ATOM     65  C5  SGN d 505      19.815  23.616 111.810  0.00  0.00     0.091 C 
ATOM     66  O3  SGN d 505      21.151  20.165 111.500  0.00  0.00    -0.391 OA
ATOM     67  H   SGN d 505      18.607  25.339 112.080  0.00  0.00     0.080 H 
ATOM     68  H   SGN d 505      17.931  24.201 110.985  0.00  0.00     0.080 H 
ATOM     69  H   SGN d 505      22.302  20.388 115.089  0.00  0.00     0.231 HD
ATOM     70  H   SGN d 505      22.290  23.795 113.919  0.00  0.00     0.131 H 
ATOM     71  H   SGN d 505      22.663  22.670 115.308  0.00  0.00     0.231 HD
ATOM     72  H   SGN d 505      23.368  20.679 112.457  0.00  0.00     0.140 HD
ATOM     73  H   SGN d 505      21.616  21.951 110.655  0.00  0.00     0.089 H 
ATOM     74  H   SGN d 505      21.362  21.543 113.620  0.00  0.00     0.076 H 
ATOM     75  H   SGN d 505      25.458  20.327 113.818  0.00  0.00     0.231 HD
ATOM     76  H   SGN d 505      19.274  21.625 112.529  0.00  0.00     0.091 H 
ATOM     77  H   SGN d 505      20.328  23.938 110.927  0.00  0.00     0.090 H 
ATOM     78  H   SGN d 505      20.737  19.815 112.304  0.00  0.00     0.210 HD
ATOM     79  C6  SGN d 503      27.524  27.022 108.513  0.00  0.00     0.067 C 
ATOM     80  O6  SGN d 503      26.922  26.412 107.391  0.00  0.00    -0.254 OA
ATOM     81  C4  SGN d 503      25.301  28.173 109.041  0.00  0.00     0.095 C 
ATOM     82  O5  SGN d 503      27.031  29.072 107.609  0.00  0.00    -0.349 OA
ATOM     83  O4  SGN d 503      25.135  27.512 110.252  0.00  0.00    -0.348 OA
ATOM     84  S1  SGN d 503      24.086  32.418 106.571  0.00  0.00     0.156 S 
ATOM     85  O4S SGN d 503      28.629  24.737 107.073  0.00  0.00    -0.572 OA
ATOM     86  O2S SGN d 503      23.214  31.513 105.824  0.00  0.00    -0.296 OA
ATOM     87  C3  SGN d 503      24.648  29.549 109.147  0.00  0.00     0.083 C 
ATOM     88  S2  SGN d 503      27.639  25.484 106.375  0.00  0.00     0.251 S 
ATOM     89  O5S SGN d 503      26.617  24.622 105.789  0.00  0.00    -0.572 OA
ATOM     90  C1  SGN d 503      26.538  30.386 107.694  0.00  0.00     0.150 C 
ATOM     91  O1S SGN d 503      25.336  32.666 105.876  0.00  0.00    -0.296 OA
ATOM     92  O6S SGN d 503      28.252  26.382 105.476  0.00  0.00    -0.572 OA
ATOM     93  C2  SGN d 503      25.018  30.350 107.912  0.00  0.00     0.081 C 
ATOM     94  N   SGN d 503      24.482  31.699 107.975  0.00  0.00    -0.210 NA
ATOM     95  O3  SGN d 503      23.246  29.369 109.202  0.00  0.00    -0.391 OA
ATOM     96  C5  SGN d 503      26.807  28.321 108.761  0.00  0.00     0.091 C 
ATOM     97  O3S SGN d 503      23.437  33.639 106.995  0.00  0.00    -0.296 OA
ATOM     98  H   SGN d 503      27.433  26.385 109.367  0.00  0.00     0.080 H 
ATOM     99  H   SGN d 503      28.565  27.195 108.333  0.00  0.00     0.080 H 
ATOM    100  H   SGN d 503      24.847  27.625 108.242  0.00  0.00     0.091 H 
ATOM    101  H   SGN d 503      23.711  30.720 105.572  0.00  0.00     0.231 HD
ATOM    102  H   SGN d 503      24.980  30.069 110.022  0.00  0.00     0.089 H 
ATOM    103  H   SGN d 503      26.749  30.890 106.775  0.00  0.00     0.131 H 
ATOM    104  H   SGN d 503      25.731  31.821 105.612  0.00  0.00     0.231 HD
ATOM    105  H   SGN d 503      24.577  29.854 107.074  0.00  0.00     0.076 H 
ATOM    106  H   SGN d 503      23.640  31.665 108.549  0.00  0.00     0.140 HD
ATOM    107  H   SGN d 503      22.949  28.898 108.408  0.00  0.00     0.210 HD
ATOM    108  H   SGN d 503      27.182  28.783 109.651  0.00  0.00     0.090 H 
ATOM    109  H   SGN d 503      24.071  34.189 107.481  0.00  0.00     0.231 HD
ATOM    110  O61 IDS d 504      20.625  25.855 109.792  0.00  0.00    -0.646 OA
ATOM    111  O62 IDS d 504      20.338  27.292 111.303  0.00  0.00    -0.646 OA
ATOM    112  O3S IDS d 504      27.614  23.977 110.594  0.00  0.00    -0.572 OA
ATOM    113  S   IDS d 504      26.574  23.126 111.037  0.00  0.00     0.252 S 
ATOM    114  C6  IDS d 504      21.096  26.534 110.695  0.00  0.00     0.206 C 
ATOM    115  O3  IDS d 504      24.588  26.943 113.125  0.00  0.00    -0.390 OA
ATOM    116  C1  IDS d 504      24.758  26.171 110.123  0.00  0.00     0.161 C 
ATOM    117  O2  IDS d 504      25.327  24.028 111.001  0.00  0.00    -0.244 OA
ATOM    118  C5  IDS d 504      22.584  26.427 111.072  0.00  0.00     0.152 C 
ATOM    119  C4  IDS d 504      22.885  25.535 112.275  0.00  0.00     0.103 C 
ATOM    120  O5  IDS d 504      23.345  26.013 109.961  0.00  0.00    -0.340 OA
ATOM    121  O4  IDS d 504      22.564  24.185 111.974  0.00  0.00    -0.348 OA
ATOM    122  C2  IDS d 504      25.267  25.414 111.332  0.00  0.00     0.134 C 
ATOM    123  O1S IDS d 504      26.747  22.738 112.389  0.00  0.00    -0.572 OA
ATOM    124  O2S IDS d 504      26.317  21.997 110.192  0.00  0.00    -0.572 OA
ATOM    125  C3  IDS d 504      24.365  25.638 112.607  0.00  0.00     0.094 C 
ATOM    126  H   IDS d 504      24.032  27.079 113.909  0.00  0.00     0.210 HD
ATOM    127  H   IDS d 504      25.196  25.773 109.231  0.00  0.00     0.133 H 
ATOM    128  H   IDS d 504      22.864  27.415 111.373  0.00  0.00     0.104 H 
ATOM    129  H   IDS d 504      22.297  25.855 113.110  0.00  0.00     0.092 H 
ATOM    130  H   IDS d 504      26.239  25.784 111.583  0.00  0.00     0.097 H 
ATOM    131  H   IDS d 504      24.628  24.880 113.315  0.00  0.00     0.091 H 
ENDROOT
TORSDOF 40
ENDMDL
MODEL 24
REMARK VINA RESULT:     -10.3      4.709     12.047
REMARK  0 active torsions:
REMARK  status: ('A' for Active; 'I' for Inactive)
REMARK       I    between atoms: C6_1  and  C5_82 
REMARK       I    between atoms: O2_4  and  C2_65 
REMARK       I    between atoms: O2_4  and  S_6 
REMARK       I    between atoms: S2_5  and  O6_13 
REMARK       I    between atoms: C6_7  and  C5_66 
REMARK       I    between atoms: C6_7  and  O6_11 
REMARK       I    between atoms: S_8  and  O2_37 
REMARK       I    between atoms: O6_11  and  S2_34 
REMARK       I    between atoms: O6_13  and  C6_16 
REMARK       I    between atoms: C6_16  and  C5_76 
REMARK       I    between atoms: O2S_17  and  S1_21 
REMARK       I    between atoms: O4_18  and  C4_33 
REMARK       I    between atoms: C4_19  and  O4_25 
REMARK       I    between atoms: O3_20  and  C3_57 
REMARK       I    between atoms: S1_21  and  N_56 
REMARK       I    between atoms: S1_21  and  O1S_55 
REMARK       I    between atoms: S1_21  and  O3S_68 
REMARK       I    between atoms: O3_24  and  C3_80 
REMARK       I    between atoms: O4_25  and  C1_53 
REMARK       I    between atoms: S1_26  and  N_59 
REMARK       I    between atoms: S1_26  and  O1S_42 
REMARK       I    between atoms: S1_26  and  O2S_29 
REMARK       I    between atoms: S1_26  and  O3S_87 
REMARK       I    between atoms: S_30  and  O2_54 
REMARK       I    between atoms: C3_31  and  O3_61 
REMARK       I    between atoms: O4_36  and  C4_70 
REMARK       I    between atoms: O4_36  and  C1_52 
REMARK       I    between atoms: O2_37  and  C2_45 
REMARK       I    between atoms: C4_38  and  O4_71 
REMARK       I    between atoms: C1_39  and  O1_51 
REMARK       I    between atoms: C1_40  and  O4_71 
REMARK       I    between atoms: C6_46  and  C5_84 
REMARK       I    between atoms: C6_47  and  C5_64 
REMARK       I    between atoms: C1_48  and  O4_77 
REMARK       I    between atoms: O3_50  and  C3_86 
REMARK       I    between atoms: O2_54  and  C2_79 
REMARK       I    between atoms: N_56  and  C2_67 
REMARK       I    between atoms: C2_58  and  N_59 
REMARK       I    between atoms: C3_62  and  O3_81 
REMARK       I    between atoms: C4_69  and  O4_77 
ROOT
ATOM      1  C6  IDS d 506      39.503  22.945 107.256  0.00  0.00     0.206 C 
ATOM      2  O62 IDS d 506      40.125  22.196 106.522  0.00  0.00    -0.646 OA
ATOM      3  S   IDS d 506      38.038  21.589 113.203  0.00  0.00     0.252 S 
ATOM      4  O1S IDS d 506      38.262  20.218 112.864  0.00  0.00    -0.572 OA
ATOM      5  O3S IDS d 506      36.781  21.809 113.887  0.00  0.00    -0.572 OA
ATOM      6  O4  IDS d 506      40.014  21.372 109.760  0.00  0.00    -0.390 OA
ATOM      7  O3  IDS d 506      36.708  20.070 109.314  0.00  0.00    -0.390 OA
ATOM      8  C4  IDS d 506      38.839  21.156 109.015  0.00  0.00     0.097 C 
ATOM      9  O2  IDS d 506      37.901  22.342 111.811  0.00  0.00    -0.244 OA
ATOM     10  C2  IDS d 506      37.074  22.010 110.713  0.00  0.00     0.134 C 
ATOM     11  C1  IDS d 506      36.915  23.223 109.785  0.00  0.00     0.161 C 
ATOM     12  O2S IDS d 506      39.166  22.140 113.900  0.00  0.00    -0.572 OA
ATOM     13  O5  IDS d 506      38.139  23.445 109.133  0.00  0.00    -0.340 OA
ATOM     14  O61 IDS d 506      39.720  24.145 107.168  0.00  0.00    -0.646 OA
ATOM     15  C3  IDS d 506      37.724  20.783 110.014  0.00  0.00     0.094 C 
ATOM     16  C5  IDS d 506      38.474  22.430 108.245  0.00  0.00     0.152 C 
ATOM     17  H   IDS d 506      40.242  20.564 110.246  0.00  0.00     0.210 HD
ATOM     18  H   IDS d 506      37.099  19.300 108.873  0.00  0.00     0.210 HD
ATOM     19  H   IDS d 506      38.974  20.371 108.300  0.00  0.00     0.091 H 
ATOM     20  H   IDS d 506      36.082  21.749 111.018  0.00  0.00     0.097 H 
ATOM     21  H   IDS d 506      36.132  23.046 109.078  0.00  0.00     0.133 H 
ATOM     22  H   IDS d 506      38.180  20.192 110.782  0.00  0.00     0.091 H 
ATOM     23  H   IDS d 506      37.640  22.136 107.642  0.00  0.00     0.104 H 
ATOM     24  O62 IDS d 502      23.284  22.244 106.454  0.00  0.00    -0.646 OA
ATOM     25  O2  IDS d 502      23.269  26.775 109.829  0.00  0.00    -0.244 OA
ATOM     26  S   IDS d 502      23.715  27.149 111.280  0.00  0.00     0.252 S 
ATOM     27  O3  IDS d 502      20.534  24.470 109.585  0.00  0.00    -0.390 OA
ATOM     28  O2S IDS d 502      25.129  26.859 111.345  0.00  0.00    -0.572 OA
ATOM     29  C4  IDS d 502      22.802  23.980 108.949  0.00  0.00     0.103 C 
ATOM     30  C1  IDS d 502      21.920  26.530 107.894  0.00  0.00     0.158 C 
ATOM     31  O61 IDS d 502      24.303  23.942 105.838  0.00  0.00    -0.646 OA
ATOM     32  C6  IDS d 502      23.446  23.447 106.529  0.00  0.00     0.206 C 
ATOM     33  O1  IDS d 502      20.585  26.339 107.509  0.00  0.00    -0.368 OA
ATOM     34  C3  IDS d 502      21.874  24.866 109.802  0.00  0.00     0.094 C 
ATOM     35  O3S IDS d 502      23.403  28.549 111.411  0.00  0.00    -0.572 OA
ATOM     36  O5  IDS d 502      22.806  25.672 107.220  0.00  0.00    -0.340 OA
ATOM     37  C2  IDS d 502      22.004  26.339 109.405  0.00  0.00     0.134 C 
ATOM     38  O4  IDS d 502      24.140  24.224 109.300  0.00  0.00    -0.348 OA
ATOM     39  O1S IDS d 502      22.949  26.338 112.185  0.00  0.00    -0.572 OA
ATOM     40  C5  IDS d 502      22.601  24.295 107.468  0.00  0.00     0.152 C 
ATOM     41  H   IDS d 502      20.428  23.537 109.831  0.00  0.00     0.210 HD
ATOM     42  H   IDS d 502      22.567  22.952 109.127  0.00  0.00     0.092 H 
ATOM     43  H   IDS d 502      22.223  27.521 107.626  0.00  0.00     0.133 H 
ATOM     44  H   IDS d 502      20.305  25.442 107.749  0.00  0.00     0.212 HD
ATOM     45  H   IDS d 502      22.151  24.752 110.830  0.00  0.00     0.091 H 
ATOM     46  H   IDS d 502      21.206  26.891 109.855  0.00  0.00     0.097 H 
ATOM     47  H   IDS d 502      21.585  24.039 107.252  0.00  0.00     0.104 H 
ATOM     48  S2  SGN d 505      36.650  27.341 113.781  0.00  0.00     0.251 S 
ATOM     49  O6  SGN d 505      36.128  26.785 112.465  0.00  0.00    -0.254 OA
ATOM     50  O5S SGN d 505      36.300  28.740 113.747  0.00  0.00    -0.572 OA
ATOM     51  C6  SGN d 505      35.114  25.855 112.290  0.00  0.00     0.067 C 
ATOM     52  O2S SGN d 505      36.020  28.943 106.067  0.00  0.00    -0.296 OA
ATOM     53  S1  SGN d 505      34.621  28.612 106.210  0.00  0.00     0.156 S 
ATOM     54  O6S SGN d 505      35.966  26.621 114.847  0.00  0.00    -0.572 OA
ATOM     55  O4  SGN d 505      36.627  24.341 110.554  0.00  0.00    -0.348 OA
ATOM     56  O5  SGN d 505      34.347  27.074 110.481  0.00  0.00    -0.349 OA
ATOM     57  O4S SGN d 505      38.071  27.078 113.753  0.00  0.00    -0.572 OA
ATOM     58  C1  SGN d 505      33.904  27.164 109.157  0.00  0.00     0.150 C 
ATOM     59  O1S SGN d 505      33.948  29.461 107.170  0.00  0.00    -0.296 OA
ATOM     60  N   SGN d 505      34.607  27.050 106.818  0.00  0.00    -0.210 NA
ATOM     61  C3  SGN d 505      35.662  25.476 108.531  0.00  0.00     0.083 C 
ATOM     62  C2  SGN d 505      35.054  26.857 108.218  0.00  0.00     0.081 C 
ATOM     63  O3S SGN d 505      33.968  28.571 104.951  0.00  0.00    -0.296 OA
ATOM     64  C4  SGN d 505      36.097  25.538 110.024  0.00  0.00     0.095 C 
ATOM     65  C5  SGN d 505      34.862  25.822 110.817  0.00  0.00     0.091 C 
ATOM     66  O3  SGN d 505      36.791  25.279 107.690  0.00  0.00    -0.391 OA
ATOM     67  H   SGN d 505      34.233  26.157 112.815  0.00  0.00     0.080 H 
ATOM     68  H   SGN d 505      35.385  24.892 112.670  0.00  0.00     0.080 H 
ATOM     69  H   SGN d 505      36.438  28.963 106.942  0.00  0.00     0.231 HD
ATOM     70  H   SGN d 505      33.563  28.159 108.959  0.00  0.00     0.131 H 
ATOM     71  H   SGN d 505      34.436  29.451 108.009  0.00  0.00     0.231 HD
ATOM     72  H   SGN d 505      35.214  26.485 106.223  0.00  0.00     0.140 HD
ATOM     73  H   SGN d 505      34.975  24.672 108.365  0.00  0.00     0.089 H 
ATOM     74  H   SGN d 505      35.862  27.542 108.365  0.00  0.00     0.076 H 
ATOM     75  H   SGN d 505      34.460  27.990 104.350  0.00  0.00     0.231 HD
ATOM     76  H   SGN d 505      36.869  26.275 110.081  0.00  0.00     0.091 H 
ATOM     77  H   SGN d 505      34.182  25.029 110.585  0.00  0.00     0.090 H 
ATOM     78  H   SGN d 505      37.425  26.000 107.827  0.00  0.00     0.210 HD
ATOM     79  C6  SGN d 503      27.166  23.629 106.591  0.00  0.00     0.067 C 
ATOM     80  O6  SGN d 503      27.850  22.399 106.700  0.00  0.00    -0.254 OA
ATOM     81  C4  SGN d 503      27.624  24.066 109.071  0.00  0.00     0.095 C 
ATOM     82  O5  SGN d 503      25.693  22.903 108.193  0.00  0.00    -0.349 OA
ATOM     83  O4  SGN d 503      28.418  25.181 108.827  0.00  0.00    -0.348 OA
ATOM     84  S1  SGN d 503      24.604  21.951 112.536  0.00  0.00     0.156 S 
ATOM     85  O4S SGN d 503      28.141  22.067 104.328  0.00  0.00    -0.572 OA
ATOM     86  O2S SGN d 503      25.734  21.036 112.691  0.00  0.00    -0.296 OA
ATOM     87  C3  SGN d 503      26.923  24.255 110.414  0.00  0.00     0.083 C 
ATOM     88  S2  SGN d 503      28.029  21.362 105.559  0.00  0.00     0.251 S 
ATOM     89  O5S SGN d 503      29.234  20.597 105.862  0.00  0.00    -0.572 OA
ATOM     90  C1  SGN d 503      24.946  23.079 109.371  0.00  0.00     0.150 C 
ATOM     91  O1S SGN d 503      23.577  21.406 111.668  0.00  0.00    -0.296 OA
ATOM     92  O6S SGN d 503      26.827  20.623 105.587  0.00  0.00    -0.572 OA
ATOM     93  C2  SGN d 503      25.895  23.150 110.576  0.00  0.00     0.081 C 
ATOM     94  N   SGN d 503      25.142  23.304 111.808  0.00  0.00    -0.210 NA
ATOM     95  O3  SGN d 503      27.897  24.160 111.436  0.00  0.00    -0.391 OA
ATOM     96  C5  SGN d 503      26.584  23.945 107.943  0.00  0.00     0.091 C 
ATOM     97  O3S SGN d 503      24.070  22.438 113.787  0.00  0.00    -0.296 OA
ATOM     98  H   SGN d 503      27.847  24.401 106.298  0.00  0.00     0.080 H 
ATOM     99  H   SGN d 503      26.393  23.566 105.854  0.00  0.00     0.080 H 
ATOM    100  H   SGN d 503      28.217  23.176 109.101  0.00  0.00     0.091 H 
ATOM    101  H   SGN d 503      26.041  20.750 111.816  0.00  0.00     0.231 HD
ATOM    102  H   SGN d 503      26.436  25.206 110.466  0.00  0.00     0.089 H 
ATOM    103  H   SGN d 503      24.291  22.241 109.488  0.00  0.00     0.131 H 
ATOM    104  H   SGN d 503      23.983  21.093 110.844  0.00  0.00     0.231 HD
ATOM    105  H   SGN d 503      26.433  22.227 110.626  0.00  0.00     0.076 H 
ATOM    106  H   SGN d 503      25.742  23.790 112.473  0.00  0.00     0.140 HD
ATOM    107  H   SGN d 503      28.336  23.296 111.385  0.00  0.00     0.210 HD
ATOM    108  H   SGN d 503      26.120  24.909 107.926  0.00  0.00     0.090 H 
ATOM    109  H   SGN d 503      23.326  23.036 113.610  0.00  0.00     0.231 HD
ATOM    110  O61 IDS d 504      32.320  24.134 111.468  0.00  0.00    -0.646 OA
ATOM    111  O62 IDS d 504      31.551  25.753 112.571  0.00  0.00    -0.646 OA
ATOM    112  O3S IDS d 504      29.834  25.380 104.739  0.00  0.00    -0.572 OA
ATOM    113  S   IDS d 504      31.184  25.634 105.077  0.00  0.00     0.252 S 
ATOM    114  C6  IDS d 504      31.627  25.142 111.503  0.00  0.00     0.206 C 
ATOM    115  O3  IDS d 504      29.592  27.915 108.967  0.00  0.00    -0.390 OA
ATOM    116  C1  IDS d 504      29.691  24.878 108.334  0.00  0.00     0.161 C 
ATOM    117  O2  IDS d 504      31.190  25.576 106.616  0.00  0.00    -0.244 OA
ATOM    118  C5  IDS d 504      30.893  25.643 110.248  0.00  0.00     0.152 C 
ATOM    119  C4  IDS d 504      31.596  26.768 109.491  0.00  0.00     0.103 C 
ATOM    120  O5  IDS d 504      30.623  24.569 109.375  0.00  0.00    -0.340 OA
ATOM    121  O4  IDS d 504      32.820  26.300 108.945  0.00  0.00    -0.348 OA
ATOM    122  C2  IDS d 504      30.165  26.044 107.490  0.00  0.00     0.134 C 
ATOM    123  O1S IDS d 504      31.581  26.948 104.724  0.00  0.00    -0.572 OA
ATOM    124  O2S IDS d 504      32.118  24.655 104.603  0.00  0.00    -0.572 OA
ATOM    125  C3  IDS d 504      30.693  27.245 108.365  0.00  0.00     0.094 C 
ATOM    126  H   IDS d 504      29.919  28.654 109.505  0.00  0.00     0.210 HD
ATOM    127  H   IDS d 504      29.627  23.994 107.734  0.00  0.00     0.133 H 
ATOM    128  H   IDS d 504      29.983  26.070 110.612  0.00  0.00     0.104 H 
ATOM    129  H   IDS d 504      31.802  27.574 110.165  0.00  0.00     0.092 H 
ATOM    130  H   IDS d 504      29.335  26.420 106.930  0.00  0.00     0.097 H 
ATOM    131  H   IDS d 504      31.242  27.892 107.713  0.00  0.00     0.091 H 
ENDROOT
TORSDOF 40
ENDMDL
MODEL 25
REMARK VINA RESULT:     -10.3      4.157      9.188
REMARK  0 active torsions:
REMARK  status: ('A' for Active; 'I' for Inactive)
REMARK       I    between atoms: C6_1  and  C5_82 
REMARK       I    between atoms: O2_4  and  C2_65 
REMARK       I    between atoms: O2_4  and  S_6 
REMARK       I    between atoms: S2_5  and  O6_13 
REMARK       I    between atoms: C6_7  and  C5_66 
REMARK       I    between atoms: C6_7  and  O6_11 
REMARK       I    between atoms: S_8  and  O2_37 
REMARK       I    between atoms: O6_11  and  S2_34 
REMARK       I    between atoms: O6_13  and  C6_16 
REMARK       I    between atoms: C6_16  and  C5_76 
REMARK       I    between atoms: O2S_17  and  S1_21 
REMARK       I    between atoms: O4_18  and  C4_33 
REMARK       I    between atoms: C4_19  and  O4_25 
REMARK       I    between atoms: O3_20  and  C3_57 
REMARK       I    between atoms: S1_21  and  N_56 
REMARK       I    between atoms: S1_21  and  O1S_55 
REMARK       I    between atoms: S1_21  and  O3S_68 
REMARK       I    between atoms: O3_24  and  C3_80 
REMARK       I    between atoms: O4_25  and  C1_53 
REMARK       I    between atoms: S1_26  and  N_59 
REMARK       I    between atoms: S1_26  and  O1S_42 
REMARK       I    between atoms: S1_26  and  O2S_29 
REMARK       I    between atoms: S1_26  and  O3S_87 
REMARK       I    between atoms: S_30  and  O2_54 
REMARK       I    between atoms: C3_31  and  O3_61 
REMARK       I    between atoms: O4_36  and  C4_70 
REMARK       I    between atoms: O4_36  and  C1_52 
REMARK       I    between atoms: O2_37  and  C2_45 
REMARK       I    between atoms: C4_38  and  O4_71 
REMARK       I    between atoms: C1_39  and  O1_51 
REMARK       I    between atoms: C1_40  and  O4_71 
REMARK       I    between atoms: C6_46  and  C5_84 
REMARK       I    between atoms: C6_47  and  C5_64 
REMARK       I    between atoms: C1_48  and  O4_77 
REMARK       I    between atoms: O3_50  and  C3_86 
REMARK       I    between atoms: O2_54  and  C2_79 
REMARK       I    between atoms: N_56  and  C2_67 
REMARK       I    between atoms: C2_58  and  N_59 
REMARK       I    between atoms: C3_62  and  O3_81 
REMARK       I    between atoms: C4_69  and  O4_77 
ROOT
ATOM      1  C6  IDS d 506      15.695  27.838 111.500  0.00  0.00     0.206 C 
ATOM      2  O62 IDS d 506      15.273  28.437 112.474  0.00  0.00    -0.646 OA
ATOM      3  S   IDS d 506      16.069  21.586 111.129  0.00  0.00     0.252 S 
ATOM      4  O1S IDS d 506      15.997  21.575 112.558  0.00  0.00    -0.572 OA
ATOM      5  O3S IDS d 506      17.155  20.785 110.607  0.00  0.00    -0.572 OA
ATOM      6  O4  IDS d 506      14.808  25.126 112.429  0.00  0.00    -0.390 OA
ATOM      7  O3  IDS d 506      18.210  24.636 113.434  0.00  0.00    -0.390 OA
ATOM      8  C4  IDS d 506      16.115  25.575 112.698  0.00  0.00     0.097 C 
ATOM      9  O2  IDS d 506      16.425  23.087 110.746  0.00  0.00    -0.244 OA
ATOM     10  C2  IDS d 506      17.466  23.897 111.254  0.00  0.00     0.134 C 
ATOM     11  C1  IDS d 506      17.727  25.077 110.307  0.00  0.00     0.161 C 
ATOM     12  O2S IDS d 506      14.797  21.267 110.546  0.00  0.00    -0.572 OA
ATOM     13  O5  IDS d 506      16.640  25.963 110.393  0.00  0.00    -0.340 OA
ATOM     14  O61 IDS d 506      15.428  28.282 110.392  0.00  0.00    -0.646 OA
ATOM     15  C3  IDS d 506      17.037  24.338 112.681  0.00  0.00     0.094 C 
ATOM     16  C5  IDS d 506      16.544  26.587 111.631  0.00  0.00     0.152 C 
ATOM     17  H   IDS d 506      14.540  24.486 113.108  0.00  0.00     0.210 HD
ATOM     18  H   IDS d 506      17.958  24.913 114.329  0.00  0.00     0.210 HD
ATOM     19  H   IDS d 506      16.168  26.063 113.650  0.00  0.00     0.091 H 
ATOM     20  H   IDS d 506      18.395  23.370 111.318  0.00  0.00     0.097 H 
ATOM     21  H   IDS d 506      18.641  25.567 110.571  0.00  0.00     0.133 H 
ATOM     22  H   IDS d 506      16.479  23.528 113.103  0.00  0.00     0.091 H 
ATOM     23  H   IDS d 506      17.494  26.938 111.976  0.00  0.00     0.104 H 
ATOM     24  O62 IDS d 502      31.778  25.661 110.609  0.00  0.00    -0.646 OA
ATOM     25  O2  IDS d 502      30.872  23.683 105.395  0.00  0.00    -0.244 OA
ATOM     26  S   IDS d 502      30.132  22.485 104.714  0.00  0.00     0.252 S 
ATOM     27  O3  IDS d 502      33.736  22.828 107.374  0.00  0.00    -0.390 OA
ATOM     28  O2S IDS d 502      28.753  22.584 105.131  0.00  0.00    -0.572 OA
ATOM     29  C4  IDS d 502      31.666  23.683 108.253  0.00  0.00     0.103 C 
ATOM     30  C1  IDS d 502      32.579  25.222 105.975  0.00  0.00     0.158 C 
ATOM     31  O61 IDS d 502      30.796  26.876 109.246  0.00  0.00    -0.646 OA
ATOM     32  C6  IDS d 502      31.532  25.942 109.452  0.00  0.00     0.206 C 
ATOM     33  O1  IDS d 502      33.973  25.310 106.112  0.00  0.00    -0.368 OA
ATOM     34  C3  IDS d 502      32.357  22.956 107.084  0.00  0.00     0.094 C 
ATOM     35  O3S IDS d 502      30.329  22.686 103.302  0.00  0.00    -0.572 OA
ATOM     36  O5  IDS d 502      31.893  25.779 107.069  0.00  0.00    -0.340 OA
ATOM     37  C2  IDS d 502      32.217  23.753 105.784  0.00  0.00     0.134 C 
ATOM     38  O4  IDS d 502      30.273  23.643 108.076  0.00  0.00    -0.348 OA
ATOM     39  O1S IDS d 502      30.757  21.278 105.181  0.00  0.00    -0.572 OA
ATOM     40  C5  IDS d 502      32.129  25.138 108.306  0.00  0.00     0.152 C 
ATOM     41  H   IDS d 502      33.848  22.326 108.196  0.00  0.00     0.210 HD
ATOM     42  H   IDS d 502      31.924  23.197 109.171  0.00  0.00     0.092 H 
ATOM     43  H   IDS d 502      32.275  25.795 105.125  0.00  0.00     0.133 H 
ATOM     44  H   IDS d 502      34.255  24.792 106.882  0.00  0.00     0.212 HD
ATOM     45  H   IDS d 502      31.895  21.999 106.962  0.00  0.00     0.091 H 
ATOM     46  H   IDS d 502      32.879  23.340 105.052  0.00  0.00     0.097 H 
ATOM     47  H   IDS d 502      33.181  25.101 108.497  0.00  0.00     0.104 H 
ATOM     48  S2  SGN d 505      16.970  22.358 105.304  0.00  0.00     0.251 S 
ATOM     49  O6  SGN d 505      17.769  23.367 106.116  0.00  0.00    -0.254 OA
ATOM     50  O5S SGN d 505      17.235  22.709 103.930  0.00  0.00    -0.572 OA
ATOM     51  C6  SGN d 505      18.851  23.109 106.944  0.00  0.00     0.067 C 
ATOM     52  O2S SGN d 505      18.975  29.995 105.659  0.00  0.00    -0.296 OA
ATOM     53  S1  SGN d 505      20.337  29.533 105.788  0.00  0.00     0.156 S 
ATOM     54  O6S SGN d 505      17.478  21.038 105.650  0.00  0.00    -0.572 OA
ATOM     55  O4  SGN d 505      17.794  24.602 109.006  0.00  0.00    -0.348 OA
ATOM     56  O5  SGN d 505      19.877  25.023 106.149  0.00  0.00    -0.349 OA
ATOM     57  O4S SGN d 505      15.600  22.555 105.718  0.00  0.00    -0.572 OA
ATOM     58  C1  SGN d 505      20.560  26.228 106.352  0.00  0.00     0.150 C 
ATOM     59  O1S SGN d 505      20.761  28.739 104.654  0.00  0.00    -0.296 OA
ATOM     60  N   SGN d 505      20.328  28.532 107.133  0.00  0.00    -0.210 NA
ATOM     61  C3  SGN d 505      19.060  26.662 108.324  0.00  0.00     0.083 C 
ATOM     62  C2  SGN d 505      19.633  27.230 107.011  0.00  0.00     0.081 C 
ATOM     63  O3S SGN d 505      21.222  30.605 106.077  0.00  0.00    -0.296 OA
ATOM     64  C4  SGN d 505      18.344  25.338 107.933  0.00  0.00     0.095 C 
ATOM     65  C5  SGN d 505      19.383  24.454 107.323  0.00  0.00     0.091 C 
ATOM     66  O3  SGN d 505      18.128  27.597 108.851  0.00  0.00    -0.391 OA
ATOM     67  H   SGN d 505      19.595  22.544 106.424  0.00  0.00     0.080 H 
ATOM     68  H   SGN d 505      18.571  22.535 107.802  0.00  0.00     0.080 H 
ATOM     69  H   SGN d 505      18.396  29.242 105.463  0.00  0.00     0.231 HD
ATOM     70  H   SGN d 505      20.873  26.626 105.408  0.00  0.00     0.131 H 
ATOM     71  H   SGN d 505      20.122  28.024 104.504  0.00  0.00     0.231 HD
ATOM     72  H   SGN d 505      19.882  29.047 107.893  0.00  0.00     0.140 HD
ATOM     73  H   SGN d 505      19.813  26.486 109.065  0.00  0.00     0.089 H 
ATOM     74  H   SGN d 505      18.772  27.412 106.404  0.00  0.00     0.076 H 
ATOM     75  H   SGN d 505      20.891  31.101 106.842  0.00  0.00     0.231 HD
ATOM     76  H   SGN d 505      17.531  25.615 107.294  0.00  0.00     0.091 H 
ATOM     77  H   SGN d 505      20.141  24.345 108.070  0.00  0.00     0.090 H 
ATOM     78  H   SGN d 505      17.437  27.771 108.192  0.00  0.00     0.210 HD
ATOM     79  C6  SGN d 503      27.866  26.562 109.667  0.00  0.00     0.067 C 
ATOM     80  O6  SGN d 503      27.250  26.243 110.895  0.00  0.00    -0.254 OA
ATOM     81  C4  SGN d 503      26.914  24.408 108.665  0.00  0.00     0.095 C 
ATOM     82  O5  SGN d 503      29.044  24.598 109.796  0.00  0.00    -0.349 OA
ATOM     83  O4  SGN d 503      26.117  25.075 107.743  0.00  0.00    -0.348 OA
ATOM     84  S1  SGN d 503      29.333  20.041 109.487  0.00  0.00     0.156 S 
ATOM     85  O4S SGN d 503      27.440  28.451 111.850  0.00  0.00    -0.572 OA
ATOM     86  O2S SGN d 503      28.252  19.838 110.450  0.00  0.00    -0.296 OA
ATOM     87  C3  SGN d 503      27.331  23.067 108.066  0.00  0.00     0.083 C 
ATOM     88  S2  SGN d 503      27.356  27.074 112.201  0.00  0.00     0.251 S 
ATOM     89  O5S SGN d 503      26.163  26.784 112.991  0.00  0.00    -0.572 OA
ATOM     90  C1  SGN d 503      29.539  23.403 109.246  0.00  0.00     0.150 C 
ATOM     91  O1S SGN d 503      30.539  20.542 110.120  0.00  0.00    -0.296 OA
ATOM     92  O6S SGN d 503      28.572  26.645 112.774  0.00  0.00    -0.572 OA
ATOM     93  C2  SGN d 503      28.374  22.441 108.975  0.00  0.00     0.081 C 
ATOM     94  N   SGN d 503      28.865  21.187 108.431  0.00  0.00    -0.210 NA
ATOM     95  O3  SGN d 503      26.187  22.238 108.003  0.00  0.00    -0.391 OA
ATOM     96  C5  SGN d 503      28.157  25.268 108.956  0.00  0.00     0.091 C 
ATOM     97  O3S SGN d 503      29.587  18.896 108.642  0.00  0.00    -0.296 OA
ATOM     98  H   SGN d 503      27.209  27.164 109.074  0.00  0.00     0.080 H 
ATOM     99  H   SGN d 503      28.768  27.113 109.830  0.00  0.00     0.080 H 
ATOM    100  H   SGN d 503      26.382  24.239 109.578  0.00  0.00     0.091 H 
ATOM    101  H   SGN d 503      28.137  20.641 110.981  0.00  0.00     0.231 HD
ATOM    102  H   SGN d 503      27.741  23.192 107.086  0.00  0.00     0.089 H 
ATOM    103  H   SGN d 503      30.208  22.954 109.950  0.00  0.00     0.131 H 
ATOM    104  H   SGN d 503      30.318  21.306 110.674  0.00  0.00     0.231 HD
ATOM    105  H   SGN d 503      27.892  22.235 109.907  0.00  0.00     0.076 H 
ATOM    106  H   SGN d 503      28.120  20.790 107.860  0.00  0.00     0.140 HD
ATOM    107  H   SGN d 503      25.818  22.127 108.894  0.00  0.00     0.210 HD
ATOM    108  H   SGN d 503      28.556  25.465 107.983  0.00  0.00     0.090 H 
ATOM    109  H   SGN d 503      30.313  19.099 108.031  0.00  0.00     0.231 HD
ATOM    110  O61 IDS d 504      21.850  22.950 108.503  0.00  0.00    -0.646 OA
ATOM    111  O62 IDS d 504      22.293  22.212 106.581  0.00  0.00    -0.646 OA
ATOM    112  O3S IDS d 504      25.504  29.243 108.746  0.00  0.00    -0.572 OA
ATOM    113  S   IDS d 504      24.101  29.220 108.564  0.00  0.00     0.252 S 
ATOM    114  C6  IDS d 504      22.461  23.072 107.449  0.00  0.00     0.206 C 
ATOM    115  O3  IDS d 504      24.775  25.880 105.208  0.00  0.00    -0.390 OA
ATOM    116  C1  IDS d 504      24.983  25.676 108.299  0.00  0.00     0.161 C 
ATOM    117  O2  IDS d 504      23.802  27.747 108.228  0.00  0.00    -0.244 OA
ATOM    118  C5  IDS d 504      23.391  24.272 107.208  0.00  0.00     0.152 C 
ATOM    119  C4  IDS d 504      22.780  25.413 106.395  0.00  0.00     0.103 C 
ATOM    120  O5  IDS d 504      23.888  24.764 108.431  0.00  0.00    -0.340 OA
ATOM    121  O4  IDS d 504      21.714  26.011 107.118  0.00  0.00    -0.348 OA
ATOM    122  C2  IDS d 504      24.610  26.871 107.445  0.00  0.00     0.134 C 
ATOM    123  O1S IDS d 504      23.701  29.977 107.434  0.00  0.00    -0.572 OA
ATOM    124  O2S IDS d 504      23.336  29.563 109.727  0.00  0.00    -0.572 OA
ATOM    125  C3  IDS d 504      23.853  26.456 106.125  0.00  0.00     0.094 C 
ATOM    126  H   IDS d 504      24.307  25.625 104.397  0.00  0.00     0.210 HD
ATOM    127  H   IDS d 504      25.213  25.995 109.294  0.00  0.00     0.133 H 
ATOM    128  H   IDS d 504      24.187  23.888 106.605  0.00  0.00     0.104 H 
ATOM    129  H   IDS d 504      22.400  25.027 105.472  0.00  0.00     0.092 H 
ATOM    130  H   IDS d 504      25.508  27.363 107.135  0.00  0.00     0.097 H 
ATOM    131  H   IDS d 504      23.401  27.341 105.729  0.00  0.00     0.091 H 
ENDROOT
TORSDOF 40
ENDMDL
MODEL 26
REMARK VINA RESULT:     -10.3      4.155      9.090
REMARK  0 active torsions:
REMARK  status: ('A' for Active; 'I' for Inactive)
REMARK       I    between atoms: C6_1  and  C5_82 
REMARK       I    between atoms: O2_4  and  C2_65 
REMARK       I    between atoms: O2_4  and  S_6 
REMARK       I    between atoms: S2_5  and  O6_13 
REMARK       I    between atoms: C6_7  and  C5_66 
REMARK       I    between atoms: C6_7  and  O6_11 
REMARK       I    between atoms: S_8  and  O2_37 
REMARK       I    between atoms: O6_11  and  S2_34 
REMARK       I    between atoms: O6_13  and  C6_16 
REMARK       I    between atoms: C6_16  and  C5_76 
REMARK       I    between atoms: O2S_17  and  S1_21 
REMARK       I    between atoms: O4_18  and  C4_33 
REMARK       I    between atoms: C4_19  and  O4_25 
REMARK       I    between atoms: O3_20  and  C3_57 
REMARK       I    between atoms: S1_21  and  N_56 
REMARK       I    between atoms: S1_21  and  O1S_55 
REMARK       I    between atoms: S1_21  and  O3S_68 
REMARK       I    between atoms: O3_24  and  C3_80 
REMARK       I    between atoms: O4_25  and  C1_53 
REMARK       I    between atoms: S1_26  and  N_59 
REMARK       I    between atoms: S1_26  and  O1S_42 
REMARK       I    between atoms: S1_26  and  O2S_29 
REMARK       I    between atoms: S1_26  and  O3S_87 
REMARK       I    between atoms: S_30  and  O2_54 
REMARK       I    between atoms: C3_31  and  O3_61 
REMARK       I    between atoms: O4_36  and  C4_70 
REMARK       I    between atoms: O4_36  and  C1_52 
REMARK       I    between atoms: O2_37  and  C2_45 
REMARK       I    between atoms: C4_38  and  O4_71 
REMARK       I    between atoms: C1_39  and  O1_51 
REMARK       I    between atoms: C1_40  and  O4_71 
REMARK       I    between atoms: C6_46  and  C5_84 
REMARK       I    between atoms: C6_47  and  C5_64 
REMARK       I    between atoms: C1_48  and  O4_77 
REMARK       I    between atoms: O3_50  and  C3_86 
REMARK       I    between atoms: O2_54  and  C2_79 
REMARK       I    between atoms: N_56  and  C2_67 
REMARK       I    between atoms: C2_58  and  N_59 
REMARK       I    between atoms: C3_62  and  O3_81 
REMARK       I    between atoms: C4_69  and  O4_77 
ROOT
ATOM      1  C6  IDS d 506      16.988  32.167 111.361  0.00  0.00     0.206 C 
ATOM      2  O62 IDS d 506      16.657  33.095 112.079  0.00  0.00    -0.646 OA
ATOM      3  S   IDS d 506      17.586  26.246 113.345  0.00  0.00     0.252 S 
ATOM      4  O1S IDS d 506      17.684  26.782 114.668  0.00  0.00    -0.572 OA
ATOM      5  O3S IDS d 506      18.636  25.301 113.034  0.00  0.00    -0.572 OA
ATOM      6  O4  IDS d 506      16.334  30.020 113.353  0.00  0.00    -0.390 OA
ATOM      7  O3  IDS d 506      19.850  29.934 114.032  0.00  0.00    -0.390 OA
ATOM      8  C4  IDS d 506      17.644  30.532 113.265  0.00  0.00     0.097 C 
ATOM      9  O2  IDS d 506      17.829  27.485 112.380  0.00  0.00    -0.244 OA
ATOM     10  C2  IDS d 506      18.887  28.423 112.407  0.00  0.00     0.134 C 
ATOM     11  C1  IDS d 506      18.983  29.150 111.059  0.00  0.00     0.161 C 
ATOM     12  O2S IDS d 506      16.269  25.734 113.092  0.00  0.00    -0.572 OA
ATOM     13  O5  IDS d 506      17.876  30.008 110.938  0.00  0.00    -0.340 OA
ATOM     14  O61 IDS d 506      16.573  32.157 110.210  0.00  0.00    -0.646 OA
ATOM     15  C3  IDS d 506      18.611  29.377 113.603  0.00  0.00     0.094 C 
ATOM     16  C5  IDS d 506      17.900  31.057 111.848  0.00  0.00     0.152 C 
ATOM     17  H   IDS d 506      16.176  29.689 114.251  0.00  0.00     0.210 HD
ATOM     18  H   IDS d 506      19.693  30.533 114.779  0.00  0.00     0.210 HD
ATOM     19  H   IDS d 506      17.787  31.345 113.945  0.00  0.00     0.091 H 
ATOM     20  H   IDS d 506      19.839  27.955 112.550  0.00  0.00     0.097 H 
ATOM     21  H   IDS d 506      19.899  29.700 111.001  0.00  0.00     0.133 H 
ATOM     22  H   IDS d 506      18.142  28.792 114.367  0.00  0.00     0.091 H 
ATOM     23  H   IDS d 506      18.868  31.509 111.912  0.00  0.00     0.104 H 
ATOM     24  O62 IDS d 502      32.933  29.736 109.351  0.00  0.00    -0.646 OA
ATOM     25  O2  IDS d 502      31.504  25.922 105.435  0.00  0.00    -0.244 OA
ATOM     26  S   IDS d 502      30.743  24.558 105.358  0.00  0.00     0.252 S 
ATOM     27  O3  IDS d 502      34.616  25.873 107.214  0.00  0.00    -0.390 OA
ATOM     28  O2S IDS d 502      29.419  24.816 105.875  0.00  0.00    -0.572 OA
ATOM     29  C4  IDS d 502      32.630  27.009 107.955  0.00  0.00     0.103 C 
ATOM     30  C1  IDS d 502      33.200  27.558 105.169  0.00  0.00     0.158 C 
ATOM     31  O61 IDS d 502      31.745  30.343 107.763  0.00  0.00    -0.646 OA
ATOM     32  C6  IDS d 502      32.540  29.555 108.214  0.00  0.00     0.206 C 
ATOM     33  O1  IDS d 502      34.595  27.684 105.086  0.00  0.00    -0.368 OA
ATOM     34  C3  IDS d 502      33.209  25.888 107.073  0.00  0.00     0.094 C 
ATOM     35  O3S IDS d 502      30.763  24.204 103.963  0.00  0.00    -0.572 OA
ATOM     36  O5  IDS d 502      32.624  28.493 106.046  0.00  0.00    -0.340 OA
ATOM     37  C2  IDS d 502      32.882  26.128 105.596  0.00  0.00     0.134 C 
ATOM     38  O4  IDS d 502      31.229  26.911 107.983  0.00  0.00    -0.348 OA
ATOM     39  O1S IDS d 502      31.470  23.618 106.165  0.00  0.00    -0.572 OA
ATOM     40  C5  IDS d 502      33.032  28.371 107.394  0.00  0.00     0.152 C 
ATOM     41  H   IDS d 502      34.847  25.722 108.144  0.00  0.00     0.210 HD
ATOM     42  H   IDS d 502      33.015  26.909 108.949  0.00  0.00     0.092 H 
ATOM     43  H   IDS d 502      32.773  27.764 104.210  0.00  0.00     0.133 H 
ATOM     44  H   IDS d 502      34.988  27.498 105.953  0.00  0.00     0.212 HD
ATOM     45  H   IDS d 502      32.778  24.958 107.382  0.00  0.00     0.091 H 
ATOM     46  H   IDS d 502      33.471  25.464 104.998  0.00  0.00     0.097 H 
ATOM     47  H   IDS d 502      34.100  28.405 107.450  0.00  0.00     0.104 H 
ATOM     48  S2  SGN d 505      17.760  24.731 107.599  0.00  0.00     0.251 S 
ATOM     49  O6  SGN d 505      18.604  25.970 107.861  0.00  0.00    -0.254 OA
ATOM     50  O5S SGN d 505      17.846  24.530 106.174  0.00  0.00    -0.572 OA
ATOM     51  C6  SGN d 505      19.787  26.042 108.582  0.00  0.00     0.067 C 
ATOM     52  O2S SGN d 505      19.459  31.916 104.776  0.00  0.00    -0.296 OA
ATOM     53  S1  SGN d 505      20.846  31.531 104.899  0.00  0.00     0.156 S 
ATOM     54  O6S SGN d 505      18.362  23.640 108.353  0.00  0.00    -0.572 OA
ATOM     55  O4  SGN d 505      18.917  28.214 110.038  0.00  0.00    -0.348 OA
ATOM     56  O5  SGN d 505      20.627  27.503 106.998  0.00  0.00    -0.349 OA
ATOM     57  O4S SGN d 505      16.441  25.078 108.076  0.00  0.00    -0.572 OA
ATOM     58  C1  SGN d 505      21.277  28.690 106.641  0.00  0.00     0.150 C 
ATOM     59  O1S SGN d 505      21.167  30.362 104.108  0.00  0.00    -0.296 OA
ATOM     60  N   SGN d 505      21.039  31.119 106.512  0.00  0.00    -0.210 NA
ATOM     61  C3  SGN d 505      20.003  29.852 108.473  0.00  0.00     0.083 C 
ATOM     62  C2  SGN d 505      20.392  29.872 106.982  0.00  0.00     0.081 C 
ATOM     63  O3S SGN d 505      21.711  32.628 104.645  0.00  0.00    -0.296 OA
ATOM     64  C4  SGN d 505      19.303  28.482 108.706  0.00  0.00     0.095 C 
ATOM     65  C5  SGN d 505      20.300  27.427 108.352  0.00  0.00     0.091 C 
ATOM     66  O3  SGN d 505      19.099  30.922 108.718  0.00  0.00    -0.391 OA
ATOM     67  H   SGN d 505      20.488  25.317 108.226  0.00  0.00     0.080 H 
ATOM     68  H   SGN d 505      19.635  25.840 109.621  0.00  0.00     0.080 H 
ATOM     69  H   SGN d 505      18.894  31.147 104.955  0.00  0.00     0.231 HD
ATOM     70  H   SGN d 505      21.458  28.696 105.586  0.00  0.00     0.131 H 
ATOM     71  H   SGN d 505      20.547  29.647 104.321  0.00  0.00     0.231 HD
ATOM     72  H   SGN d 505      20.664  31.887 107.070  0.00  0.00     0.140 HD
ATOM     73  H   SGN d 505      20.845  29.968 109.124  0.00  0.00     0.089 H 
ATOM     74  H   SGN d 505      19.457  29.813 106.464  0.00  0.00     0.076 H 
ATOM     75  H   SGN d 505      21.451  33.379 105.200  0.00  0.00     0.231 HD
ATOM     76  H   SGN d 505      18.410  28.498 108.117  0.00  0.00     0.091 H 
ATOM     77  H   SGN d 505      21.146  27.608 108.983  0.00  0.00     0.090 H 
ATOM     78  H   SGN d 505      18.329  30.834 108.135  0.00  0.00     0.210 HD
ATOM     79  C6  SGN d 503      28.901  30.228 108.636  0.00  0.00     0.067 C 
ATOM     80  O6  SGN d 503      28.448  30.405 109.961  0.00  0.00    -0.254 OA
ATOM     81  C4  SGN d 503      27.933  27.860 108.655  0.00  0.00     0.095 C 
ATOM     82  O5  SGN d 503      30.171  28.457 109.352  0.00  0.00    -0.349 OA
ATOM     83  O4  SGN d 503      27.003  28.128 107.656  0.00  0.00    -0.348 OA
ATOM     84  S1  SGN d 503      30.619  24.125 110.761  0.00  0.00     0.156 S 
ATOM     85  O4S SGN d 503      28.654  32.809 109.974  0.00  0.00    -0.572 OA
ATOM     86  O2S SGN d 503      29.668  24.310 111.856  0.00  0.00    -0.296 OA
ATOM     87  C3  SGN d 503      28.334  26.390 108.562  0.00  0.00     0.083 C 
ATOM     88  S2  SGN d 503      28.672  31.671 110.829  0.00  0.00     0.251 S 
ATOM     89  O5S SGN d 503      27.594  31.711 111.813  0.00  0.00    -0.572 OA
ATOM     90  C1  SGN d 503      30.649  27.140 109.238  0.00  0.00     0.150 C 
ATOM     91  O1S SGN d 503      31.868  24.824 111.000  0.00  0.00    -0.296 OA
ATOM     92  O6S SGN d 503      29.964  31.487 111.365  0.00  0.00    -0.572 OA
ATOM     93  C2  SGN d 503      29.502  26.153 109.501  0.00  0.00     0.081 C 
ATOM     94  N   SGN d 503      29.980  24.784 109.417  0.00  0.00    -0.210 NA
ATOM     95  O3  SGN d 503      27.227  25.605 108.962  0.00  0.00    -0.391 OA
ATOM     96  C5  SGN d 503      29.162  28.760 108.439  0.00  0.00     0.091 C 
ATOM     97  O3S SGN d 503      30.821  22.743 110.389  0.00  0.00    -0.296 OA
ATOM     98  H   SGN d 503      28.153  30.562 107.947  0.00  0.00     0.080 H 
ATOM     99  H   SGN d 503      29.792  30.795 108.464  0.00  0.00     0.080 H 
ATOM    100  H   SGN d 503      27.519  28.055 109.622  0.00  0.00     0.091 H 
ATOM    101  H   SGN d 503      29.582  25.256 112.052  0.00  0.00     0.231 HD
ATOM    102  H   SGN d 503      28.619  26.129 107.564  0.00  0.00     0.089 H 
ATOM    103  H   SGN d 503      31.415  26.990 109.970  0.00  0.00     0.131 H 
ATOM    104  H   SGN d 503      31.681  25.743 111.246  0.00  0.00     0.231 HD
ATOM    105  H   SGN d 503      29.144  26.321 110.495  0.00  0.00     0.076 H 
ATOM    106  H   SGN d 503      29.190  24.202 109.137  0.00  0.00     0.140 HD
ATOM    107  H   SGN d 503      26.971  25.844 109.867  0.00  0.00     0.210 HD
ATOM    108  H   SGN d 503      29.435  28.569 107.422  0.00  0.00     0.090 H 
ATOM    109  H   SGN d 503      31.460  22.694 109.660  0.00  0.00     0.231 HD
ATOM    110  O61 IDS d 504      22.952  26.475 109.694  0.00  0.00    -0.646 OA
ATOM    111  O62 IDS d 504      23.197  25.057 108.157  0.00  0.00    -0.646 OA
ATOM    112  O3S IDS d 504      26.333  32.366 107.072  0.00  0.00    -0.572 OA
ATOM    113  S   IDS d 504      24.921  32.282 107.090  0.00  0.00     0.252 S 
ATOM    114  C6  IDS d 504      23.429  26.182 108.605  0.00  0.00     0.206 C 
ATOM    115  O3  IDS d 504      25.338  27.911 105.195  0.00  0.00    -0.390 OA
ATOM    116  C1  IDS d 504      25.918  28.902 108.080  0.00  0.00     0.161 C 
ATOM    117  O2  IDS d 504      24.649  30.795 107.378  0.00  0.00    -0.244 OA
ATOM    118  C5  IDS d 504      24.271  27.195 107.812  0.00  0.00     0.152 C 
ATOM    119  C4  IDS d 504      23.520  27.942 106.712  0.00  0.00     0.103 C 
ATOM    120  O5  IDS d 504      24.887  28.115 108.685  0.00  0.00    -0.340 OA
ATOM    121  O4  IDS d 504      22.522  28.777 107.281  0.00  0.00    -0.348 OA
ATOM    122  C2  IDS d 504      25.396  29.682 106.891  0.00  0.00     0.134 C 
ATOM    123  O1S IDS d 504      24.358  32.552 105.817  0.00  0.00    -0.572 OA
ATOM    124  O2S IDS d 504      24.284  33.048 108.122  0.00  0.00    -0.572 OA
ATOM    125  C3  IDS d 504      24.507  28.798 105.933  0.00  0.00     0.094 C 
ATOM    126  H   IDS d 504      24.790  27.368 104.608  0.00  0.00     0.210 HD
ATOM    127  H   IDS d 504      26.250  29.575 108.842  0.00  0.00     0.133 H 
ATOM    128  H   IDS d 504      25.006  26.607 107.306  0.00  0.00     0.104 H 
ATOM    129  H   IDS d 504      23.051  27.235 106.060  0.00  0.00     0.092 H 
ATOM    130  H   IDS d 504      26.229  30.013 106.307  0.00  0.00     0.097 H 
ATOM    131  H   IDS d 504      23.974  29.468 105.291  0.00  0.00     0.091 H 
ENDROOT
TORSDOF 40
ENDMDL
MODEL 27
REMARK VINA RESULT:     -10.3      3.898      6.753
REMARK  0 active torsions:
REMARK  status: ('A' for Active; 'I' for Inactive)
REMARK       I    between atoms: C6_1  and  C5_82 
REMARK       I    between atoms: O2_4  and  C2_65 
REMARK       I    between atoms: O2_4  and  S_6 
REMARK       I    between atoms: S2_5  and  O6_13 
REMARK       I    between atoms: C6_7  and  C5_66 
REMARK       I    between atoms: C6_7  and  O6_11 
REMARK       I    between atoms: S_8  and  O2_37 
REMARK       I    between atoms: O6_11  and  S2_34 
REMARK       I    between atoms: O6_13  and  C6_16 
REMARK       I    between atoms: C6_16  and  C5_76 
REMARK       I    between atoms: O2S_17  and  S1_21 
REMARK       I    between atoms: O4_18  and  C4_33 
REMARK       I    between atoms: C4_19  and  O4_25 
REMARK       I    between atoms: O3_20  and  C3_57 
REMARK       I    between atoms: S1_21  and  N_56 
REMARK       I    between atoms: S1_21  and  O1S_55 
REMARK       I    between atoms: S1_21  and  O3S_68 
REMARK       I    between atoms: O3_24  and  C3_80 
REMARK       I    between atoms: O4_25  and  C1_53 
REMARK       I    between atoms: S1_26  and  N_59 
REMARK       I    between atoms: S1_26  and  O1S_42 
REMARK       I    between atoms: S1_26  and  O2S_29 
REMARK       I    between atoms: S1_26  and  O3S_87 
REMARK       I    between atoms: S_30  and  O2_54 
REMARK       I    between atoms: C3_31  and  O3_61 
REMARK       I    between atoms: O4_36  and  C4_70 
REMARK       I    between atoms: O4_36  and  C1_52 
REMARK       I    between atoms: O2_37  and  C2_45 
REMARK       I    between atoms: C4_38  and  O4_71 
REMARK       I    between atoms: C1_39  and  O1_51 
REMARK       I    between atoms: C1_40  and  O4_71 
REMARK       I    between atoms: C6_46  and  C5_84 
REMARK       I    between atoms: C6_47  and  C5_64 
REMARK       I    between atoms: C1_48  and  O4_77 
REMARK       I    between atoms: O3_50  and  C3_86 
REMARK       I    between atoms: O2_54  and  C2_79 
REMARK       I    between atoms: N_56  and  C2_67 
REMARK       I    between atoms: C2_58  and  N_59 
REMARK       I    between atoms: C3_62  and  O3_81 
REMARK       I    between atoms: C4_69  and  O4_77 
ROOT
ATOM      1  C6  IDS d 506      15.667  23.432 108.891  0.00  0.00     0.206 C 
ATOM      2  O62 IDS d 506      14.872  22.923 108.120  0.00  0.00    -0.646 OA
ATOM      3  S   IDS d 506      17.374  29.465 108.680  0.00  0.00     0.252 S 
ATOM      4  O1S IDS d 506      16.899  29.471 107.330  0.00  0.00    -0.572 OA
ATOM      5  O3S IDS d 506      18.701  30.024 108.820  0.00  0.00    -0.572 OA
ATOM      6  O4  IDS d 506      15.111  26.257 108.046  0.00  0.00    -0.390 OA
ATOM      7  O3  IDS d 506      18.110  25.997 106.104  0.00  0.00    -0.390 OA
ATOM      8  C4  IDS d 506      16.170  25.536 107.459  0.00  0.00     0.097 C 
ATOM      9  O2  IDS d 506      17.517  27.929 109.060  0.00  0.00    -0.244 OA
ATOM     10  C2  IDS d 506      18.185  26.908 108.344  0.00  0.00     0.134 C 
ATOM     11  C1  IDS d 506      18.465  25.713 109.267  0.00  0.00     0.161 C 
ATOM     12  O2S IDS d 506      16.413  30.056 109.567  0.00  0.00    -0.572 OA
ATOM     13  O5  IDS d 506      17.245  25.078 109.551  0.00  0.00    -0.340 OA
ATOM     14  O61 IDS d 506      15.645  23.070 110.059  0.00  0.00    -0.646 OA
ATOM     15  C3  IDS d 506      17.286  26.549 107.128  0.00  0.00     0.094 C 
ATOM     16  C5  IDS d 506      16.675  24.471 108.438  0.00  0.00     0.152 C 
ATOM     17  H   IDS d 506      14.794  26.930 107.423  0.00  0.00     0.210 HD
ATOM     18  H   IDS d 506      17.562  25.768 105.338  0.00  0.00     0.210 HD
ATOM     19  H   IDS d 506      15.849  25.035 106.569  0.00  0.00     0.091 H 
ATOM     20  H   IDS d 506      19.142  27.225 107.986  0.00  0.00     0.097 H 
ATOM     21  H   IDS d 506      19.147  25.036 108.796  0.00  0.00     0.133 H 
ATOM     22  H   IDS d 506      16.804  27.453 106.819  0.00  0.00     0.091 H 
ATOM     23  H   IDS d 506      17.396  23.921 107.870  0.00  0.00     0.104 H 
ATOM     24  O62 IDS d 502      31.427  22.149 105.126  0.00  0.00    -0.646 OA
ATOM     25  O2  IDS d 502      32.467  24.346 110.226  0.00  0.00    -0.244 OA
ATOM     26  S   IDS d 502      32.209  25.684 110.995  0.00  0.00     0.252 S 
ATOM     27  O3  IDS d 502      34.755  24.545 107.474  0.00  0.00    -0.390 OA
ATOM     28  O2S IDS d 502      30.777  25.874 110.986  0.00  0.00    -0.572 OA
ATOM     29  C4  IDS d 502      32.392  24.137 107.268  0.00  0.00     0.103 C 
ATOM     30  C1  IDS d 502      33.593  22.471 109.311  0.00  0.00     0.158 C 
ATOM     31  O61 IDS d 502      30.654  21.190 106.795  0.00  0.00    -0.646 OA
ATOM     32  C6  IDS d 502      31.472  21.943 106.324  0.00  0.00     0.206 C 
ATOM     33  O1  IDS d 502      34.842  22.087 108.801  0.00  0.00    -0.368 OA
ATOM     34  C3  IDS d 502      33.520  24.717 108.143  0.00  0.00     0.094 C 
ATOM     35  O3S IDS d 502      32.757  25.465 112.308  0.00  0.00    -0.572 OA
ATOM     36  O5  IDS d 502      32.525  22.058 108.495  0.00  0.00    -0.340 OA
ATOM     37  C2  IDS d 502      33.603  23.986 109.486  0.00  0.00     0.134 C 
ATOM     38  O4  IDS d 502      31.146  24.476 107.821  0.00  0.00    -0.348 OA
ATOM     39  O1S IDS d 502      32.902  26.723 110.285  0.00  0.00    -0.572 OA
ATOM     40  C5  IDS d 502      32.520  22.617 107.197  0.00  0.00     0.152 C 
ATOM     41  H   IDS d 502      34.725  25.000 106.618  0.00  0.00     0.210 HD
ATOM     42  H   IDS d 502      32.469  24.545 106.282  0.00  0.00     0.092 H 
ATOM     43  H   IDS d 502      33.436  21.988 110.253  0.00  0.00     0.133 H 
ATOM     44  H   IDS d 502      34.989  22.522 107.946  0.00  0.00     0.212 HD
ATOM     45  H   IDS d 502      33.314  25.752 108.317  0.00  0.00     0.091 H 
ATOM     46  H   IDS d 502      34.515  24.259 109.973  0.00  0.00     0.097 H 
ATOM     47  H   IDS d 502      33.459  22.427 106.720  0.00  0.00     0.104 H 
ATOM     48  S2  SGN d 505      19.733  28.600 114.068  0.00  0.00     0.251 S 
ATOM     49  O6  SGN d 505      20.046  27.434 113.143  0.00  0.00    -0.254 OA
ATOM     50  O5S SGN d 505      20.304  28.221 115.336  0.00  0.00    -0.572 OA
ATOM     51  C6  SGN d 505      20.875  27.443 112.031  0.00  0.00     0.067 C 
ATOM     52  O2S SGN d 505      19.982  20.707 113.737  0.00  0.00    -0.296 OA
ATOM     53  S1  SGN d 505      21.314  20.867 113.202  0.00  0.00     0.156 S 
ATOM     54  O6S SGN d 505      20.374  29.777 113.498  0.00  0.00    -0.572 OA
ATOM     55  O4  SGN d 505      18.996  26.181 110.459  0.00  0.00    -0.348 OA
ATOM     56  O5  SGN d 505      21.681  25.366 112.650  0.00  0.00    -0.349 OA
ATOM     57  O4S SGN d 505      18.290  28.694 114.065  0.00  0.00    -0.572 OA
ATOM     58  C1  SGN d 505      22.023  24.041 112.356  0.00  0.00     0.150 C 
ATOM     59  O1S SGN d 505      22.195  21.569 114.112  0.00  0.00    -0.296 OA
ATOM     60  N   SGN d 505      21.120  21.828 111.842  0.00  0.00    -0.210 NA
ATOM     61  C3  SGN d 505      19.965  23.908 110.914  0.00  0.00     0.083 C 
ATOM     62  C2  SGN d 505      20.764  23.250 112.055  0.00  0.00     0.081 C 
ATOM     63  O3S SGN d 505      21.846  19.627 112.760  0.00  0.00    -0.296 OA
ATOM     64  C4  SGN d 505      19.671  25.361 111.389  0.00  0.00     0.095 C 
ATOM     65  C5  SGN d 505      20.996  26.012 111.621  0.00  0.00     0.091 C 
ATOM     66  O3  SGN d 505      18.753  23.186 110.737  0.00  0.00    -0.391 OA
ATOM     67  H   SGN d 505      21.834  27.845 112.281  0.00  0.00     0.080 H 
ATOM     68  H   SGN d 505      20.481  28.053 111.244  0.00  0.00     0.080 H 
ATOM     69  H   SGN d 505      19.646  21.569 114.030  0.00  0.00     0.231 HD
ATOM     70  H   SGN d 505      22.506  23.599 113.202  0.00  0.00     0.131 H 
ATOM     71  H   SGN d 505      21.782  22.405 114.380  0.00  0.00     0.231 HD
ATOM     72  H   SGN d 505      20.381  21.410 111.276  0.00  0.00     0.140 HD
ATOM     73  H   SGN d 505      20.493  23.910 109.983  0.00  0.00     0.089 H 
ATOM     74  H   SGN d 505      20.095  23.264 112.889  0.00  0.00     0.076 H 
ATOM     75  H   SGN d 505      21.217  19.203 112.156  0.00  0.00     0.231 HD
ATOM     76  H   SGN d 505      19.037  25.272 112.247  0.00  0.00     0.091 H 
ATOM     77  H   SGN d 505      21.514  25.946 110.687  0.00  0.00     0.090 H 
ATOM     78  H   SGN d 505      18.260  23.173 111.572  0.00  0.00     0.210 HD
ATOM     79  C6  SGN d 503      27.851  22.114 107.180  0.00  0.00     0.067 C 
ATOM     80  O6  SGN d 503      26.985  22.540 106.150  0.00  0.00    -0.254 OA
ATOM     81  C4  SGN d 503      27.677  24.435 108.244  0.00  0.00     0.095 C 
ATOM     82  O5  SGN d 503      29.311  23.780 106.584  0.00  0.00    -0.349 OA
ATOM     83  O4  SGN d 503      27.061  23.966 109.398  0.00  0.00    -0.348 OA
ATOM     84  S1  SGN d 503      30.582  28.175 106.463  0.00  0.00     0.156 S 
ATOM     85  O4S SGN d 503      26.449  20.329 105.347  0.00  0.00    -0.572 OA
ATOM     86  O2S SGN d 503      29.333  28.591 105.825  0.00  0.00    -0.296 OA
ATOM     87  C3  SGN d 503      28.508  25.664 108.603  0.00  0.00     0.083 C 
ATOM     88  S2  SGN d 503      26.545  21.687 104.931  0.00  0.00     0.251 S 
ATOM     89  O5S SGN d 503      25.259  22.213 104.484  0.00  0.00    -0.572 OA
ATOM     90  C1  SGN d 503      30.172  24.850 106.886  0.00  0.00     0.150 C 
ATOM     91  O1S SGN d 503      31.430  27.420 105.560  0.00  0.00    -0.296 OA
ATOM     92  O6S SGN d 503      27.606  21.840 104.014  0.00  0.00    -0.572 OA
ATOM     93  C2  SGN d 503      29.349  26.041 107.398  0.00  0.00     0.081 C 
ATOM     94  N   SGN d 503      30.216  27.170 107.689  0.00  0.00    -0.210 NA
ATOM     95  O3  SGN d 503      27.619  26.719 108.919  0.00  0.00    -0.391 OA
ATOM     96  C5  SGN d 503      28.586  23.326 107.685  0.00  0.00     0.091 C 
ATOM     97  O3S SGN d 503      31.290  29.252 107.117  0.00  0.00    -0.296 OA
ATOM     98  H   SGN d 503      27.285  21.674 107.974  0.00  0.00     0.080 H 
ATOM     99  H   SGN d 503      28.540  21.381 106.814  0.00  0.00     0.080 H 
ATOM    100  H   SGN d 503      26.950  24.700 107.504  0.00  0.00     0.091 H 
ATOM    101  H   SGN d 503      28.913  27.822 105.408  0.00  0.00     0.231 HD
ATOM    102  H   SGN d 503      29.148  25.469 109.438  0.00  0.00     0.089 H 
ATOM    103  H   SGN d 503      30.686  25.136 105.993  0.00  0.00     0.131 H 
ATOM    104  H   SGN d 503      30.911  26.713 105.146  0.00  0.00     0.231 HD
ATOM    105  H   SGN d 503      28.672  26.332 106.622  0.00  0.00     0.076 H 
ATOM    106  H   SGN d 503      29.761  27.724 108.414  0.00  0.00     0.140 HD
ATOM    107  H   SGN d 503      27.041  26.893 108.160  0.00  0.00     0.210 HD
ATOM    108  H   SGN d 503      29.200  23.062 108.521  0.00  0.00     0.090 H 
ATOM    109  H   SGN d 503      32.105  28.907 107.516  0.00  0.00     0.231 HD
ATOM    110  O61 IDS d 504      23.270  26.939 109.695  0.00  0.00    -0.646 OA
ATOM    111  O62 IDS d 504      24.383  27.593 111.358  0.00  0.00    -0.646 OA
ATOM    112  O3S IDS d 504      25.365  20.010 108.915  0.00  0.00    -0.572 OA
ATOM    113  S   IDS d 504      24.108  20.334 109.477  0.00  0.00     0.252 S 
ATOM    114  C6  IDS d 504      24.120  26.705 110.545  0.00  0.00     0.206 C 
ATOM    115  O3  IDS d 504      26.368  23.500 112.258  0.00  0.00    -0.390 OA
ATOM    116  C1  IDS d 504      25.719  23.612 109.224  0.00  0.00     0.161 C 
ATOM    117  O2  IDS d 504      24.219  21.841 109.772  0.00  0.00    -0.244 OA
ATOM    118  C5  IDS d 504      24.820  25.337 110.607  0.00  0.00     0.152 C 
ATOM    119  C4  IDS d 504      24.253  24.365 111.639  0.00  0.00     0.103 C 
ATOM    120  O5  IDS d 504      24.837  24.734 109.333  0.00  0.00    -0.340 OA
ATOM    121  O4  IDS d 504      22.927  23.996 111.286  0.00  0.00    -0.348 OA
ATOM    122  C2  IDS d 504      25.375  22.536 110.234  0.00  0.00     0.134 C 
ATOM    123  O1S IDS d 504      23.905  19.695 110.726  0.00  0.00    -0.572 OA
ATOM    124  O2S IDS d 504      22.989  20.145 108.600  0.00  0.00    -0.572 OA
ATOM    125  C3  IDS d 504      25.127  23.121 111.677  0.00  0.00     0.094 C 
ATOM    126  H   IDS d 504      26.213  23.860 113.146  0.00  0.00     0.210 HD
ATOM    127  H   IDS d 504      25.586  23.237 108.230  0.00  0.00     0.133 H 
ATOM    128  H   IDS d 504      25.816  25.552 110.935  0.00  0.00     0.104 H 
ATOM    129  H   IDS d 504      24.239  24.836 112.599  0.00  0.00     0.092 H 
ATOM    130  H   IDS d 504      26.207  21.868 110.318  0.00  0.00     0.097 H 
ATOM    131  H   IDS d 504      24.640  22.357 112.247  0.00  0.00     0.091 H 
ENDROOT
TORSDOF 40
ENDMDL
MODEL 28
REMARK VINA RESULT:     -10.2      3.757      9.014
REMARK  0 active torsions:
REMARK  status: ('A' for Active; 'I' for Inactive)
REMARK       I    between atoms: C6_1  and  C5_82 
REMARK       I    between atoms: O2_4  and  C2_65 
REMARK       I    between atoms: O2_4  and  S_6 
REMARK       I    between atoms: S2_5  and  O6_13 
REMARK       I    between atoms: C6_7  and  C5_66 
REMARK       I    between atoms: C6_7  and  O6_11 
REMARK       I    between atoms: S_8  and  O2_37 
REMARK       I    between atoms: O6_11  and  S2_34 
REMARK       I    between atoms: O6_13  and  C6_16 
REMARK       I    between atoms: C6_16  and  C5_76 
REMARK       I    between atoms: O2S_17  and  S1_21 
REMARK       I    between atoms: O4_18  and  C4_33 
REMARK       I    between atoms: C4_19  and  O4_25 
REMARK       I    between atoms: O3_20  and  C3_57 
REMARK       I    between atoms: S1_21  and  N_56 
REMARK       I    between atoms: S1_21  and  O1S_55 
REMARK       I    between atoms: S1_21  and  O3S_68 
REMARK       I    between atoms: O3_24  and  C3_80 
REMARK       I    between atoms: O4_25  and  C1_53 
REMARK       I    between atoms: S1_26  and  N_59 
REMARK       I    between atoms: S1_26  and  O1S_42 
REMARK       I    between atoms: S1_26  and  O2S_29 
REMARK       I    between atoms: S1_26  and  O3S_87 
REMARK       I    between atoms: S_30  and  O2_54 
REMARK       I    between atoms: C3_31  and  O3_61 
REMARK       I    between atoms: O4_36  and  C4_70 
REMARK       I    between atoms: O4_36  and  C1_52 
REMARK       I    between atoms: O2_37  and  C2_45 
REMARK       I    between atoms: C4_38  and  O4_71 
REMARK       I    between atoms: C1_39  and  O1_51 
REMARK       I    between atoms: C1_40  and  O4_71 
REMARK       I    between atoms: C6_46  and  C5_84 
REMARK       I    between atoms: C6_47  and  C5_64 
REMARK       I    between atoms: C1_48  and  O4_77 
REMARK       I    between atoms: O3_50  and  C3_86 
REMARK       I    between atoms: O2_54  and  C2_79 
REMARK       I    between atoms: N_56  and  C2_67 
REMARK       I    between atoms: C2_58  and  N_59 
REMARK       I    between atoms: C3_62  and  O3_81 
REMARK       I    between atoms: C4_69  and  O4_77 
ROOT
ATOM      1  C6  IDS d 506      15.635  27.980 112.104  0.00  0.00     0.206 C 
ATOM      2  O62 IDS d 506      15.236  28.812 112.901  0.00  0.00    -0.646 OA
ATOM      3  S   IDS d 506      17.154  22.094 113.654  0.00  0.00     0.252 S 
ATOM      4  O1S IDS d 506      17.273  22.562 115.001  0.00  0.00    -0.572 OA
ATOM      5  O3S IDS d 506      18.296  21.321 113.216  0.00  0.00    -0.572 OA
ATOM      6  O4  IDS d 506      15.416  25.655 113.987  0.00  0.00    -0.390 OA
ATOM      7  O3  IDS d 506      18.951  26.013 114.438  0.00  0.00    -0.390 OA
ATOM      8  C4  IDS d 506      16.636  26.345 113.851  0.00  0.00     0.097 C 
ATOM      9  O2  IDS d 506      17.161  23.407 112.759  0.00  0.00    -0.244 OA
ATOM     10  C2  IDS d 506      18.084  24.478 112.781  0.00  0.00     0.134 C 
ATOM     11  C1  IDS d 506      17.987  25.287 111.480  0.00  0.00     0.161 C 
ATOM     12  O2S IDS d 506      15.902  21.422 113.451  0.00  0.00    -0.572 OA
ATOM     13  O5  IDS d 506      16.770  25.990 111.485  0.00  0.00    -0.340 OA
ATOM     14  O61 IDS d 506      15.144  27.978 110.983  0.00  0.00    -0.646 OA
ATOM     15  C3  IDS d 506      17.769  25.316 114.052  0.00  0.00     0.094 C 
ATOM     16  C5  IDS d 506      16.719  26.980 112.459  0.00  0.00     0.152 C 
ATOM     17  H   IDS d 506      15.367  25.255 114.870  0.00  0.00     0.210 HD
ATOM     18  H   IDS d 506      18.769  26.542 115.231  0.00  0.00     0.210 HD
ATOM     19  H   IDS d 506      16.718  27.131 114.573  0.00  0.00     0.091 H 
ATOM     20  H   IDS d 506      19.097  24.138 112.833  0.00  0.00     0.097 H 
ATOM     21  H   IDS d 506      18.815  25.959 111.401  0.00  0.00     0.133 H 
ATOM     22  H   IDS d 506      17.438  24.631 114.804  0.00  0.00     0.091 H 
ATOM     23  H   IDS d 506      17.620  27.555 112.492  0.00  0.00     0.104 H 
ATOM     24  O62 IDS d 502      31.579  27.873 108.944  0.00  0.00    -0.646 OA
ATOM     25  O2  IDS d 502      30.396  24.127 104.883  0.00  0.00    -0.244 OA
ATOM     26  S   IDS d 502      29.819  22.678 104.766  0.00  0.00     0.252 S 
ATOM     27  O3  IDS d 502      33.605  24.404 106.457  0.00  0.00    -0.390 OA
ATOM     28  O2S IDS d 502      28.512  22.723 105.380  0.00  0.00    -0.572 OA
ATOM     29  C4  IDS d 502      31.542  25.214 107.394  0.00  0.00     0.103 C 
ATOM     30  C1  IDS d 502      31.836  25.992 104.619  0.00  0.00     0.158 C 
ATOM     31  O61 IDS d 502      30.211  28.401 107.477  0.00  0.00    -0.646 OA
ATOM     32  C6  IDS d 502      31.134  27.705 107.825  0.00  0.00     0.206 C 
ATOM     33  O1  IDS d 502      33.192  26.313 104.457  0.00  0.00    -0.368 OA
ATOM     34  C3  IDS d 502      32.202  24.234 106.405  0.00  0.00     0.094 C 
ATOM     35  O3S IDS d 502      29.786  22.410 103.351  0.00  0.00    -0.572 OA
ATOM     36  O5  IDS d 502      31.204  26.789 105.590  0.00  0.00    -0.340 OA
ATOM     37  C2  IDS d 502      31.742  24.511 104.971  0.00  0.00     0.134 C 
ATOM     38  O4  IDS d 502      30.173  24.924 107.503  0.00  0.00    -0.348 OA
ATOM     39  O1S IDS d 502      30.720  21.803 105.461  0.00  0.00    -0.572 OA
ATOM     40  C5  IDS d 502      31.720  26.648 106.899  0.00  0.00     0.152 C 
ATOM     41  H   IDS d 502      33.919  24.234 107.358  0.00  0.00     0.210 HD
ATOM     42  H   IDS d 502      32.007  25.111 108.353  0.00  0.00     0.092 H 
ATOM     43  H   IDS d 502      31.318  26.192 103.705  0.00  0.00     0.133 H 
ATOM     44  H   IDS d 502      33.667  26.133 105.284  0.00  0.00     0.212 HD
ATOM     45  H   IDS d 502      31.921  23.238 106.680  0.00  0.00     0.091 H 
ATOM     46  H   IDS d 502      32.370  23.969 104.295  0.00  0.00     0.097 H 
ATOM     47  H   IDS d 502      32.775  26.824 106.891  0.00  0.00     0.104 H 
ATOM     48  S2  SGN d 505      17.120  20.945 107.821  0.00  0.00     0.251 S 
ATOM     49  O6  SGN d 505      17.808  22.270 108.111  0.00  0.00    -0.254 OA
ATOM     50  O5S SGN d 505      17.130  20.837 106.383  0.00  0.00    -0.572 OA
ATOM     51  C6  SGN d 505      19.019  22.463 108.759  0.00  0.00     0.067 C 
ATOM     52  O2S SGN d 505      17.645  28.442 105.375  0.00  0.00    -0.296 OA
ATOM     53  S1  SGN d 505      19.076  28.245 105.385  0.00  0.00     0.156 S 
ATOM     54  O6S SGN d 505      17.914  19.906 108.463  0.00  0.00    -0.572 OA
ATOM     55  O4  SGN d 505      17.974  24.410 110.406  0.00  0.00    -0.348 OA
ATOM     56  O5  SGN d 505      19.543  24.112 107.225  0.00  0.00    -0.349 OA
ATOM     57  O4S SGN d 505      15.803  21.080 108.402  0.00  0.00    -0.572 OA
ATOM     58  C1  SGN d 505      20.003  25.395 106.907  0.00  0.00     0.150 C 
ATOM     59  O1S SGN d 505      19.493  27.177 104.500  0.00  0.00    -0.296 OA
ATOM     60  N   SGN d 505      19.435  27.773 106.952  0.00  0.00    -0.210 NA
ATOM     61  C3  SGN d 505      18.719  26.267 108.887  0.00  0.00     0.083 C 
ATOM     62  C2  SGN d 505      18.995  26.424 107.379  0.00  0.00     0.081 C 
ATOM     63  O3S SGN d 505      19.767  29.462 105.150  0.00  0.00    -0.296 OA
ATOM     64  C4  SGN d 505      18.226  24.802 109.073  0.00  0.00     0.095 C 
ATOM     65  C5  SGN d 505      19.326  23.916 108.589  0.00  0.00     0.091 C 
ATOM     66  O3  SGN d 505      17.701  27.187 109.258  0.00  0.00    -0.391 OA
ATOM     67  H   SGN d 505      19.783  21.863 108.313  0.00  0.00     0.080 H 
ATOM     68  H   SGN d 505      18.969  22.184 109.791  0.00  0.00     0.080 H 
ATOM     69  H   SGN d 505      17.201  27.595 105.538  0.00  0.00     0.231 HD
ATOM     70  H   SGN d 505      20.106  25.486 105.845  0.00  0.00     0.131 H 
ATOM     71  H   SGN d 505      18.989  26.373 104.704  0.00  0.00     0.231 HD
ATOM     72  H   SGN d 505      19.002  28.449 107.582  0.00  0.00     0.140 HD
ATOM     73  H   SGN d 505      19.581  26.460 109.490  0.00  0.00     0.089 H 
ATOM     74  H   SGN d 505      18.042  26.267 106.918  0.00  0.00     0.076 H 
ATOM     75  H   SGN d 505      19.449  30.138 105.768  0.00  0.00     0.231 HD
ATOM     76  H   SGN d 505      17.299  24.729 108.544  0.00  0.00     0.091 H 
ATOM     77  H   SGN d 505      20.183  24.175 109.176  0.00  0.00     0.090 H 
ATOM     78  H   SGN d 505      16.909  27.028 108.720  0.00  0.00     0.210 HD
ATOM     79  C6  SGN d 503      27.477  27.849 108.517  0.00  0.00     0.067 C 
ATOM     80  O6  SGN d 503      27.100  27.887 109.876  0.00  0.00    -0.254 OA
ATOM     81  C4  SGN d 503      26.836  25.373 108.441  0.00  0.00     0.095 C 
ATOM     82  O5  SGN d 503      29.018  26.230 109.034  0.00  0.00    -0.349 OA
ATOM     83  O4  SGN d 503      25.810  25.567 107.522  0.00  0.00    -0.348 OA
ATOM     84  S1  SGN d 503      30.137  21.928 110.125  0.00  0.00     0.156 S 
ATOM     85  O4S SGN d 503      26.985  30.292 110.034  0.00  0.00    -0.572 OA
ATOM     86  O2S SGN d 503      29.250  21.919 111.288  0.00  0.00    -0.296 OA
ATOM     87  C3  SGN d 503      27.421  23.979 108.226  0.00  0.00     0.083 C 
ATOM     88  S2  SGN d 503      27.214  29.120 110.810  0.00  0.00     0.251 S 
ATOM     89  O5S SGN d 503      26.213  28.956 111.860  0.00  0.00    -0.572 OA
ATOM     90  C1  SGN d 503      29.658  24.999 108.805  0.00  0.00     0.150 C 
ATOM     91  O1S SGN d 503      31.295  22.777 110.330  0.00  0.00    -0.296 OA
ATOM     92  O6S SGN d 503      28.554  29.085 111.250  0.00  0.00    -0.572 OA
ATOM     93  C2  SGN d 503      28.674  23.852 109.073  0.00  0.00     0.081 C 
ATOM     94  N   SGN d 503      29.322  22.568 108.870  0.00  0.00    -0.210 NA
ATOM     95  O3  SGN d 503      26.459  23.029 108.643  0.00  0.00    -0.391 OA
ATOM     96  C5  SGN d 503      27.916  26.443 108.208  0.00  0.00     0.091 C 
ATOM     97  O3S SGN d 503      30.493  20.610 109.651  0.00  0.00    -0.296 OA
ATOM     98  H   SGN d 503      26.644  28.115 107.899  0.00  0.00     0.080 H 
ATOM     99  H   SGN d 503      28.270  28.541 108.327  0.00  0.00     0.080 H 
ATOM    100  H   SGN d 503      26.470  25.454 109.443  0.00  0.00     0.091 H 
ATOM    101  H   SGN d 503      29.053  22.832 111.550  0.00  0.00     0.231 HD
ATOM    102  H   SGN d 503      27.667  23.816 107.198  0.00  0.00     0.089 H 
ATOM    103  H   SGN d 503      30.487  24.915 109.476  0.00  0.00     0.131 H 
ATOM    104  H   SGN d 503      31.006  23.647 110.647  0.00  0.00     0.231 HD
ATOM    105  H   SGN d 503      28.368  23.913 110.096  0.00  0.00     0.076 H 
ATOM    106  H   SGN d 503      28.599  21.900 108.603  0.00  0.00     0.140 HD
ATOM    107  H   SGN d 503      26.239  23.179 109.576  0.00  0.00     0.210 HD
ATOM    108  H   SGN d 503      28.140  26.349 107.165  0.00  0.00     0.090 H 
ATOM    109  H   SGN d 503      31.080  20.691 108.883  0.00  0.00     0.231 HD
ATOM    110  O61 IDS d 504      22.170  23.262 109.697  0.00  0.00    -0.646 OA
ATOM    111  O62 IDS d 504      22.491  21.980 108.058  0.00  0.00    -0.646 OA
ATOM    112  O3S IDS d 504      24.543  29.699 107.260  0.00  0.00    -0.572 OA
ATOM    113  S   IDS d 504      23.159  29.422 107.361  0.00  0.00     0.252 S 
ATOM    114  C6  IDS d 504      22.603  23.099 108.564  0.00  0.00     0.206 C 
ATOM    115  O3  IDS d 504      24.019  25.263 105.161  0.00  0.00    -0.390 OA
ATOM    116  C1  IDS d 504      24.665  26.159 108.063  0.00  0.00     0.161 C 
ATOM    117  O2  IDS d 504      23.109  27.897 107.567  0.00  0.00    -0.244 OA
ATOM    118  C5  IDS d 504      23.244  24.262 107.787  0.00  0.00     0.152 C 
ATOM    119  C4  IDS d 504      22.324  24.959 106.787  0.00  0.00     0.103 C 
ATOM    120  O5  IDS d 504      23.793  25.206 108.678  0.00  0.00    -0.340 OA
ATOM    121  O4  IDS d 504      21.267  25.616 107.471  0.00  0.00    -0.348 OA
ATOM    122  C2  IDS d 504      23.961  26.927 106.962  0.00  0.00     0.134 C 
ATOM    123  O1S IDS d 504      22.477  29.684 106.146  0.00  0.00    -0.572 OA
ATOM    124  O2S IDS d 504      22.501  30.033 108.478  0.00  0.00    -0.572 OA
ATOM    125  C3  IDS d 504      23.132  25.985 106.007  0.00  0.00     0.094 C 
ATOM    126  H   IDS d 504      23.507  24.684 104.575  0.00  0.00     0.210 HD
ATOM    127  H   IDS d 504      24.958  26.828 108.845  0.00  0.00     0.133 H 
ATOM    128  H   IDS d 504      24.014  23.808 107.198  0.00  0.00     0.104 H 
ATOM    129  H   IDS d 504      21.908  24.232 106.121  0.00  0.00     0.092 H 
ATOM    130  H   IDS d 504      24.699  27.402 106.351  0.00  0.00     0.097 H 
ATOM    131  H   IDS d 504      22.469  26.610 105.445  0.00  0.00     0.091 H 
ENDROOT
TORSDOF 40
ENDMDL
MODEL 29
REMARK VINA RESULT:     -10.2      3.962      8.912
REMARK  0 active torsions:
REMARK  status: ('A' for Active; 'I' for Inactive)
REMARK       I    between atoms: C6_1  and  C5_82 
REMARK       I    between atoms: O2_4  and  C2_65 
REMARK       I    between atoms: O2_4  and  S_6 
REMARK       I    between atoms: S2_5  and  O6_13 
REMARK       I    between atoms: C6_7  and  C5_66 
REMARK       I    between atoms: C6_7  and  O6_11 
REMARK       I    between atoms: S_8  and  O2_37 
REMARK       I    between atoms: O6_11  and  S2_34 
REMARK       I    between atoms: O6_13  and  C6_16 
REMARK       I    between atoms: C6_16  and  C5_76 
REMARK       I    between atoms: O2S_17  and  S1_21 
REMARK       I    between atoms: O4_18  and  C4_33 
REMARK       I    between atoms: C4_19  and  O4_25 
REMARK       I    between atoms: O3_20  and  C3_57 
REMARK       I    between atoms: S1_21  and  N_56 
REMARK       I    between atoms: S1_21  and  O1S_55 
REMARK       I    between atoms: S1_21  and  O3S_68 
REMARK       I    between atoms: O3_24  and  C3_80 
REMARK       I    between atoms: O4_25  and  C1_53 
REMARK       I    between atoms: S1_26  and  N_59 
REMARK       I    between atoms: S1_26  and  O1S_42 
REMARK       I    between atoms: S1_26  and  O2S_29 
REMARK       I    between atoms: S1_26  and  O3S_87 
REMARK       I    between atoms: S_30  and  O2_54 
REMARK       I    between atoms: C3_31  and  O3_61 
REMARK       I    between atoms: O4_36  and  C4_70 
REMARK       I    between atoms: O4_36  and  C1_52 
REMARK       I    between atoms: O2_37  and  C2_45 
REMARK       I    between atoms: C4_38  and  O4_71 
REMARK       I    between atoms: C1_39  and  O1_51 
REMARK       I    between atoms: C1_40  and  O4_71 
REMARK       I    between atoms: C6_46  and  C5_84 
REMARK       I    between atoms: C6_47  and  C5_64 
REMARK       I    between atoms: C1_48  and  O4_77 
REMARK       I    between atoms: O3_50  and  C3_86 
REMARK       I    between atoms: O2_54  and  C2_79 
REMARK       I    between atoms: N_56  and  C2_67 
REMARK       I    between atoms: C2_58  and  N_59 
REMARK       I    between atoms: C3_62  and  O3_81 
REMARK       I    between atoms: C4_69  and  O4_77 
ROOT
ATOM      1  C6  IDS d 506      15.532  26.157 111.790  0.00  0.00     0.206 C 
ATOM      2  O62 IDS d 506      15.056  26.714 112.764  0.00  0.00    -0.646 OA
ATOM      3  S   IDS d 506      16.871  20.032 111.567  0.00  0.00     0.252 S 
ATOM      4  O1S IDS d 506      16.854  20.056 112.997  0.00  0.00    -0.572 OA
ATOM      5  O3S IDS d 506      18.049  19.394 111.021  0.00  0.00    -0.572 OA
ATOM      6  O4  IDS d 506      15.116  23.371 112.825  0.00  0.00    -0.390 OA
ATOM      7  O3  IDS d 506      18.588  23.452 113.702  0.00  0.00    -0.390 OA
ATOM      8  C4  IDS d 506      16.346  24.028 113.029  0.00  0.00     0.097 C 
ATOM      9  O2  IDS d 506      16.972  21.557 111.130  0.00  0.00    -0.244 OA
ATOM     10  C2  IDS d 506      17.890  22.536 111.574  0.00  0.00     0.134 C 
ATOM     11  C1  IDS d 506      17.928  23.711 110.586  0.00  0.00     0.161 C 
ATOM     12  O2S IDS d 506      15.644  19.499 111.045  0.00  0.00    -0.572 OA
ATOM     13  O5  IDS d 506      16.719  24.419 110.694  0.00  0.00    -0.340 OA
ATOM     14  O61 IDS d 506      15.158  26.519 110.683  0.00  0.00    -0.646 OA
ATOM     15  C3  IDS d 506      17.450  22.949 113.006  0.00  0.00     0.094 C 
ATOM     16  C5  IDS d 506      16.571  25.059 111.918  0.00  0.00     0.152 C 
ATOM     17  H   IDS d 506      14.977  22.719 113.530  0.00  0.00     0.210 HD
ATOM     18  H   IDS d 506      18.329  23.714 114.598  0.00  0.00     0.210 HD
ATOM     19  H   IDS d 506      16.356  24.548 113.964  0.00  0.00     0.091 H 
ATOM     20  H   IDS d 506      18.893  22.162 111.614  0.00  0.00     0.097 H 
ATOM     21  H   IDS d 506      18.762  24.346 110.800  0.00  0.00     0.133 H 
ATOM     22  H   IDS d 506      17.042  22.076 113.471  0.00  0.00     0.091 H 
ATOM     23  H   IDS d 506      17.466  25.565 112.215  0.00  0.00     0.104 H 
ATOM     24  O62 IDS d 502      31.714  26.491 110.297  0.00  0.00    -0.646 OA
ATOM     25  O2  IDS d 502      30.940  24.230 105.177  0.00  0.00    -0.244 OA
ATOM     26  S   IDS d 502      30.374  22.909 104.559  0.00  0.00     0.252 S 
ATOM     27  O3  IDS d 502      33.973  23.897 107.058  0.00  0.00    -0.390 OA
ATOM     28  O2S IDS d 502      29.012  22.806 105.029  0.00  0.00    -0.572 OA
ATOM     29  C4  IDS d 502      31.828  24.446 108.000  0.00  0.00     0.103 C 
ATOM     30  C1  IDS d 502      32.404  26.035 105.647  0.00  0.00     0.158 C 
ATOM     31  O61 IDS d 502      30.504  27.494 108.943  0.00  0.00    -0.646 OA
ATOM     32  C6  IDS d 502      31.385  26.693 109.144  0.00  0.00     0.206 C 
ATOM     33  O1  IDS d 502      33.771  26.343 105.724  0.00  0.00    -0.368 OA
ATOM     34  C3  IDS d 502      32.582  23.799 106.822  0.00  0.00     0.094 C 
ATOM     35  O3S IDS d 502      30.485  23.094 103.135  0.00  0.00    -0.572 OA
ATOM     36  O5  IDS d 502      31.679  26.513 106.752  0.00  0.00    -0.340 OA
ATOM     37  C2  IDS d 502      32.272  24.522 105.508  0.00  0.00     0.134 C 
ATOM     38  O4  IDS d 502      30.454  24.183 107.881  0.00  0.00    -0.348 OA
ATOM     39  O1S IDS d 502      31.198  21.831 105.030  0.00  0.00    -0.572 OA
ATOM     40  C5  IDS d 502      32.058  25.956 107.995  0.00  0.00     0.152 C 
ATOM     41  H   IDS d 502      34.193  23.445 107.888  0.00  0.00     0.210 HD
ATOM     42  H   IDS d 502      32.193  24.036 108.918  0.00  0.00     0.092 H 
ATOM     43  H   IDS d 502      31.982  26.526 104.795  0.00  0.00     0.133 H 
ATOM     44  H   IDS d 502      34.159  25.901 106.495  0.00  0.00     0.212 HD
ATOM     45  H   IDS d 502      32.273  22.777 106.744  0.00  0.00     0.091 H 
ATOM     46  H   IDS d 502      32.963  24.194 104.761  0.00  0.00     0.097 H 
ATOM     47  H   IDS d 502      33.110  26.090 108.143  0.00  0.00     0.104 H 
ATOM     48  S2  SGN d 505      17.426  20.748 105.691  0.00  0.00     0.251 S 
ATOM     49  O6  SGN d 505      18.085  21.894 106.444  0.00  0.00    -0.254 OA
ATOM     50  O5S SGN d 505      17.583  21.091 104.300  0.00  0.00    -0.572 OA
ATOM     51  C6  SGN d 505      19.224  21.836 107.233  0.00  0.00     0.067 C 
ATOM     52  O2S SGN d 505      18.216  28.612 105.765  0.00  0.00    -0.296 OA
ATOM     53  S1  SGN d 505      19.638  28.372 105.850  0.00  0.00     0.156 S 
ATOM     54  O6S SGN d 505      18.148  19.535 106.050  0.00  0.00    -0.572 OA
ATOM     55  O4  SGN d 505      18.022  23.210 109.297  0.00  0.00    -0.348 OA
ATOM     56  O5  SGN d 505      19.906  23.860 106.347  0.00  0.00    -0.349 OA
ATOM     57  O4S SGN d 505      16.058  20.741 106.157  0.00  0.00    -0.572 OA
ATOM     58  C1  SGN d 505      20.399  25.162 106.490  0.00  0.00     0.150 C 
ATOM     59  O1S SGN d 505      20.140  27.618 104.721  0.00  0.00    -0.296 OA
ATOM     60  N   SGN d 505      19.835  27.426 107.220  0.00  0.00    -0.210 NA
ATOM     61  C3  SGN d 505      18.922  25.420 108.510  0.00  0.00     0.083 C 
ATOM     62  C2  SGN d 505      19.350  26.028 107.160  0.00  0.00     0.081 C 
ATOM     63  O3S SGN d 505      20.353  29.578 106.074  0.00  0.00    -0.296 OA
ATOM     64  C4  SGN d 505      18.409  23.988 108.183  0.00  0.00     0.095 C 
ATOM     65  C5  SGN d 505      19.551  23.258 107.554  0.00  0.00     0.091 C 
ATOM     66  O3  SGN d 505      17.874  26.215 109.050  0.00  0.00    -0.391 OA
ATOM     67  H   SGN d 505      20.029  21.377 106.697  0.00  0.00     0.080 H 
ATOM     68  H   SGN d 505      19.069  21.252 108.116  0.00  0.00     0.080 H 
ATOM     69  H   SGN d 505      17.756  27.771 105.613  0.00  0.00     0.231 HD
ATOM     70  H   SGN d 505      20.610  25.574 105.525  0.00  0.00     0.131 H 
ATOM     71  H   SGN d 505      19.617  26.808 104.615  0.00  0.00     0.231 HD
ATOM     72  H   SGN d 505      19.342  27.889 107.984  0.00  0.00     0.140 HD
ATOM     73  H   SGN d 505      19.720  25.387 109.224  0.00  0.00     0.089 H 
ATOM     74  H   SGN d 505      18.449  26.053 106.584  0.00  0.00     0.076 H 
ATOM     75  H   SGN d 505      19.976  30.040 106.839  0.00  0.00     0.231 HD
ATOM     76  H   SGN d 505      17.540  24.114 107.571  0.00  0.00     0.091 H 
ATOM     77  H   SGN d 505      20.344  23.293 108.272  0.00  0.00     0.090 H 
ATOM     78  H   SGN d 505      17.141  26.257 108.417  0.00  0.00     0.210 HD
ATOM     79  C6  SGN d 503      27.676  26.740 109.492  0.00  0.00     0.067 C 
ATOM     80  O6  SGN d 503      27.163  26.368 110.753  0.00  0.00    -0.254 OA
ATOM     81  C4  SGN d 503      27.040  24.433 108.587  0.00  0.00     0.095 C 
ATOM     82  O5  SGN d 503      29.153  24.989 109.624  0.00  0.00    -0.349 OA
ATOM     83  O4  SGN d 503      26.114  24.937 107.681  0.00  0.00    -0.348 OA
ATOM     84  S1  SGN d 503      30.144  20.526 109.422  0.00  0.00     0.156 S 
ATOM     85  O4S SGN d 503      27.039  28.608 111.641  0.00  0.00    -0.572 OA
ATOM     86  O2S SGN d 503      29.144  20.187 110.434  0.00  0.00    -0.296 OA
ATOM     87  C3  SGN d 503      27.641  23.155 108.007  0.00  0.00     0.083 C 
ATOM     88  S2  SGN d 503      27.185  27.247 112.032  0.00  0.00     0.251 S 
ATOM     89  O5S SGN d 503      26.082  26.800 112.877  0.00  0.00    -0.572 OA
ATOM     90  C1  SGN d 503      29.810  23.869 109.085  0.00  0.00     0.150 C 
ATOM     91  O1S SGN d 503      31.278  21.229 109.992  0.00  0.00    -0.296 OA
ATOM     92  O6S SGN d 503      28.474  27.032 112.565  0.00  0.00    -0.572 OA
ATOM     93  C2  SGN d 503      28.801  22.729 108.887  0.00  0.00     0.081 C 
ATOM     94  N   SGN d 503      29.463  21.550 108.357  0.00  0.00    -0.210 NA
ATOM     95  O3  SGN d 503      26.639  22.155 108.012  0.00  0.00    -0.391 OA
ATOM     96  C5  SGN d 503      28.142  25.485 108.804  0.00  0.00     0.091 C 
ATOM     97  O3S SGN d 503      30.544  19.408 108.598  0.00  0.00    -0.296 OA
ATOM     98  H   SGN d 503      26.912  27.213 108.912  0.00  0.00     0.080 H 
ATOM     99  H   SGN d 503      28.487  27.430 109.604  0.00  0.00     0.080 H 
ATOM    100  H   SGN d 503      26.574  24.212 109.525  0.00  0.00     0.091 H 
ATOM    101  H   SGN d 503      28.924  20.979 110.948  0.00  0.00     0.231 HD
ATOM    102  H   SGN d 503      27.990  23.310 107.007  0.00  0.00     0.089 H 
ATOM    103  H   SGN d 503      30.566  23.553 109.773  0.00  0.00     0.131 H 
ATOM    104  H   SGN d 503      30.961  21.967 110.535  0.00  0.00     0.231 HD
ATOM    105  H   SGN d 503      28.392  22.481 109.844  0.00  0.00     0.076 H 
ATOM    106  H   SGN d 503      28.769  21.023 107.827  0.00  0.00     0.140 HD
ATOM    107  H   SGN d 503      26.325  22.017 108.920  0.00  0.00     0.210 HD
ATOM    108  H   SGN d 503      28.469  25.711 107.811  0.00  0.00     0.090 H 
ATOM    109  H   SGN d 503      31.206  19.702 107.953  0.00  0.00     0.231 HD
ATOM    110  O61 IDS d 504      22.265  22.197 108.671  0.00  0.00    -0.646 OA
ATOM    111  O62 IDS d 504      22.749  21.476 106.753  0.00  0.00    -0.646 OA
ATOM    112  O3S IDS d 504      24.890  28.988 108.600  0.00  0.00    -0.572 OA
ATOM    113  S   IDS d 504      23.503  28.740 108.476  0.00  0.00     0.252 S 
ATOM    114  C6  IDS d 504      22.811  22.379 107.590  0.00  0.00     0.206 C 
ATOM    115  O3  IDS d 504      24.571  25.440 105.183  0.00  0.00    -0.390 OA
ATOM    116  C1  IDS d 504      24.921  25.371 108.267  0.00  0.00     0.161 C 
ATOM    117  O2  IDS d 504      23.427  27.229 108.192  0.00  0.00    -0.244 OA
ATOM    118  C5  IDS d 504      23.531  23.702 107.279  0.00  0.00     0.152 C 
ATOM    119  C4  IDS d 504      22.719  24.705 106.463  0.00  0.00     0.103 C 
ATOM    120  O5  IDS d 504      23.989  24.304 108.469  0.00  0.00    -0.340 OA
ATOM    121  O4  IDS d 504      21.599  25.154 107.213  0.00  0.00    -0.348 OA
ATOM    122  C2  IDS d 504      24.334  26.465 107.399  0.00  0.00     0.134 C 
ATOM    123  O1S IDS d 504      22.948  29.388 107.345  0.00  0.00    -0.572 OA
ATOM    124  O2S IDS d 504      22.736  28.997 109.660  0.00  0.00    -0.572 OA
ATOM    125  C3  IDS d 504      23.604  25.894 106.122  0.00  0.00     0.094 C 
ATOM    126  H   IDS d 504      24.119  25.089 104.399  0.00  0.00     0.210 HD
ATOM    127  H   IDS d 504      25.135  25.754 109.244  0.00  0.00     0.133 H 
ATOM    128  H   IDS d 504      24.355  23.427 106.655  0.00  0.00     0.104 H 
ATOM    129  H   IDS d 504      22.371  24.235 105.567  0.00  0.00     0.092 H 
ATOM    130  H   IDS d 504      25.132  27.081 107.039  0.00  0.00     0.097 H 
ATOM    131  H   IDS d 504      23.004  26.685 105.723  0.00  0.00     0.091 H 
ENDROOT
TORSDOF 40
ENDMDL
MODEL 30
REMARK VINA RESULT:     -10.1      4.010      9.195
REMARK  0 active torsions:
REMARK  status: ('A' for Active; 'I' for Inactive)
REMARK       I    between atoms: C6_1  and  C5_82 
REMARK       I    between atoms: O2_4  and  C2_65 
REMARK       I    between atoms: O2_4  and  S_6 
REMARK       I    between atoms: S2_5  and  O6_13 
REMARK       I    between atoms: C6_7  and  C5_66 
REMARK       I    between atoms: C6_7  and  O6_11 
REMARK       I    between atoms: S_8  and  O2_37 
REMARK       I    between atoms: O6_11  and  S2_34 
REMARK       I    between atoms: O6_13  and  C6_16 
REMARK       I    between atoms: C6_16  and  C5_76 
REMARK       I    between atoms: O2S_17  and  S1_21 
REMARK       I    between atoms: O4_18  and  C4_33 
REMARK       I    between atoms: C4_19  and  O4_25 
REMARK       I    between atoms: O3_20  and  C3_57 
REMARK       I    between atoms: S1_21  and  N_56 
REMARK       I    between atoms: S1_21  and  O1S_55 
REMARK       I    between atoms: S1_21  and  O3S_68 
REMARK       I    between atoms: O3_24  and  C3_80 
REMARK       I    between atoms: O4_25  and  C1_53 
REMARK       I    between atoms: S1_26  and  N_59 
REMARK       I    between atoms: S1_26  and  O1S_42 
REMARK       I    between atoms: S1_26  and  O2S_29 
REMARK       I    between atoms: S1_26  and  O3S_87 
REMARK       I    between atoms: S_30  and  O2_54 
REMARK       I    between atoms: C3_31  and  O3_61 
REMARK       I    between atoms: O4_36  and  C4_70 
REMARK       I    between atoms: O4_36  and  C1_52 
REMARK       I    between atoms: O2_37  and  C2_45 
REMARK       I    between atoms: C4_38  and  O4_71 
REMARK       I    between atoms: C1_39  and  O1_51 
REMARK       I    between atoms: C1_40  and  O4_71 
REMARK       I    between atoms: C6_46  and  C5_84 
REMARK       I    between atoms: C6_47  and  C5_64 
REMARK       I    between atoms: C1_48  and  O4_77 
REMARK       I    between atoms: O3_50  and  C3_86 
REMARK       I    between atoms: O2_54  and  C2_79 
REMARK       I    between atoms: N_56  and  C2_67 
REMARK       I    between atoms: C2_58  and  N_59 
REMARK       I    between atoms: C3_62  and  O3_81 
REMARK       I    between atoms: C4_69  and  O4_77 
ROOT
ATOM      1  C6  IDS d 506      16.943  31.352 112.457  0.00  0.00     0.206 C 
ATOM      2  O62 IDS d 506      16.714  32.333 113.142  0.00  0.00    -0.646 OA
ATOM      3  S   IDS d 506      17.810  25.588 114.778  0.00  0.00     0.252 S 
ATOM      4  O1S IDS d 506      18.087  26.219 116.032  0.00  0.00    -0.572 OA
ATOM      5  O3S IDS d 506      18.808  24.612 114.398  0.00  0.00    -0.572 OA
ATOM      6  O4  IDS d 506      16.570  29.365 114.674  0.00  0.00    -0.390 OA
ATOM      7  O3  IDS d 506      20.145  29.294 114.872  0.00  0.00    -0.390 OA
ATOM      8  C4  IDS d 506      17.855  29.855 114.370  0.00  0.00     0.097 C 
ATOM      9  O2  IDS d 506      17.918  26.749 113.699  0.00  0.00    -0.244 OA
ATOM     10  C2  IDS d 506      18.969  27.676 113.512  0.00  0.00     0.134 C 
ATOM     11  C1  IDS d 506      18.879  28.301 112.112  0.00  0.00     0.161 C 
ATOM     12  O2S IDS d 506      16.471  25.072 114.746  0.00  0.00    -0.572 OA
ATOM     13  O5  IDS d 506      17.766  29.158 112.080  0.00  0.00    -0.340 OA
ATOM     14  O61 IDS d 506      16.375  31.260 111.378  0.00  0.00    -0.646 OA
ATOM     15  C3  IDS d 506      18.859  28.719 114.658  0.00  0.00     0.094 C 
ATOM     16  C5  IDS d 506      17.914  30.272 112.897  0.00  0.00     0.152 C 
ATOM     17  H   IDS d 506      16.536  29.102 115.608  0.00  0.00     0.210 HD
ATOM     18  H   IDS d 506      20.092  29.948 115.586  0.00  0.00     0.210 HD
ATOM     19  H   IDS d 506      18.090  30.716 114.962  0.00  0.00     0.091 H 
ATOM     20  H   IDS d 506      19.932  27.211 113.557  0.00  0.00     0.097 H 
ATOM     21  H   IDS d 506      19.779  28.835 111.888  0.00  0.00     0.133 H 
ATOM     22  H   IDS d 506      18.499  28.197 115.521  0.00  0.00     0.091 H 
ATOM     23  H   IDS d 506      18.882  30.717 112.794  0.00  0.00     0.104 H 
ATOM     24  O62 IDS d 502      32.464  28.619 108.475  0.00  0.00    -0.646 OA
ATOM     25  O2  IDS d 502      30.514  24.540 105.088  0.00  0.00    -0.244 OA
ATOM     26  S   IDS d 502      29.749  23.182 105.218  0.00  0.00     0.252 S 
ATOM     27  O3  IDS d 502      33.840  24.592 106.424  0.00  0.00    -0.390 OA
ATOM     28  O2S IDS d 502      28.508  23.490 105.890  0.00  0.00    -0.572 OA
ATOM     29  C4  IDS d 502      31.973  25.800 107.342  0.00  0.00     0.103 C 
ATOM     30  C1  IDS d 502      32.156  26.135 104.471  0.00  0.00     0.158 C 
ATOM     31  O61 IDS d 502      31.069  29.119 107.024  0.00  0.00    -0.646 OA
ATOM     32  C6  IDS d 502      31.919  28.359 107.420  0.00  0.00     0.206 C 
ATOM     33  O1  IDS d 502      33.527  26.240 104.189  0.00  0.00    -0.368 OA
ATOM     34  C3  IDS d 502      32.427  24.610 106.475  0.00  0.00     0.094 C 
ATOM     35  O3S IDS d 502      29.578  22.725 103.863  0.00  0.00    -0.572 OA
ATOM     36  O5  IDS d 502      31.706  27.138 105.346  0.00  0.00    -0.340 OA
ATOM     37  C2  IDS d 502      31.901  24.744 105.043  0.00  0.00     0.134 C 
ATOM     38  O4  IDS d 502      30.590  25.718 107.568  0.00  0.00    -0.348 OA
ATOM     39  O1S IDS d 502      30.581  22.297 105.986  0.00  0.00    -0.572 OA
ATOM     40  C5  IDS d 502      32.295  27.112 106.631  0.00  0.00     0.152 C 
ATOM     41  H   IDS d 502      34.196  24.508 107.322  0.00  0.00     0.210 HD
ATOM     42  H   IDS d 502      32.491  25.769 108.278  0.00  0.00     0.092 H 
ATOM     43  H   IDS d 502      31.602  26.274 103.567  0.00  0.00     0.133 H 
ATOM     44  H   IDS d 502      34.035  26.115 105.006  0.00  0.00     0.212 HD
ATOM     45  H   IDS d 502      32.042  23.711 106.909  0.00  0.00     0.091 H 
ATOM     46  H   IDS d 502      32.402  24.032 104.422  0.00  0.00     0.097 H 
ATOM     47  H   IDS d 502      33.360  27.140 106.538  0.00  0.00     0.104 H 
ATOM     48  S2  SGN d 505      17.195  23.650 109.192  0.00  0.00     0.251 S 
ATOM     49  O6  SGN d 505      18.067  24.896 109.243  0.00  0.00    -0.254 OA
ATOM     50  O5S SGN d 505      17.086  23.342 107.787  0.00  0.00    -0.572 OA
ATOM     51  C6  SGN d 505      19.337  25.010 109.788  0.00  0.00     0.067 C 
ATOM     52  O2S SGN d 505      18.490  30.588 105.634  0.00  0.00    -0.296 OA
ATOM     53  S1  SGN d 505      19.881  30.199 105.594  0.00  0.00     0.156 S 
ATOM     54  O6S SGN d 505      17.896  22.612 109.936  0.00  0.00    -0.572 OA
ATOM     55  O4  SGN d 505      18.674  27.292 111.183  0.00  0.00    -0.348 OA
ATOM     56  O5  SGN d 505      19.953  26.340 107.999  0.00  0.00    -0.349 OA
ATOM     57  O4S SGN d 505      15.954  24.044 109.818  0.00  0.00    -0.572 OA
ATOM     58  C1  SGN d 505      20.547  27.491 107.469  0.00  0.00     0.150 C 
ATOM     59  O1S SGN d 505      20.091  28.972 104.856  0.00  0.00    -0.296 OA
ATOM     60  N   SGN d 505      20.292  29.907 107.192  0.00  0.00    -0.210 NA
ATOM     61  C3  SGN d 505      19.535  28.799 109.366  0.00  0.00     0.083 C 
ATOM     62  C2  SGN d 505      19.716  28.704 107.838  0.00  0.00     0.081 C 
ATOM     63  O3S SGN d 505      20.703  31.266 105.144  0.00  0.00    -0.296 OA
ATOM     64  C4  SGN d 505      18.875  27.456 109.794  0.00  0.00     0.095 C 
ATOM     65  C5  SGN d 505      19.814  26.368 109.387  0.00  0.00     0.091 C 
ATOM     66  O3  SGN d 505      18.674  29.893 109.651  0.00  0.00    -0.391 OA
ATOM     67  H   SGN d 505      19.984  24.253 109.394  0.00  0.00     0.080 H 
ATOM     68  H   SGN d 505      19.329  24.887 110.851  0.00  0.00     0.080 H 
ATOM     69  H   SGN d 505      17.955  29.840 105.945  0.00  0.00     0.231 HD
ATOM     70  H   SGN d 505      20.582  27.418 106.402  0.00  0.00     0.131 H 
ATOM     71  H   SGN d 505      19.506  28.281 105.205  0.00  0.00     0.231 HD
ATOM     72  H   SGN d 505      19.997  30.717 107.737  0.00  0.00     0.140 HD
ATOM     73  H   SGN d 505      20.458  28.954 109.885  0.00  0.00     0.089 H 
ATOM     74  H   SGN d 505      18.720  28.616 107.459  0.00  0.00     0.076 H 
ATOM     75  H   SGN d 505      20.521  32.059 105.671  0.00  0.00     0.231 HD
ATOM     76  H   SGN d 505      17.909  27.438 109.333  0.00  0.00     0.091 H 
ATOM     77  H   SGN d 505      20.738  26.587 109.881  0.00  0.00     0.090 H 
ATOM     78  H   SGN d 505      17.831  29.770 109.187  0.00  0.00     0.210 HD
ATOM     79  C6  SGN d 503      28.372  29.097 108.283  0.00  0.00     0.067 C 
ATOM     80  O6  SGN d 503      28.105  29.377 109.640  0.00  0.00    -0.254 OA
ATOM     81  C4  SGN d 503      27.416  26.747 108.611  0.00  0.00     0.095 C 
ATOM     82  O5  SGN d 503      29.728  27.371 108.949  0.00  0.00    -0.349 OA
ATOM     83  O4  SGN d 503      26.359  26.949 107.731  0.00  0.00    -0.348 OA
ATOM     84  S1  SGN d 503      30.367  23.152 110.604  0.00  0.00     0.156 S 
ATOM     85  O4S SGN d 503      28.310  31.773 109.446  0.00  0.00    -0.572 OA
ATOM     86  O2S SGN d 503      29.575  23.427 111.802  0.00  0.00    -0.296 OA
ATOM     87  C3  SGN d 503      27.801  25.270 108.574  0.00  0.00     0.083 C 
ATOM     88  S2  SGN d 503      28.445  30.702 110.373  0.00  0.00     0.251 S 
ATOM     89  O5S SGN d 503      27.512  30.825 111.489  0.00  0.00    -0.572 OA
ATOM     90  C1  SGN d 503      30.187  26.045 108.870  0.00  0.00     0.150 C 
ATOM     91  O1S SGN d 503      31.636  23.854 110.617  0.00  0.00    -0.296 OA
ATOM     92  O6S SGN d 503      29.799  30.545 110.739  0.00  0.00    -0.572 OA
ATOM     93  C2  SGN d 503      29.087  25.092 109.361  0.00  0.00     0.081 C 
ATOM     94  N   SGN d 503      29.549  23.716 109.314  0.00  0.00    -0.210 NA
ATOM     95  O3  SGN d 503      26.760  24.528 109.180  0.00  0.00    -0.391 OA
ATOM     96  C5  SGN d 503      28.604  27.616 108.163  0.00  0.00     0.091 C 
ATOM     97  O3S SGN d 503      30.516  21.744 110.312  0.00  0.00    -0.296 OA
ATOM     98  H   SGN d 503      27.537  29.387 107.680  0.00  0.00     0.080 H 
ATOM     99  H   SGN d 503      29.231  29.641 107.949  0.00  0.00     0.080 H 
ATOM    100  H   SGN d 503      27.139  27.017 109.609  0.00  0.00     0.091 H 
ATOM    101  H   SGN d 503      29.516  24.386 111.937  0.00  0.00     0.231 HD
ATOM    102  H   SGN d 503      27.948  24.933 107.570  0.00  0.00     0.089 H 
ATOM    103  H   SGN d 503      31.046  25.942 109.500  0.00  0.00     0.131 H 
ATOM    104  H   SGN d 503      31.485  24.791 110.817  0.00  0.00     0.231 HD
ATOM    105  H   SGN d 503      28.868  25.337 110.378  0.00  0.00     0.076 H 
ATOM    106  H   SGN d 503      28.729  23.123 109.190  0.00  0.00     0.140 HD
ATOM    107  H   SGN d 503      26.630  24.836 110.091  0.00  0.00     0.210 HD
ATOM    108  H   SGN d 503      28.736  27.347 107.135  0.00  0.00     0.090 H 
ATOM    109  H   SGN d 503      31.049  21.635 109.509  0.00  0.00     0.231 HD
ATOM    110  O61 IDS d 504      22.625  25.493 110.422  0.00  0.00    -0.646 OA
ATOM    111  O62 IDS d 504      22.658  23.962 108.977  0.00  0.00    -0.646 OA
ATOM    112  O3S IDS d 504      25.613  31.139 106.929  0.00  0.00    -0.572 OA
ATOM    113  S   IDS d 504      24.217  31.071 107.146  0.00  0.00     0.252 S 
ATOM    114  C6  IDS d 504      22.948  25.115 109.303  0.00  0.00     0.206 C 
ATOM    115  O3  IDS d 504      24.372  26.567 105.545  0.00  0.00    -0.390 OA
ATOM    116  C1  IDS d 504      25.342  27.763 108.241  0.00  0.00     0.161 C 
ATOM    117  O2  IDS d 504      23.987  29.611 107.579  0.00  0.00    -0.244 OA
ATOM    118  C5  IDS d 504      23.674  26.058 108.329  0.00  0.00     0.152 C 
ATOM    119  C4  IDS d 504      22.779  26.728 107.288  0.00  0.00     0.103 C 
ATOM    120  O5  IDS d 504      24.403  27.033 109.038  0.00  0.00    -0.340 OA
ATOM    121  O4  IDS d 504      21.868  27.613 107.924  0.00  0.00    -0.348 OA
ATOM    122  C2  IDS d 504      24.661  28.458 107.079  0.00  0.00     0.134 C 
ATOM    123  O1S IDS d 504      23.485  31.251 105.945  0.00  0.00    -0.572 OA
ATOM    124  O2S IDS d 504      23.727  31.917 108.195  0.00  0.00    -0.572 OA
ATOM    125  C3  IDS d 504      23.650  27.514 106.321  0.00  0.00     0.094 C 
ATOM    126  H   IDS d 504      23.748  25.987 105.080  0.00  0.00     0.210 HD
ATOM    127  H   IDS d 504      25.775  28.488 108.898  0.00  0.00     0.133 H 
ATOM    128  H   IDS d 504      24.333  25.426 107.772  0.00  0.00     0.104 H 
ATOM    129  H   IDS d 504      22.225  25.980 106.761  0.00  0.00     0.092 H 
ATOM    130  H   IDS d 504      25.406  28.737 106.364  0.00  0.00     0.097 H 
ATOM    131  H   IDS d 504      23.033  28.140 105.709  0.00  0.00     0.091 H 
ENDROOT
TORSDOF 40
ENDMDL
MODEL 31
REMARK VINA RESULT:     -10.1      4.527     10.327
REMARK  0 active torsions:
REMARK  status: ('A' for Active; 'I' for Inactive)
REMARK       I    between atoms: C6_1  and  C5_82 
REMARK       I    between atoms: O2_4  and  C2_65 
REMARK       I    between atoms: O2_4  and  S_6 
REMARK       I    between atoms: S2_5  and  O6_13 
REMARK       I    between atoms: C6_7  and  C5_66 
REMARK       I    between atoms: C6_7  and  O6_11 
REMARK       I    between atoms: S_8  and  O2_37 
REMARK       I    between atoms: O6_11  and  S2_34 
REMARK       I    between atoms: O6_13  and  C6_16 
REMARK       I    between atoms: C6_16  and  C5_76 
REMARK       I    between atoms: O2S_17  and  S1_21 
REMARK       I    between atoms: O4_18  and  C4_33 
REMARK       I    between atoms: C4_19  and  O4_25 
REMARK       I    between atoms: O3_20  and  C3_57 
REMARK       I    between atoms: S1_21  and  N_56 
REMARK       I    between atoms: S1_21  and  O1S_55 
REMARK       I    between atoms: S1_21  and  O3S_68 
REMARK       I    between atoms: O3_24  and  C3_80 
REMARK       I    between atoms: O4_25  and  C1_53 
REMARK       I    between atoms: S1_26  and  N_59 
REMARK       I    between atoms: S1_26  and  O1S_42 
REMARK       I    between atoms: S1_26  and  O2S_29 
REMARK       I    between atoms: S1_26  and  O3S_87 
REMARK       I    between atoms: S_30  and  O2_54 
REMARK       I    between atoms: C3_31  and  O3_61 
REMARK       I    between atoms: O4_36  and  C4_70 
REMARK       I    between atoms: O4_36  and  C1_52 
REMARK       I    between atoms: O2_37  and  C2_45 
REMARK       I    between atoms: C4_38  and  O4_71 
REMARK       I    between atoms: C1_39  and  O1_51 
REMARK       I    between atoms: C1_40  and  O4_71 
REMARK       I    between atoms: C6_46  and  C5_84 
REMARK       I    between atoms: C6_47  and  C5_64 
REMARK       I    between atoms: C1_48  and  O4_77 
REMARK       I    between atoms: O3_50  and  C3_86 
REMARK       I    between atoms: O2_54  and  C2_79 
REMARK       I    between atoms: N_56  and  C2_67 
REMARK       I    between atoms: C2_58  and  N_59 
REMARK       I    between atoms: C3_62  and  O3_81 
REMARK       I    between atoms: C4_69  and  O4_77 
ROOT
ATOM      1  C6  IDS d 506      19.577  31.288 113.636  0.00  0.00     0.206 C 
ATOM      2  O62 IDS d 506      19.114  31.372 114.760  0.00  0.00    -0.646 OA
ATOM      3  S   IDS d 506      16.604  28.578 108.822  0.00  0.00     0.252 S 
ATOM      4  O1S IDS d 506      15.795  27.914 109.797  0.00  0.00    -0.572 OA
ATOM      5  O3S IDS d 506      17.148  27.681 107.826  0.00  0.00    -0.572 OA
ATOM      6  O4  IDS d 506      17.028  30.364 112.349  0.00  0.00    -0.390 OA
ATOM      7  O3  IDS d 506      18.439  27.075 112.506  0.00  0.00    -0.390 OA
ATOM      8  C4  IDS d 506      17.980  29.425 112.792  0.00  0.00     0.097 C 
ATOM      9  O2  IDS d 506      17.857  29.127 109.630  0.00  0.00    -0.244 OA
ATOM     10  C2  IDS d 506      18.706  28.421 110.514  0.00  0.00     0.134 C 
ATOM     11  C1  IDS d 506      20.022  29.189 110.708  0.00  0.00     0.161 C 
ATOM     12  O2S IDS d 506      15.912  29.701 108.256  0.00  0.00    -0.572 OA
ATOM     13  O5  IDS d 506      19.754  30.341 111.467  0.00  0.00    -0.340 OA
ATOM     14  O61 IDS d 506      20.232  32.230 113.213  0.00  0.00    -0.646 OA
ATOM     15  C3  IDS d 506      17.913  28.217 111.834  0.00  0.00     0.094 C 
ATOM     16  C5  IDS d 506      19.376  30.056 112.773  0.00  0.00     0.152 C 
ATOM     17  H   IDS d 506      16.146  29.960 112.363  0.00  0.00     0.210 HD
ATOM     18  H   IDS d 506      17.953  26.935 113.334  0.00  0.00     0.210 HD
ATOM     19  H   IDS d 506      17.777  29.113 113.796  0.00  0.00     0.091 H 
ATOM     20  H   IDS d 506      18.988  27.464 110.126  0.00  0.00     0.097 H 
ATOM     21  H   IDS d 506      20.742  28.569 111.198  0.00  0.00     0.133 H 
ATOM     22  H   IDS d 506      16.885  28.091 111.564  0.00  0.00     0.091 H 
ATOM     23  H   IDS d 506      20.002  29.309 113.216  0.00  0.00     0.104 H 
ATOM     24  O62 IDS d 502      29.305  18.622 110.613  0.00  0.00    -0.646 OA
ATOM     25  O2  IDS d 502      30.398  21.090 105.650  0.00  0.00    -0.244 OA
ATOM     26  S   IDS d 502      29.624  21.491 104.351  0.00  0.00     0.252 S 
ATOM     27  O3  IDS d 502      30.743  17.571 106.237  0.00  0.00    -0.390 OA
ATOM     28  O2S IDS d 502      28.562  22.371 104.780  0.00  0.00    -0.572 OA
ATOM     29  C4  IDS d 502      29.400  19.059 107.568  0.00  0.00     0.103 C 
ATOM     30  C1  IDS d 502      32.039  20.148 107.078  0.00  0.00     0.158 C 
ATOM     31  O61 IDS d 502      30.052  20.556 110.612  0.00  0.00    -0.646 OA
ATOM     32  C6  IDS d 502      29.911  19.505 110.037  0.00  0.00     0.206 C 
ATOM     33  O1  IDS d 502      32.920  19.059 107.163  0.00  0.00    -0.368 OA
ATOM     34  C3  IDS d 502      30.071  18.815 106.203  0.00  0.00     0.094 C 
ATOM     35  O3S IDS d 502      30.609  22.132 103.519  0.00  0.00    -0.572 OA
ATOM     36  O5  IDS d 502      31.319  20.355 108.267  0.00  0.00    -0.340 OA
ATOM     37  C2  IDS d 502      31.104  19.904 105.898  0.00  0.00     0.134 C 
ATOM     38  O4  IDS d 502      28.568  20.187 107.489  0.00  0.00    -0.348 OA
ATOM     39  O1S IDS d 502      29.125  20.279 103.762  0.00  0.00    -0.572 OA
ATOM     40  C5  IDS d 502      30.467  19.289 108.637  0.00  0.00     0.152 C 
ATOM     41  H   IDS d 502      30.107  16.865 106.430  0.00  0.00     0.210 HD
ATOM     42  H   IDS d 502      28.817  18.201 107.830  0.00  0.00     0.092 H 
ATOM     43  H   IDS d 502      32.605  21.043 106.927  0.00  0.00     0.133 H 
ATOM     44  H   IDS d 502      32.413  18.243 107.300  0.00  0.00     0.212 HD
ATOM     45  H   IDS d 502      29.313  18.826 105.448  0.00  0.00     0.091 H 
ATOM     46  H   IDS d 502      31.696  19.595 105.062  0.00  0.00     0.097 H 
ATOM     47  H   IDS d 502      31.029  18.380 108.686  0.00  0.00     0.104 H 
ATOM     48  S2  SGN d 505      20.695  31.129 105.343  0.00  0.00     0.251 S 
ATOM     49  O6  SGN d 505      21.334  30.538 106.592  0.00  0.00    -0.254 OA
ATOM     50  O5S SGN d 505      21.785  31.761 104.643  0.00  0.00    -0.572 OA
ATOM     51  C6  SGN d 505      21.458  29.196 106.916  0.00  0.00     0.067 C 
ATOM     52  O2S SGN d 505      25.977  32.621 111.030  0.00  0.00    -0.296 OA
ATOM     53  S1  SGN d 505      26.541  31.330 110.713  0.00  0.00     0.156 S 
ATOM     54  O6S SGN d 505      20.121  30.018 104.595  0.00  0.00    -0.572 OA
ATOM     55  O4  SGN d 505      20.494  29.590 109.468  0.00  0.00    -0.348 OA
ATOM     56  O5  SGN d 505      23.589  29.615 107.708  0.00  0.00    -0.349 OA
ATOM     57  O4S SGN d 505      19.692  32.043 105.841  0.00  0.00    -0.572 OA
ATOM     58  C1  SGN d 505      24.583  29.498 108.686  0.00  0.00     0.150 C 
ATOM     59  O1S SGN d 505      26.983  31.243 109.337  0.00  0.00    -0.296 OA
ATOM     60  N   SGN d 505      25.277  30.247 110.908  0.00  0.00    -0.210 NA
ATOM     61  C3  SGN d 505      22.802  29.831 110.432  0.00  0.00     0.083 C 
ATOM     62  C2  SGN d 505      24.179  30.290 109.914  0.00  0.00     0.081 C 
ATOM     63  O3S SGN d 505      27.548  30.962 111.643  0.00  0.00    -0.296 OA
ATOM     64  C4  SGN d 505      21.821  30.017 109.238  0.00  0.00     0.095 C 
ATOM     65  C5  SGN d 505      22.336  29.165 108.124  0.00  0.00     0.091 C 
ATOM     66  O3  SGN d 505      22.428  30.666 111.520  0.00  0.00    -0.391 OA
ATOM     67  H   SGN d 505      21.908  28.655 106.110  0.00  0.00     0.080 H 
ATOM     68  H   SGN d 505      20.508  28.739 107.101  0.00  0.00     0.080 H 
ATOM     69  H   SGN d 505      25.293  32.844 110.379  0.00  0.00     0.231 HD
ATOM     70  H   SGN d 505      25.503  29.899 108.313  0.00  0.00     0.131 H 
ATOM     71  H   SGN d 505      26.258  31.504 108.747  0.00  0.00     0.231 HD
ATOM     72  H   SGN d 505      24.865  30.420 111.826  0.00  0.00     0.140 HD
ATOM     73  H   SGN d 505      22.802  28.816 110.772  0.00  0.00     0.089 H 
ATOM     74  H   SGN d 505      24.040  31.324 109.675  0.00  0.00     0.076 H 
ATOM     75  H   SGN d 505      27.198  31.038 112.545  0.00  0.00     0.231 HD
ATOM     76  H   SGN d 505      21.783  31.069 109.043  0.00  0.00     0.091 H 
ATOM     77  H   SGN d 505      22.374  28.170 108.518  0.00  0.00     0.090 H 
ATOM     78  H   SGN d 505      22.423  31.591 111.230  0.00  0.00     0.210 HD
ATOM     79  C6  SGN d 503      27.755  22.438 110.824  0.00  0.00     0.067 C 
ATOM     80  O6  SGN d 503      26.530  22.158 111.466  0.00  0.00    -0.254 OA
ATOM     81  C4  SGN d 503      26.492  22.760 108.623  0.00  0.00     0.095 C 
ATOM     82  O5  SGN d 503      27.380  20.659 109.426  0.00  0.00    -0.349 OA
ATOM     83  O4  SGN d 503      26.826  24.106 108.516  0.00  0.00    -0.348 OA
ATOM     84  S1  SGN d 503      25.244  18.690 105.889  0.00  0.00     0.156 S 
ATOM     85  O4S SGN d 503      27.354  22.459 113.714  0.00  0.00    -0.572 OA
ATOM     86  O2S SGN d 503      23.921  18.944 106.457  0.00  0.00    -0.296 OA
ATOM     87  C3  SGN d 503      26.348  22.183 107.216  0.00  0.00     0.083 C 
ATOM     88  S2  SGN d 503      26.361  21.772 112.959  0.00  0.00     0.251 S 
ATOM     89  O5S SGN d 503      25.010  22.161 113.352  0.00  0.00    -0.572 OA
ATOM     90  C1  SGN d 503      27.341  20.059 108.155  0.00  0.00     0.150 C 
ATOM     91  O1S SGN d 503      25.965  17.668 106.624  0.00  0.00    -0.296 OA
ATOM     92  O6S SGN d 503      26.614  20.383 112.977  0.00  0.00    -0.572 OA
ATOM     93  C2  SGN d 503      26.202  20.677 107.330  0.00  0.00     0.081 C 
ATOM     94  N   SGN d 503      26.125  20.052 106.022  0.00  0.00    -0.210 NA
ATOM     95  O3  SGN d 503      25.185  22.737 106.630  0.00  0.00    -0.391 OA
ATOM     96  C5  SGN d 503      27.614  22.032 109.382  0.00  0.00     0.091 C 
ATOM     97  O3S SGN d 503      25.231  18.442 104.465  0.00  0.00    -0.296 OA
ATOM     98  H   SGN d 503      27.971  23.484 110.889  0.00  0.00     0.080 H 
ATOM     99  H   SGN d 503      28.555  21.902 111.290  0.00  0.00     0.080 H 
ATOM    100  H   SGN d 503      25.571  22.638 109.153  0.00  0.00     0.091 H 
ATOM    101  H   SGN d 503      24.004  19.102 107.410  0.00  0.00     0.231 HD
ATOM    102  H   SGN d 503      27.201  22.415 106.614  0.00  0.00     0.089 H 
ATOM    103  H   SGN d 503      27.157  19.012 108.277  0.00  0.00     0.131 H 
ATOM    104  H   SGN d 503      25.946  17.878 107.571  0.00  0.00     0.231 HD
ATOM    105  H   SGN d 503      25.283  20.490 107.845  0.00  0.00     0.076 H 
ATOM    106  H   SGN d 503      25.726  20.737 105.380  0.00  0.00     0.140 HD
ATOM    107  H   SGN d 503      24.414  22.525 107.179  0.00  0.00     0.210 HD
ATOM    108  H   SGN d 503      28.497  22.298 108.838  0.00  0.00     0.090 H 
ATOM    109  H   SGN d 503      26.137  18.281 104.156  0.00  0.00     0.231 HD
ATOM    110  O61 IDS d 504      22.493  26.075 107.714  0.00  0.00    -0.646 OA
ATOM    111  O62 IDS d 504      23.395  26.391 105.838  0.00  0.00    -0.646 OA
ATOM    112  O3S IDS d 504      28.172  25.810 112.262  0.00  0.00    -0.572 OA
ATOM    113  S   IDS d 504      27.345  26.956 112.193  0.00  0.00     0.252 S 
ATOM    114  C6  IDS d 504      23.514  26.189 107.048  0.00  0.00     0.206 C 
ATOM    115  O3  IDS d 504      27.736  26.727 107.432  0.00  0.00    -0.390 OA
ATOM    116  C1  IDS d 504      26.124  24.939 109.392  0.00  0.00     0.161 C 
ATOM    117  O2  IDS d 504      26.525  26.735 110.909  0.00  0.00    -0.244 OA
ATOM    118  C5  IDS d 504      24.901  26.106 107.707  0.00  0.00     0.152 C 
ATOM    119  C4  IDS d 504      25.557  27.452 108.010  0.00  0.00     0.103 C 
ATOM    120  O5  IDS d 504      24.844  25.322 108.877  0.00  0.00    -0.340 OA
ATOM    121  O4  IDS d 504      24.809  28.149 108.995  0.00  0.00    -0.348 OA
ATOM    122  C2  IDS d 504      26.986  26.148 109.694  0.00  0.00     0.134 C 
ATOM    123  O1S IDS d 504      28.096  28.140 111.989  0.00  0.00    -0.572 OA
ATOM    124  O2S IDS d 504      26.420  27.098 113.279  0.00  0.00    -0.572 OA
ATOM    125  C3  IDS d 504      26.966  27.208 108.527  0.00  0.00     0.094 C 
ATOM    126  H   IDS d 504      27.722  27.381 106.715  0.00  0.00     0.210 HD
ATOM    127  H   IDS d 504      25.921  24.400 110.294  0.00  0.00     0.133 H 
ATOM    128  H   IDS d 504      25.528  25.643 106.974  0.00  0.00     0.104 H 
ATOM    129  H   IDS d 504      25.588  28.040 107.116  0.00  0.00     0.092 H 
ATOM    130  H   IDS d 504      28.002  25.827 109.792  0.00  0.00     0.097 H 
ATOM    131  H   IDS d 504      27.366  28.119 108.922  0.00  0.00     0.091 H 
ENDROOT
TORSDOF 40
ENDMDL
MODEL 32
REMARK VINA RESULT:     -10.1      5.467      9.636
REMARK  0 active torsions:
REMARK  status: ('A' for Active; 'I' for Inactive)
REMARK       I    between atoms: C6_1  and  C5_82 
REMARK       I    between atoms: O2_4  and  C2_65 
REMARK       I    between atoms: O2_4  and  S_6 
REMARK       I    between atoms: S2_5  and  O6_13 
REMARK       I    between atoms: C6_7  and  C5_66 
REMARK       I    between atoms: C6_7  and  O6_11 
REMARK       I    between atoms: S_8  and  O2_37 
REMARK       I    between atoms: O6_11  and  S2_34 
REMARK       I    between atoms: O6_13  and  C6_16 
REMARK       I    between atoms: C6_16  and  C5_76 
REMARK       I    between atoms: O2S_17  and  S1_21 
REMARK       I    between atoms: O4_18  and  C4_33 
REMARK       I    between atoms: C4_19  and  O4_25 
REMARK       I    between atoms: O3_20  and  C3_57 
REMARK       I    between atoms: S1_21  and  N_56 
REMARK       I    between atoms: S1_21  and  O1S_55 
REMARK       I    between atoms: S1_21  and  O3S_68 
REMARK       I    between atoms: O3_24  and  C3_80 
REMARK       I    between atoms: O4_25  and  C1_53 
REMARK       I    between atoms: S1_26  and  N_59 
REMARK       I    between atoms: S1_26  and  O1S_42 
REMARK       I    between atoms: S1_26  and  O2S_29 
REMARK       I    between atoms: S1_26  and  O3S_87 
REMARK       I    between atoms: S_30  and  O2_54 
REMARK       I    between atoms: C3_31  and  O3_61 
REMARK       I    between atoms: O4_36  and  C4_70 
REMARK       I    between atoms: O4_36  and  C1_52 
REMARK       I    between atoms: O2_37  and  C2_45 
REMARK       I    between atoms: C4_38  and  O4_71 
REMARK       I    between atoms: C1_39  and  O1_51 
REMARK       I    between atoms: C1_40  and  O4_71 
REMARK       I    between atoms: C6_46  and  C5_84 
REMARK       I    between atoms: C6_47  and  C5_64 
REMARK       I    between atoms: C1_48  and  O4_77 
REMARK       I    between atoms: O3_50  and  C3_86 
REMARK       I    between atoms: O2_54  and  C2_79 
REMARK       I    between atoms: N_56  and  C2_67 
REMARK       I    between atoms: C2_58  and  N_59 
REMARK       I    between atoms: C3_62  and  O3_81 
REMARK       I    between atoms: C4_69  and  O4_77 
ROOT
ATOM      1  C6  IDS d 506      15.327  24.945 112.263  0.00  0.00     0.206 C 
ATOM      2  O62 IDS d 506      14.775  24.781 113.337  0.00  0.00    -0.646 OA
ATOM      3  S   IDS d 506      15.016  20.866 107.507  0.00  0.00     0.252 S 
ATOM      4  O1S IDS d 506      14.628  19.887 108.475  0.00  0.00    -0.572 OA
ATOM      5  O3S IDS d 506      16.086  20.420 106.641  0.00  0.00    -0.572 OA
ATOM      6  O4  IDS d 506      13.935  22.677 110.878  0.00  0.00    -0.390 OA
ATOM      7  O3  IDS d 506      16.945  20.820 111.441  0.00  0.00    -0.390 OA
ATOM      8  C4  IDS d 506      15.194  22.477 111.475  0.00  0.00     0.097 C 
ATOM      9  O2  IDS d 506      15.627  22.064 108.354  0.00  0.00    -0.244 OA
ATOM     10  C2  IDS d 506      16.619  22.009 109.360  0.00  0.00     0.134 C 
ATOM     11  C1  IDS d 506      17.225  23.402 109.581  0.00  0.00     0.161 C 
ATOM     12  O2S IDS d 506      13.876  21.363 106.790  0.00  0.00    -0.572 OA
ATOM     13  O5  IDS d 506      16.261  24.209 110.209  0.00  0.00    -0.340 OA
ATOM     14  O61 IDS d 506      15.368  26.079 111.807  0.00  0.00    -0.646 OA
ATOM     15  C3  IDS d 506      15.941  21.424 110.629  0.00  0.00     0.094 C 
ATOM     16  C5  IDS d 506      15.969  23.799 111.504  0.00  0.00     0.152 C 
ATOM     17  H   IDS d 506      13.448  21.838 110.862  0.00  0.00     0.210 HD
ATOM     18  H   IDS d 506      16.536  20.449 112.239  0.00  0.00     0.210 HD
ATOM     19  H   IDS d 506      15.094  22.136 112.485  0.00  0.00     0.091 H 
ATOM     20  H   IDS d 506      17.440  21.380 109.084  0.00  0.00     0.097 H 
ATOM     21  H   IDS d 506      18.109  23.329 110.179  0.00  0.00     0.133 H 
ATOM     22  H   IDS d 506      15.210  20.718 110.295  0.00  0.00     0.091 H 
ATOM     23  H   IDS d 506      16.854  23.566 112.059  0.00  0.00     0.104 H 
ATOM     24  O62 IDS d 502      30.824  20.166 111.153  0.00  0.00    -0.646 OA
ATOM     25  O2  IDS d 502      30.864  22.655 106.081  0.00  0.00    -0.244 OA
ATOM     26  S   IDS d 502      30.155  22.492 104.696  0.00  0.00     0.252 S 
ATOM     27  O3  IDS d 502      33.093  20.006 107.012  0.00  0.00    -0.390 OA
ATOM     28  O2S IDS d 502      28.740  22.608 104.962  0.00  0.00    -0.572 OA
ATOM     29  C4  IDS d 502      30.999  20.482 108.096  0.00  0.00     0.103 C 
ATOM     30  C1  IDS d 502      32.574  22.882 107.708  0.00  0.00     0.158 C 
ATOM     31  O61 IDS d 502      30.322  22.175 111.031  0.00  0.00    -0.646 OA
ATOM     32  C6  IDS d 502      30.876  21.218 110.546  0.00  0.00     0.206 C 
ATOM     33  O1  IDS d 502      33.902  22.508 107.959  0.00  0.00    -0.368 OA
ATOM     34  C3  IDS d 502      31.839  20.630 106.814  0.00  0.00     0.094 C 
ATOM     35  O3S IDS d 502      30.683  23.559 103.886  0.00  0.00    -0.572 OA
ATOM     36  O5  IDS d 502      31.734  22.671 108.816  0.00  0.00    -0.340 OA
ATOM     37  C2  IDS d 502      32.089  22.105 106.489  0.00  0.00     0.134 C 
ATOM     38  O4  IDS d 502      29.686  20.917 107.852  0.00  0.00    -0.348 OA
ATOM     39  O1S IDS d 502      30.511  21.198 104.185  0.00  0.00    -0.572 OA
ATOM     40  C5  IDS d 502      31.611  21.320 109.217  0.00  0.00     0.152 C 
ATOM     41  H   IDS d 502      32.959  19.068 107.220  0.00  0.00     0.210 HD
ATOM     42  H   IDS d 502      30.986  19.454 108.391  0.00  0.00     0.092 H 
ATOM     43  H   IDS d 502      32.537  23.934 107.519  0.00  0.00     0.133 H 
ATOM     44  H   IDS d 502      33.942  21.554 108.131  0.00  0.00     0.212 HD
ATOM     45  H   IDS d 502      31.304  20.176 106.005  0.00  0.00     0.091 H 
ATOM     46  H   IDS d 502      32.842  22.171 105.732  0.00  0.00     0.097 H 
ATOM     47  H   IDS d 502      32.582  20.907 109.391  0.00  0.00     0.104 H 
ATOM     48  S2  SGN d 505      17.274  25.205 104.127  0.00  0.00     0.251 S 
ATOM     49  O6  SGN d 505      17.988  25.133 105.469  0.00  0.00    -0.254 OA
ATOM     50  O5S SGN d 505      17.878  26.329 103.456  0.00  0.00    -0.572 OA
ATOM     51  C6  SGN d 505      18.821  24.121 105.923  0.00  0.00     0.067 C 
ATOM     52  O2S SGN d 505      20.058  29.656 110.036  0.00  0.00    -0.296 OA
ATOM     53  S1  SGN d 505      21.291  28.921 109.881  0.00  0.00     0.156 S 
ATOM     54  O6S SGN d 505      17.530  23.945 103.443  0.00  0.00    -0.572 OA
ATOM     55  O4  SGN d 505      17.521  23.964 108.348  0.00  0.00    -0.348 OA
ATOM     56  O5  SGN d 505      20.221  25.721 106.832  0.00  0.00    -0.349 OA
ATOM     57  O4S SGN d 505      15.880  25.385 104.463  0.00  0.00    -0.572 OA
ATOM     58  C1  SGN d 505      20.983  26.232 107.889  0.00  0.00     0.150 C 
ATOM     59  O1S SGN d 505      21.857  29.064 108.556  0.00  0.00    -0.296 OA
ATOM     60  N   SGN d 505      20.863  27.313 110.079  0.00  0.00    -0.210 NA
ATOM     61  C3  SGN d 505      19.146  25.527 109.457  0.00  0.00     0.083 C 
ATOM     62  C2  SGN d 505      20.060  26.682 109.005  0.00  0.00     0.081 C 
ATOM     63  O3S SGN d 505      22.213  29.234 110.915  0.00  0.00    -0.296 OA
ATOM     64  C4  SGN d 505      18.380  25.073 108.181  0.00  0.00     0.095 C 
ATOM     65  C5  SGN d 505      19.414  24.642 107.192  0.00  0.00     0.091 C 
ATOM     66  O3  SGN d 505      18.240  26.024 110.433  0.00  0.00    -0.391 OA
ATOM     67  H   SGN d 505      19.588  23.916 105.206  0.00  0.00     0.080 H 
ATOM     68  H   SGN d 505      18.290  23.205 106.077  0.00  0.00     0.080 H 
ATOM     69  H   SGN d 505      19.450  29.422 109.317  0.00  0.00     0.231 HD
ATOM     70  H   SGN d 505      21.542  27.080 107.551  0.00  0.00     0.131 H 
ATOM     71  H   SGN d 505      21.186  28.838 107.892  0.00  0.00     0.231 HD
ATOM     72  H   SGN d 505      20.325  27.244 110.943  0.00  0.00     0.140 HD
ATOM     73  H   SGN d 505      19.689  24.711 109.888  0.00  0.00     0.089 H 
ATOM     74  H   SGN d 505      19.384  27.436 108.662  0.00  0.00     0.076 H 
ATOM     75  H   SGN d 505      21.782  29.122 111.776  0.00  0.00     0.231 HD
ATOM     76  H   SGN d 505      17.769  25.901 107.889  0.00  0.00     0.091 H 
ATOM     77  H   SGN d 505      19.969  23.866 107.677  0.00  0.00     0.090 H 
ATOM     78  H   SGN d 505      17.739  26.766 110.061  0.00  0.00     0.210 HD
ATOM     79  C6  SGN d 503      27.356  22.384 110.896  0.00  0.00     0.067 C 
ATOM     80  O6  SGN d 503      26.449  21.466 111.467  0.00  0.00    -0.254 OA
ATOM     81  C4  SGN d 503      26.397  21.846 108.586  0.00  0.00     0.095 C 
ATOM     82  O5  SGN d 503      28.230  20.674 109.642  0.00  0.00    -0.349 OA
ATOM     83  O4  SGN d 503      25.911  23.133 108.381  0.00  0.00    -0.348 OA
ATOM     84  S1  SGN d 503      28.028  17.723 106.149  0.00  0.00     0.156 S 
ATOM     85  O4S SGN d 503      26.688  22.258 113.734  0.00  0.00    -0.572 OA
ATOM     86  O2S SGN d 503      26.743  17.181 106.590  0.00  0.00    -0.296 OA
ATOM     87  C3  SGN d 503      26.772  21.249 107.231  0.00  0.00     0.083 C 
ATOM     88  S2  SGN d 503      26.362  21.100 112.973  0.00  0.00     0.251 S 
ATOM     89  O5S SGN d 503      24.998  20.647 113.225  0.00  0.00    -0.572 OA
ATOM     90  C1  SGN d 503      28.687  20.123 108.432  0.00  0.00     0.150 C 
ATOM     91  O1S SGN d 503      29.114  17.331 107.027  0.00  0.00    -0.296 OA
ATOM     92  O6S SGN d 503      27.360  20.116 113.136  0.00  0.00    -0.572 OA
ATOM     93  C2  SGN d 503      27.503  19.941 107.471  0.00  0.00     0.081 C 
ATOM     94  N   SGN d 503      27.948  19.346 106.223  0.00  0.00    -0.210 NA
ATOM     95  O3  SGN d 503      25.578  21.009 106.511  0.00  0.00    -0.391 OA
ATOM     96  C5  SGN d 503      27.639  21.926 109.491  0.00  0.00     0.091 C 
ATOM     97  O3S SGN d 503      28.323  17.469 104.757  0.00  0.00    -0.296 OA
ATOM     98  H   SGN d 503      26.924  23.363 110.882  0.00  0.00     0.080 H 
ATOM     99  H   SGN d 503      28.260  22.425 111.468  0.00  0.00     0.080 H 
ATOM    100  H   SGN d 503      25.659  21.230 109.054  0.00  0.00     0.091 H 
ATOM    101  H   SGN d 503      26.611  17.387 107.529  0.00  0.00     0.231 HD
ATOM    102  H   SGN d 503      27.401  21.913 106.676  0.00  0.00     0.089 H 
ATOM    103  H   SGN d 503      29.124  19.167 108.635  0.00  0.00     0.131 H 
ATOM    104  H   SGN d 503      28.870  17.520 107.947  0.00  0.00     0.231 HD
ATOM    105  H   SGN d 503      26.805  19.273 107.930  0.00  0.00     0.076 H 
ATOM    106  H   SGN d 503      27.305  19.654 105.493  0.00  0.00     0.140 HD
ATOM    107  H   SGN d 503      25.010  20.406 107.017  0.00  0.00     0.210 HD
ATOM    108  H   SGN d 503      28.265  22.637 108.993  0.00  0.00     0.090 H 
ATOM    109  H   SGN d 503      29.185  17.853 104.534  0.00  0.00     0.231 HD
ATOM    110  O61 IDS d 504      21.357  22.203 107.079  0.00  0.00    -0.646 OA
ATOM    111  O62 IDS d 504      22.123  22.924 105.255  0.00  0.00    -0.646 OA
ATOM    112  O3S IDS d 504      25.599  25.417 112.047  0.00  0.00    -0.572 OA
ATOM    113  S   IDS d 504      24.279  25.869 111.812  0.00  0.00     0.252 S 
ATOM    114  C6  IDS d 504      22.197  22.867 106.484  0.00  0.00     0.206 C 
ATOM    115  O3  IDS d 504      25.272  25.761 107.134  0.00  0.00    -0.390 OA
ATOM    116  C1  IDS d 504      24.763  23.432 109.123  0.00  0.00     0.161 C 
ATOM    117  O2  IDS d 504      23.887  25.175 110.495  0.00  0.00    -0.244 OA
ATOM    118  C5  IDS d 504      23.295  23.622 107.251  0.00  0.00     0.152 C 
ATOM    119  C4  IDS d 504      23.022  25.108 107.478  0.00  0.00     0.103 C 
ATOM    120  O5  IDS d 504      23.564  22.987 108.480  0.00  0.00    -0.340 OA
ATOM    121  O4  IDS d 504      21.903  25.274 108.336  0.00  0.00    -0.348 OA
ATOM    122  C2  IDS d 504      24.736  24.926 109.377  0.00  0.00     0.134 C 
ATOM    123  O1S IDS d 504      24.234  27.263 111.557  0.00  0.00    -0.572 OA
ATOM    124  O2S IDS d 504      23.322  25.484 112.807  0.00  0.00    -0.572 OA
ATOM    125  C3  IDS d 504      24.247  25.742 108.119  0.00  0.00     0.094 C 
ATOM    126  H   IDS d 504      24.968  26.264 106.362  0.00  0.00     0.210 HD
ATOM    127  H   IDS d 504      24.804  22.903 110.052  0.00  0.00     0.133 H 
ATOM    128  H   IDS d 504      24.153  23.585 106.612  0.00  0.00     0.104 H 
ATOM    129  H   IDS d 504      22.813  25.577 106.539  0.00  0.00     0.092 H 
ATOM    130  H   IDS d 504      25.734  25.255 109.580  0.00  0.00     0.097 H 
ATOM    131  H   IDS d 504      24.004  26.728 108.459  0.00  0.00     0.091 H 
ENDROOT
TORSDOF 40
ENDMDL
MODEL 33
REMARK VINA RESULT:     -10.1      4.554      9.597
REMARK  0 active torsions:
REMARK  status: ('A' for Active; 'I' for Inactive)
REMARK       I    between atoms: C6_1  and  C5_82 
REMARK       I    between atoms: O2_4  and  C2_65 
REMARK       I    between atoms: O2_4  and  S_6 
REMARK       I    between atoms: S2_5  and  O6_13 
REMARK       I    between atoms: C6_7  and  C5_66 
REMARK       I    between atoms: C6_7  and  O6_11 
REMARK       I    between atoms: S_8  and  O2_37 
REMARK       I    between atoms: O6_11  and  S2_34 
REMARK       I    between atoms: O6_13  and  C6_16 
REMARK       I    between atoms: C6_16  and  C5_76 
REMARK       I    between atoms: O2S_17  and  S1_21 
REMARK       I    between atoms: O4_18  and  C4_33 
REMARK       I    between atoms: C4_19  and  O4_25 
REMARK       I    between atoms: O3_20  and  C3_57 
REMARK       I    between atoms: S1_21  and  N_56 
REMARK       I    between atoms: S1_21  and  O1S_55 
REMARK       I    between atoms: S1_21  and  O3S_68 
REMARK       I    between atoms: O3_24  and  C3_80 
REMARK       I    between atoms: O4_25  and  C1_53 
REMARK       I    between atoms: S1_26  and  N_59 
REMARK       I    between atoms: S1_26  and  O1S_42 
REMARK       I    between atoms: S1_26  and  O2S_29 
REMARK       I    between atoms: S1_26  and  O3S_87 
REMARK       I    between atoms: S_30  and  O2_54 
REMARK       I    between atoms: C3_31  and  O3_61 
REMARK       I    between atoms: O4_36  and  C4_70 
REMARK       I    between atoms: O4_36  and  C1_52 
REMARK       I    between atoms: O2_37  and  C2_45 
REMARK       I    between atoms: C4_38  and  O4_71 
REMARK       I    between atoms: C1_39  and  O1_51 
REMARK       I    between atoms: C1_40  and  O4_71 
REMARK       I    between atoms: C6_46  and  C5_84 
REMARK       I    between atoms: C6_47  and  C5_64 
REMARK       I    between atoms: C1_48  and  O4_77 
REMARK       I    between atoms: O3_50  and  C3_86 
REMARK       I    between atoms: O2_54  and  C2_79 
REMARK       I    between atoms: N_56  and  C2_67 
REMARK       I    between atoms: C2_58  and  N_59 
REMARK       I    between atoms: C3_62  and  O3_81 
REMARK       I    between atoms: C4_69  and  O4_77 
ROOT
ATOM      1  C6  IDS d 506      17.185  29.843 108.059  0.00  0.00     0.206 C 
ATOM      2  O62 IDS d 506      16.124  29.765 107.463  0.00  0.00    -0.646 OA
ATOM      3  S   IDS d 506      22.046  33.299 106.116  0.00  0.00     0.252 S 
ATOM      4  O1S IDS d 506      21.442  33.280 104.819  0.00  0.00    -0.572 OA
ATOM      5  O3S IDS d 506      23.447  32.940 106.097  0.00  0.00    -0.572 OA
ATOM      6  O4  IDS d 506      18.262  32.118 106.426  0.00  0.00    -0.390 OA
ATOM      7  O3  IDS d 506      20.142  29.629 104.664  0.00  0.00    -0.390 OA
ATOM      8  C4  IDS d 506      18.572  30.788 106.081  0.00  0.00     0.097 C 
ATOM      9  O2  IDS d 506      21.321  32.141 106.927  0.00  0.00    -0.244 OA
ATOM     10  C2  IDS d 506      21.124  30.794 106.543  0.00  0.00     0.134 C 
ATOM     11  C1  IDS d 506      20.802  29.936 107.775  0.00  0.00     0.161 C 
ATOM     12  O2S IDS d 506      21.788  34.542 106.786  0.00  0.00    -0.572 OA
ATOM     13  O5  IDS d 506      19.513  30.271 108.223  0.00  0.00    -0.340 OA
ATOM     14  O61 IDS d 506      17.156  29.856 109.282  0.00  0.00    -0.646 OA
ATOM     15  C3  IDS d 506      19.993  30.790 105.478  0.00  0.00     0.094 C 
ATOM     16  C5  IDS d 506      18.514  29.903 107.331  0.00  0.00     0.152 C 
ATOM     17  H   IDS d 506      18.300  32.675 105.632  0.00  0.00     0.210 HD
ATOM     18  H   IDS d 506      19.442  29.613 103.993  0.00  0.00     0.210 HD
ATOM     19  H   IDS d 506      17.871  30.398 105.373  0.00  0.00     0.091 H 
ATOM     20  H   IDS d 506      22.005  30.363 106.115  0.00  0.00     0.097 H 
ATOM     21  H   IDS d 506      20.862  28.897 107.527  0.00  0.00     0.133 H 
ATOM     22  H   IDS d 506      20.091  31.695 104.916  0.00  0.00     0.091 H 
ATOM     23  H   IDS d 506      18.662  28.913 106.952  0.00  0.00     0.104 H 
ATOM     24  O62 IDS d 502      28.228  18.331 104.940  0.00  0.00    -0.646 OA
ATOM     25  O2  IDS d 502      31.224  20.543 109.188  0.00  0.00    -0.244 OA
ATOM     26  S   IDS d 502      31.941  21.891 109.533  0.00  0.00     0.252 S 
ATOM     27  O3  IDS d 502      32.672  18.647 106.513  0.00  0.00    -0.390 OA
ATOM     28  O2S IDS d 502      30.920  22.910 109.459  0.00  0.00    -0.572 OA
ATOM     29  C4  IDS d 502      30.531  19.740 106.418  0.00  0.00     0.103 C 
ATOM     30  C1  IDS d 502      30.852  18.224 108.866  0.00  0.00     0.158 C 
ATOM     31  O61 IDS d 502      27.342  18.471 106.810  0.00  0.00    -0.646 OA
ATOM     32  C6  IDS d 502      28.349  18.428 106.146  0.00  0.00     0.206 C 
ATOM     33  O1  IDS d 502      31.525  17.049 108.498  0.00  0.00    -0.368 OA
ATOM     34  C3  IDS d 502      31.914  19.690 107.094  0.00  0.00     0.094 C 
ATOM     35  O3S IDS d 502      32.472  21.696 110.857  0.00  0.00    -0.572 OA
ATOM     36  O5  IDS d 502      29.625  18.376 108.198  0.00  0.00    -0.340 OA
ATOM     37  C2  IDS d 502      31.782  19.402 108.593  0.00  0.00     0.134 C 
ATOM     38  O4  IDS d 502      29.841  20.889 106.840  0.00  0.00    -0.348 OA
ATOM     39  O1S IDS d 502      32.977  22.084 108.557  0.00  0.00    -0.572 OA
ATOM     40  C5  IDS d 502      29.725  18.498 106.793  0.00  0.00     0.152 C 
ATOM     41  H   IDS d 502      32.769  18.809 105.562  0.00  0.00     0.210 HD
ATOM     42  H   IDS d 502      30.660  19.770 105.356  0.00  0.00     0.092 H 
ATOM     43  H   IDS d 502      30.607  18.175 109.906  0.00  0.00     0.133 H 
ATOM     44  H   IDS d 502      31.749  17.088 107.554  0.00  0.00     0.212 HD
ATOM     45  H   IDS d 502      32.391  20.639 106.958  0.00  0.00     0.091 H 
ATOM     46  H   IDS d 502      32.747  19.162 108.986  0.00  0.00     0.097 H 
ATOM     47  H   IDS d 502      30.272  17.667 106.398  0.00  0.00     0.104 H 
ATOM     48  S2  SGN d 505      24.332  32.459 111.539  0.00  0.00     0.251 S 
ATOM     49  O6  SGN d 505      23.734  31.170 110.995  0.00  0.00    -0.254 OA
ATOM     50  O5S SGN d 505      24.780  32.118 112.866  0.00  0.00    -0.572 OA
ATOM     51  C6  SGN d 505      24.202  30.410 109.934  0.00  0.00     0.067 C 
ATOM     52  O2S SGN d 505      19.828  26.273 113.518  0.00  0.00    -0.296 OA
ATOM     53  S1  SGN d 505      20.882  25.452 112.969  0.00  0.00     0.156 S 
ATOM     54  O6S SGN d 505      25.433  32.821 110.656  0.00  0.00    -0.572 OA
ATOM     55  O4  SGN d 505      21.703  30.243 108.784  0.00  0.00    -0.348 OA
ATOM     56  O5  SGN d 505      23.723  28.493 111.136  0.00  0.00    -0.349 OA
ATOM     57  O4S SGN d 505      23.248  33.414 111.499  0.00  0.00    -0.572 OA
ATOM     58  C1  SGN d 505      23.163  27.215 111.241  0.00  0.00     0.150 C 
ATOM     59  O1S SGN d 505      22.148  25.654 113.641  0.00  0.00    -0.296 OA
ATOM     60  N   SGN d 505      21.059  25.978 111.387  0.00  0.00    -0.210 NA
ATOM     61  C3  SGN d 505      21.210  28.039 109.886  0.00  0.00     0.083 C 
ATOM     62  C2  SGN d 505      21.652  27.319 111.175  0.00  0.00     0.081 C 
ATOM     63  O3S SGN d 505      20.496  24.087 112.910  0.00  0.00    -0.296 OA
ATOM     64  C4  SGN d 505      21.914  29.427 109.917  0.00  0.00     0.095 C 
ATOM     65  C5  SGN d 505      23.384  29.160 109.958  0.00  0.00     0.091 C 
ATOM     66  O3  SGN d 505      19.798  28.196 109.918  0.00  0.00    -0.391 OA
ATOM     67  H   SGN d 505      25.239  30.183 110.064  0.00  0.00     0.080 H 
ATOM     68  H   SGN d 505      24.113  30.927 109.001  0.00  0.00     0.080 H 
ATOM     69  H   SGN d 505      20.121  27.198 113.545  0.00  0.00     0.231 HD
ATOM     70  H   SGN d 505      23.431  26.783 112.183  0.00  0.00     0.131 H 
ATOM     71  H   SGN d 505      22.361  26.601 113.652  0.00  0.00     0.231 HD
ATOM     72  H   SGN d 505      20.132  25.983 110.961  0.00  0.00     0.140 HD
ATOM     73  H   SGN d 505      21.468  27.499 108.998  0.00  0.00     0.089 H 
ATOM     74  H   SGN d 505      21.275  27.936 111.964  0.00  0.00     0.076 H 
ATOM     75  H   SGN d 505      19.645  24.011 112.451  0.00  0.00     0.231 HD
ATOM     76  H   SGN d 505      21.510  29.948 110.759  0.00  0.00     0.091 H 
ATOM     77  H   SGN d 505      23.593  28.574 109.087  0.00  0.00     0.090 H 
ATOM     78  H   SGN d 505      19.545  28.683 110.718  0.00  0.00     0.210 HD
ATOM     79  C6  SGN d 503      25.738  20.977 106.891  0.00  0.00     0.067 C 
ATOM     80  O6  SGN d 503      25.127  21.589 105.775  0.00  0.00    -0.254 OA
ATOM     81  C4  SGN d 503      27.150  23.084 107.232  0.00  0.00     0.095 C 
ATOM     82  O5  SGN d 503      27.768  21.200 105.846  0.00  0.00    -0.349 OA
ATOM     83  O4  SGN d 503      26.587  23.378 108.469  0.00  0.00    -0.348 OA
ATOM     84  S1  SGN d 503      31.337  23.709 104.462  0.00  0.00     0.156 S 
ATOM     85  O4S SGN d 503      23.263  20.062 105.645  0.00  0.00    -0.572 OA
ATOM     86  O2S SGN d 503      30.485  24.639 103.722  0.00  0.00    -0.296 OA
ATOM     87  C3  SGN d 503      28.592  23.586 107.224  0.00  0.00     0.083 C 
ATOM     88  S2  SGN d 503      24.066  20.931 104.854  0.00  0.00     0.251 S 
ATOM     89  O5S SGN d 503      23.282  22.012 104.263  0.00  0.00    -0.572 OA
ATOM     90  C1  SGN d 503      29.130  21.550 105.830  0.00  0.00     0.150 C 
ATOM     91  O1S SGN d 503      31.407  22.409 103.823  0.00  0.00    -0.296 OA
ATOM     92  O6S SGN d 503      24.835  20.181 103.939  0.00  0.00    -0.572 OA
ATOM     93  C2  SGN d 503      29.270  23.073 105.967  0.00  0.00     0.081 C 
ATOM     94  N   SGN d 503      30.669  23.461 105.924  0.00  0.00    -0.210 NA
ATOM     95  O3  SGN d 503      28.565  25.001 107.214  0.00  0.00    -0.391 OA
ATOM     96  C5  SGN d 503      27.119  21.559 107.026  0.00  0.00     0.091 C 
ATOM     97  O3S SGN d 503      32.643  24.240 104.780  0.00  0.00    -0.296 OA
ATOM     98  H   SGN d 503      25.169  21.178 107.774  0.00  0.00     0.080 H 
ATOM     99  H   SGN d 503      25.788  19.917 106.758  0.00  0.00     0.080 H 
ATOM    100  H   SGN d 503      26.604  23.557 106.443  0.00  0.00     0.091 H 
ATOM    101  H   SGN d 503      29.629  24.220 103.543  0.00  0.00     0.231 HD
ATOM    102  H   SGN d 503      29.127  23.242 108.084  0.00  0.00     0.089 H 
ATOM    103  H   SGN d 503      29.550  21.242 104.895  0.00  0.00     0.131 H 
ATOM    104  H   SGN d 503      30.509  22.096 103.629  0.00  0.00     0.231 HD
ATOM    105  H   SGN d 503      28.772  23.526 105.136  0.00  0.00     0.076 H 
ATOM    106  H   SGN d 503      30.761  24.328 106.453  0.00  0.00     0.140 HD
ATOM    107  H   SGN d 503      28.079  25.310 106.433  0.00  0.00     0.210 HD
ATOM    108  H   SGN d 503      27.593  21.179 107.907  0.00  0.00     0.090 H 
ATOM    109  H   SGN d 503      33.153  23.573 105.267  0.00  0.00     0.231 HD
ATOM    110  O61 IDS d 504      25.393  28.015 107.862  0.00  0.00    -0.646 OA
ATOM    111  O62 IDS d 504      26.945  28.214 109.271  0.00  0.00    -0.646 OA
ATOM    112  O3S IDS d 504      22.837  21.319 109.144  0.00  0.00    -0.572 OA
ATOM    113  S   IDS d 504      22.131  22.466 109.579  0.00  0.00     0.252 S 
ATOM    114  C6  IDS d 504      26.074  27.516 108.749  0.00  0.00     0.206 C 
ATOM    115  O3  IDS d 504      26.261  24.119 111.335  0.00  0.00    -0.390 OA
ATOM    116  C1  IDS d 504      25.289  23.893 108.396  0.00  0.00     0.161 C 
ATOM    117  O2  IDS d 504      23.156  23.604 109.424  0.00  0.00    -0.244 OA
ATOM    118  C5  IDS d 504      25.833  26.069 109.211  0.00  0.00     0.152 C 
ATOM    119  C4  IDS d 504      24.991  25.924 110.477  0.00  0.00     0.103 C 
ATOM    120  O5  IDS d 504      25.271  25.306 108.167  0.00  0.00    -0.340 OA
ATOM    121  O4  IDS d 504      23.666  26.376 110.237  0.00  0.00    -0.348 OA
ATOM    122  C2  IDS d 504      24.559  23.527 109.672  0.00  0.00     0.134 C 
ATOM    123  O1S IDS d 504      21.812  22.400 110.958  0.00  0.00    -0.572 OA
ATOM    124  O2S IDS d 504      20.985  22.804 108.787  0.00  0.00    -0.572 OA
ATOM    125  C3  IDS d 504      24.956  24.458 110.882  0.00  0.00     0.094 C 
ATOM    126  H   IDS d 504      26.504  24.693 112.079  0.00  0.00     0.210 HD
ATOM    127  H   IDS d 504      24.791  23.459 107.553  0.00  0.00     0.133 H 
ATOM    128  H   IDS d 504      26.802  25.697 109.469  0.00  0.00     0.104 H 
ATOM    129  H   IDS d 504      25.423  26.512 111.259  0.00  0.00     0.092 H 
ATOM    130  H   IDS d 504      24.838  22.533 109.953  0.00  0.00     0.097 H 
ATOM    131  H   IDS d 504      24.221  24.314 111.645  0.00  0.00     0.091 H 
ENDROOT
TORSDOF 40
ENDMDL
MODEL 34
REMARK VINA RESULT:     -10.1      4.323     11.455
REMARK  0 active torsions:
REMARK  status: ('A' for Active; 'I' for Inactive)
REMARK       I    between atoms: C6_1  and  C5_82 
REMARK       I    between atoms: O2_4  and  C2_65 
REMARK       I    between atoms: O2_4  and  S_6 
REMARK       I    between atoms: S2_5  and  O6_13 
REMARK       I    between atoms: C6_7  and  C5_66 
REMARK       I    between atoms: C6_7  and  O6_11 
REMARK       I    between atoms: S_8  and  O2_37 
REMARK       I    between atoms: O6_11  and  S2_34 
REMARK       I    between atoms: O6_13  and  C6_16 
REMARK       I    between atoms: C6_16  and  C5_76 
REMARK       I    between atoms: O2S_17  and  S1_21 
REMARK       I    between atoms: O4_18  and  C4_33 
REMARK       I    between atoms: C4_19  and  O4_25 
REMARK       I    between atoms: O3_20  and  C3_57 
REMARK       I    between atoms: S1_21  and  N_56 
REMARK       I    between atoms: S1_21  and  O1S_55 
REMARK       I    between atoms: S1_21  and  O3S_68 
REMARK       I    between atoms: O3_24  and  C3_80 
REMARK       I    between atoms: O4_25  and  C1_53 
REMARK       I    between atoms: S1_26  and  N_59 
REMARK       I    between atoms: S1_26  and  O1S_42 
REMARK       I    between atoms: S1_26  and  O2S_29 
REMARK       I    between atoms: S1_26  and  O3S_87 
REMARK       I    between atoms: S_30  and  O2_54 
REMARK       I    between atoms: C3_31  and  O3_61 
REMARK       I    between atoms: O4_36  and  C4_70 
REMARK       I    between atoms: O4_36  and  C1_52 
REMARK       I    between atoms: O2_37  and  C2_45 
REMARK       I    between atoms: C4_38  and  O4_71 
REMARK       I    between atoms: C1_39  and  O1_51 
REMARK       I    between atoms: C1_40  and  O4_71 
REMARK       I    between atoms: C6_46  and  C5_84 
REMARK       I    between atoms: C6_47  and  C5_64 
REMARK       I    between atoms: C1_48  and  O4_77 
REMARK       I    between atoms: O3_50  and  C3_86 
REMARK       I    between atoms: O2_54  and  C2_79 
REMARK       I    between atoms: N_56  and  C2_67 
REMARK       I    between atoms: C2_58  and  N_59 
REMARK       I    between atoms: C3_62  and  O3_81 
REMARK       I    between atoms: C4_69  and  O4_77 
ROOT
ATOM      1  C6  IDS d 506      32.518  19.237 107.647  0.00  0.00     0.206 C 
ATOM      2  O62 IDS d 506      33.074  18.278 108.155  0.00  0.00    -0.646 OA
ATOM      3  S   IDS d 506      34.080  25.202 108.798  0.00  0.00     0.252 S 
ATOM      4  O1S IDS d 506      34.715  24.725 109.988  0.00  0.00    -0.572 OA
ATOM      5  O3S IDS d 506      33.201  26.327 109.034  0.00  0.00    -0.572 OA
ATOM      6  O4  IDS d 506      34.531  21.258 108.579  0.00  0.00    -0.390 OA
ATOM      7  O3  IDS d 506      32.173  22.042 111.159  0.00  0.00    -0.390 OA
ATOM      8  C4  IDS d 506      33.371  21.009 109.339  0.00  0.00     0.097 C 
ATOM      9  O2  IDS d 506      33.134  24.014 108.330  0.00  0.00    -0.244 OA
ATOM     10  C2  IDS d 506      32.181  23.301 109.093  0.00  0.00     0.134 C 
ATOM     11  C1  IDS d 506      31.196  22.577 108.164  0.00  0.00     0.161 C 
ATOM     12  O2S IDS d 506      35.042  25.442 107.760  0.00  0.00    -0.572 OA
ATOM     13  O5  IDS d 506      31.874  21.518 107.538  0.00  0.00    -0.340 OA
ATOM     14  O61 IDS d 506      32.161  19.141 106.482  0.00  0.00    -0.646 OA
ATOM     15  C3  IDS d 506      32.975  22.337 110.018  0.00  0.00     0.094 C 
ATOM     16  C5  IDS d 506      32.248  20.513 108.422  0.00  0.00     0.152 C 
ATOM     17  H   IDS d 506      35.239  21.572 109.163  0.00  0.00     0.210 HD
ATOM     18  H   IDS d 506      32.656  21.440 111.747  0.00  0.00     0.210 HD
ATOM     19  H   IDS d 506      33.547  20.254 110.077  0.00  0.00     0.091 H 
ATOM     20  H   IDS d 506      31.582  23.948 109.699  0.00  0.00     0.097 H 
ATOM     21  H   IDS d 506      30.359  22.216 108.724  0.00  0.00     0.133 H 
ATOM     22  H   IDS d 506      33.885  22.836 110.281  0.00  0.00     0.091 H 
ATOM     23  H   IDS d 506      31.457  20.260 109.097  0.00  0.00     0.104 H 
ATOM     24  O62 IDS d 502      19.079  24.683 114.991  0.00  0.00    -0.646 OA
ATOM     25  O2  IDS d 502      18.418  28.060 110.510  0.00  0.00    -0.244 OA
ATOM     26  S   IDS d 502      19.169  29.247 109.824  0.00  0.00     0.252 S 
ATOM     27  O3  IDS d 502      17.029  28.753 113.742  0.00  0.00    -0.390 OA
ATOM     28  O2S IDS d 502      20.486  28.748 109.502  0.00  0.00    -0.572 OA
ATOM     29  C4  IDS d 502      18.877  27.267 113.332  0.00  0.00     0.103 C 
ATOM     30  C1  IDS d 502      16.685  26.780 111.502  0.00  0.00     0.158 C 
ATOM     31  O61 IDS d 502      18.982  23.822 113.107  0.00  0.00    -0.646 OA
ATOM     32  C6  IDS d 502      18.737  24.759 113.827  0.00  0.00     0.206 C 
ATOM     33  O1  IDS d 502      15.516  26.926 112.264  0.00  0.00    -0.368 OA
ATOM     34  C3  IDS d 502      18.054  28.461 112.812  0.00  0.00     0.094 C 
ATOM     35  O3S IDS d 502      18.372  29.568 108.669  0.00  0.00    -0.572 OA
ATOM     36  O5  IDS d 502      17.529  25.770 111.995  0.00  0.00    -0.340 OA
ATOM     37  C2  IDS d 502      17.396  28.129 111.469  0.00  0.00     0.134 C 
ATOM     38  O4  IDS d 502      20.014  27.091 112.526  0.00  0.00    -0.348 OA
ATOM     39  O1S IDS d 502      19.211  30.328 110.769  0.00  0.00    -0.572 OA
ATOM     40  C5  IDS d 502      18.029  25.998 113.297  0.00  0.00     0.152 C 
ATOM     41  H   IDS d 502      17.424  28.966 114.602  0.00  0.00     0.210 HD
ATOM     42  H   IDS d 502      19.180  27.462 114.340  0.00  0.00     0.092 H 
ATOM     43  H   IDS d 502      16.421  26.474 110.512  0.00  0.00     0.133 H 
ATOM     44  H   IDS d 502      15.750  27.204 113.163  0.00  0.00     0.212 HD
ATOM     45  H   IDS d 502      18.713  29.295 112.685  0.00  0.00     0.091 H 
ATOM     46  H   IDS d 502      16.670  28.882 111.244  0.00  0.00     0.097 H 
ATOM     47  H   IDS d 502      17.215  26.174 113.969  0.00  0.00     0.104 H 
ATOM     48  S2  SGN d 505      30.732  26.597 104.088  0.00  0.00     0.251 S 
ATOM     49  O6  SGN d 505      30.044  25.553 104.955  0.00  0.00    -0.254 OA
ATOM     50  O5S SGN d 505      29.842  26.781 102.968  0.00  0.00    -0.572 OA
ATOM     51  C6  SGN d 505      29.529  25.728 106.231  0.00  0.00     0.067 C 
ATOM     52  O2S SGN d 505      26.674  19.822 103.771  0.00  0.00    -0.296 OA
ATOM     53  S1  SGN d 505      25.707  20.472 104.625  0.00  0.00     0.156 S 
ATOM     54  O6S SGN d 505      30.863  27.801 104.898  0.00  0.00    -0.572 OA
ATOM     55  O4  SGN d 505      30.773  23.460 107.182  0.00  0.00    -0.348 OA
ATOM     56  O5  SGN d 505      27.711  24.425 105.644  0.00  0.00    -0.349 OA
ATOM     57  O4S SGN d 505      32.008  26.011 103.750  0.00  0.00    -0.572 OA
ATOM     58  C1  SGN d 505      26.814  23.380 105.895  0.00  0.00     0.150 C 
ATOM     59  O1S SGN d 505      25.149  21.664 104.021  0.00  0.00    -0.296 OA
ATOM     60  N   SGN d 505      26.577  20.948 105.976  0.00  0.00    -0.210 NA
ATOM     61  C3  SGN d 505      28.747  22.032 106.777  0.00  0.00     0.083 C 
ATOM     62  C2  SGN d 505      27.547  22.055 105.810  0.00  0.00     0.081 C 
ATOM     63  O3S SGN d 505      24.716  19.560 105.071  0.00  0.00    -0.296 OA
ATOM     64  C4  SGN d 505      29.635  23.244 106.375  0.00  0.00     0.095 C 
ATOM     65  C5  SGN d 505      28.788  24.465 106.530  0.00  0.00     0.091 C 
ATOM     66  O3  SGN d 505      29.453  20.812 106.591  0.00  0.00    -0.391 OA
ATOM     67  H   SGN d 505      28.867  26.568 106.257  0.00  0.00     0.080 H 
ATOM     68  H   SGN d 505      30.299  25.919 106.949  0.00  0.00     0.080 H 
ATOM     69  H   SGN d 505      27.337  20.469 103.482  0.00  0.00     0.231 HD
ATOM     70  H   SGN d 505      26.041  23.386 105.155  0.00  0.00     0.131 H 
ATOM     71  H   SGN d 505      25.869  22.249 103.736  0.00  0.00     0.231 HD
ATOM     72  H   SGN d 505      27.096  20.134 106.308  0.00  0.00     0.140 HD
ATOM     73  H   SGN d 505      28.454  22.096 107.805  0.00  0.00     0.089 H 
ATOM     74  H   SGN d 505      27.984  21.920 104.843  0.00  0.00     0.076 H 
ATOM     75  H   SGN d 505      25.144  18.784 105.465  0.00  0.00     0.231 HD
ATOM     76  H   SGN d 505      29.987  23.042 105.385  0.00  0.00     0.091 H 
ATOM     77  H   SGN d 505      28.471  24.466 107.552  0.00  0.00     0.090 H 
ATOM     78  H   SGN d 505      29.726  20.735 105.663  0.00  0.00     0.210 HD
ATOM     79  C6  SGN d 503      21.765  23.399 112.137  0.00  0.00     0.067 C 
ATOM     80  O6  SGN d 503      22.887  23.166 112.960  0.00  0.00    -0.254 OA
ATOM     81  C4  SGN d 503      22.880  25.533 111.273  0.00  0.00     0.095 C 
ATOM     82  O5  SGN d 503      21.444  25.399 113.214  0.00  0.00    -0.349 OA
ATOM     83  O4  SGN d 503      22.980  25.068 109.966  0.00  0.00    -0.348 OA
ATOM     84  S1  SGN d 503      22.553  29.764 114.028  0.00  0.00     0.156 S 
ATOM     85  O4S SGN d 503      22.388  20.849 113.411  0.00  0.00    -0.572 OA
ATOM     86  O2S SGN d 503      23.931  29.422 114.378  0.00  0.00    -0.296 OA
ATOM     87  C3  SGN d 503      22.719  27.051 111.236  0.00  0.00     0.083 C 
ATOM     88  S2  SGN d 503      23.047  21.987 113.956  0.00  0.00     0.251 S 
ATOM     89  O5S SGN d 503      24.479  21.759 114.123  0.00  0.00    -0.572 OA
ATOM     90  C1  SGN d 503      21.188  26.781 113.226  0.00  0.00     0.150 C 
ATOM     91  O1S SGN d 503      21.609  29.328 115.039  0.00  0.00    -0.296 OA
ATOM     92  O6S SGN d 503      22.372  22.431 115.113  0.00  0.00    -0.572 OA
ATOM     93  C2  SGN d 503      22.392  27.531 112.638  0.00  0.00     0.081 C 
ATOM     94  N   SGN d 503      22.161  28.965 112.666  0.00  0.00    -0.210 NA
ATOM     95  O3  SGN d 503      23.945  27.614 110.808  0.00  0.00    -0.391 OA
ATOM     96  C5  SGN d 503      21.652  24.886 111.935  0.00  0.00     0.091 C 
ATOM     97  O3S SGN d 503      22.370  31.151 113.662  0.00  0.00    -0.296 OA
ATOM     98  H   SGN d 503      21.896  22.911 111.194  0.00  0.00     0.080 H 
ATOM     99  H   SGN d 503      20.877  23.013 112.593  0.00  0.00     0.080 H 
ATOM    100  H   SGN d 503      23.756  25.283 111.834  0.00  0.00     0.091 H 
ATOM    101  H   SGN d 503      23.980  28.481 114.611  0.00  0.00     0.231 HD
ATOM    102  H   SGN d 503      21.936  27.341 110.567  0.00  0.00     0.089 H 
ATOM    103  H   SGN d 503      21.041  27.093 114.239  0.00  0.00     0.131 H 
ATOM    104  H   SGN d 503      21.771  28.395 115.251  0.00  0.00     0.231 HD
ATOM    105  H   SGN d 503      23.243  27.318 113.248  0.00  0.00     0.076 H 
ATOM    106  H   SGN d 503      22.701  29.375 111.904  0.00  0.00     0.140 HD
ATOM    107  H   SGN d 503      24.653  27.349 111.417  0.00  0.00     0.210 HD
ATOM    108  H   SGN d 503      20.857  25.104 111.253  0.00  0.00     0.090 H 
ATOM    109  H   SGN d 503      21.438  31.307 113.444  0.00  0.00     0.231 HD
ATOM    110  O61 IDS d 504      27.632  25.944 109.024  0.00  0.00    -0.646 OA
ATOM    111  O62 IDS d 504      26.725  27.349 107.744  0.00  0.00    -0.646 OA
ATOM    112  O3S IDS d 504      22.552  20.769 109.673  0.00  0.00    -0.572 OA
ATOM    113  S   IDS d 504      23.690  20.576 108.854  0.00  0.00     0.252 S 
ATOM    114  C6  IDS d 504      26.648  26.300 108.388  0.00  0.00     0.206 C 
ATOM    115  O3  IDS d 504      22.857  24.903 106.995  0.00  0.00    -0.390 OA
ATOM    116  C1  IDS d 504      23.978  24.107 109.778  0.00  0.00     0.161 C 
ATOM    117  O2  IDS d 504      24.290  21.988 108.729  0.00  0.00    -0.244 OA
ATOM    118  C5  IDS d 504      25.364  25.454 108.377  0.00  0.00     0.152 C 
ATOM    119  C4  IDS d 504      25.193  24.551 107.157  0.00  0.00     0.103 C 
ATOM    120  O5  IDS d 504      25.267  24.691 109.559  0.00  0.00    -0.340 OA
ATOM    121  O4  IDS d 504      26.201  23.551 107.143  0.00  0.00    -0.348 OA
ATOM    122  C2  IDS d 504      23.569  23.215 108.624  0.00  0.00     0.134 C 
ATOM    123  O1S IDS d 504      23.336  20.174 107.542  0.00  0.00    -0.572 OA
ATOM    124  O2S IDS d 504      24.698  19.724 109.413  0.00  0.00    -0.572 OA
ATOM    125  C3  IDS d 504      23.827  23.888 107.221  0.00  0.00     0.094 C 
ATOM    126  H   IDS d 504      23.018  25.316 106.131  0.00  0.00     0.210 HD
ATOM    127  H   IDS d 504      24.074  23.528 110.673  0.00  0.00     0.133 H 
ATOM    128  H   IDS d 504      24.566  26.163 108.320  0.00  0.00     0.104 H 
ATOM    129  H   IDS d 504      25.276  25.139 106.266  0.00  0.00     0.092 H 
ATOM    130  H   IDS d 504      22.515  23.039 108.685  0.00  0.00     0.097 H 
ATOM    131  H   IDS d 504      23.769  23.113 106.485  0.00  0.00     0.091 H 
ENDROOT
TORSDOF 40
ENDMDL
MODEL 35
REMARK VINA RESULT:     -10.1      3.647      8.444
REMARK  0 active torsions:
REMARK  status: ('A' for Active; 'I' for Inactive)
REMARK       I    between atoms: C6_1  and  C5_82 
REMARK       I    between atoms: O2_4  and  C2_65 
REMARK       I    between atoms: O2_4  and  S_6 
REMARK       I    between atoms: S2_5  and  O6_13 
REMARK       I    between atoms: C6_7  and  C5_66 
REMARK       I    between atoms: C6_7  and  O6_11 
REMARK       I    between atoms: S_8  and  O2_37 
REMARK       I    between atoms: O6_11  and  S2_34 
REMARK       I    between atoms: O6_13  and  C6_16 
REMARK       I    between atoms: C6_16  and  C5_76 
REMARK       I    between atoms: O2S_17  and  S1_21 
REMARK       I    between atoms: O4_18  and  C4_33 
REMARK       I    between atoms: C4_19  and  O4_25 
REMARK       I    between atoms: O3_20  and  C3_57 
REMARK       I    between atoms: S1_21  and  N_56 
REMARK       I    between atoms: S1_21  and  O1S_55 
REMARK       I    between atoms: S1_21  and  O3S_68 
REMARK       I    between atoms: O3_24  and  C3_80 
REMARK       I    between atoms: O4_25  and  C1_53 
REMARK       I    between atoms: S1_26  and  N_59 
REMARK       I    between atoms: S1_26  and  O1S_42 
REMARK       I    between atoms: S1_26  and  O2S_29 
REMARK       I    between atoms: S1_26  and  O3S_87 
REMARK       I    between atoms: S_30  and  O2_54 
REMARK       I    between atoms: C3_31  and  O3_61 
REMARK       I    between atoms: O4_36  and  C4_70 
REMARK       I    between atoms: O4_36  and  C1_52 
REMARK       I    between atoms: O2_37  and  C2_45 
REMARK       I    between atoms: C4_38  and  O4_71 
REMARK       I    between atoms: C1_39  and  O1_51 
REMARK       I    between atoms: C1_40  and  O4_71 
REMARK       I    between atoms: C6_46  and  C5_84 
REMARK       I    between atoms: C6_47  and  C5_64 
REMARK       I    between atoms: C1_48  and  O4_77 
REMARK       I    between atoms: O3_50  and  C3_86 
REMARK       I    between atoms: O2_54  and  C2_79 
REMARK       I    between atoms: N_56  and  C2_67 
REMARK       I    between atoms: C2_58  and  N_59 
REMARK       I    between atoms: C3_62  and  O3_81 
REMARK       I    between atoms: C4_69  and  O4_77 
ROOT
ATOM      1  C6  IDS d 506      15.492  27.523 112.012  0.00  0.00     0.206 C 
ATOM      2  O62 IDS d 506      14.905  28.269 112.777  0.00  0.00    -0.646 OA
ATOM      3  S   IDS d 506      18.118  22.095 113.742  0.00  0.00     0.252 S 
ATOM      4  O1S IDS d 506      18.093  22.599 115.080  0.00  0.00    -0.572 OA
ATOM      5  O3S IDS d 506      19.407  21.563 113.357  0.00  0.00    -0.572 OA
ATOM      6  O4  IDS d 506      15.683  25.233 113.940  0.00  0.00    -0.390 OA
ATOM      7  O3  IDS d 506      19.054  26.310 114.492  0.00  0.00    -0.390 OA
ATOM      8  C4  IDS d 506      16.742  26.154 113.826  0.00  0.00     0.097 C 
ATOM      9  O2  IDS d 506      17.890  23.367 112.818  0.00  0.00    -0.244 OA
ATOM     10  C2  IDS d 506      18.575  24.604 112.845  0.00  0.00     0.134 C 
ATOM     11  C1  IDS d 506      18.362  25.355 111.522  0.00  0.00     0.161 C 
ATOM     12  O2S IDS d 506      17.036  21.179 113.515  0.00  0.00    -0.572 OA
ATOM     13  O5  IDS d 506      17.028  25.796 111.474  0.00  0.00    -0.340 OA
ATOM     14  O61 IDS d 506      15.052  27.404 110.877  0.00  0.00    -0.646 OA
ATOM     15  C3  IDS d 506      18.053  25.381 114.085  0.00  0.00     0.094 C 
ATOM     16  C5  IDS d 506      16.743  26.770 112.423  0.00  0.00     0.152 C 
ATOM     17  H   IDS d 506      15.686  24.845 114.830  0.00  0.00     0.210 HD
ATOM     18  H   IDS d 506      18.742  26.803 115.267  0.00  0.00     0.210 HD
ATOM     19  H   IDS d 506      16.638  26.952 114.532  0.00  0.00     0.091 H 
ATOM     20  H   IDS d 506      19.634  24.478 112.935  0.00  0.00     0.097 H 
ATOM     21  H   IDS d 506      19.039  26.180 111.454  0.00  0.00     0.133 H 
ATOM     22  H   IDS d 506      17.841  24.654 114.842  0.00  0.00     0.091 H 
ATOM     23  H   IDS d 506      17.508  27.518 112.471  0.00  0.00     0.104 H 
ATOM     24  O62 IDS d 502      31.227  30.611 109.350  0.00  0.00    -0.646 OA
ATOM     25  O2  IDS d 502      30.970  26.639 105.341  0.00  0.00    -0.244 OA
ATOM     26  S   IDS d 502      30.704  25.101 105.239  0.00  0.00     0.252 S 
ATOM     27  O3  IDS d 502      34.000  27.587 107.007  0.00  0.00    -0.390 OA
ATOM     28  O2S IDS d 502      29.394  24.888 105.811  0.00  0.00    -0.572 OA
ATOM     29  C4  IDS d 502      31.784  27.976 107.861  0.00  0.00     0.103 C 
ATOM     30  C1  IDS d 502      32.011  28.753 105.080  0.00  0.00     0.158 C 
ATOM     31  O61 IDS d 502      29.833  30.826 107.830  0.00  0.00    -0.646 OA
ATOM     32  C6  IDS d 502      30.865  30.338 108.222  0.00  0.00     0.206 C 
ATOM     33  O1  IDS d 502      33.279  29.340 104.953  0.00  0.00    -0.368 OA
ATOM     34  C3  IDS d 502      32.663  27.135 106.916  0.00  0.00     0.094 C 
ATOM     35  O3S IDS d 502      30.776  24.808 103.830  0.00  0.00    -0.572 OA
ATOM     36  O5  IDS d 502      31.197  29.420 106.012  0.00  0.00    -0.340 OA
ATOM     37  C2  IDS d 502      32.207  27.289 105.462  0.00  0.00     0.134 C 
ATOM     38  O4  IDS d 502      30.499  27.415 107.934  0.00  0.00    -0.348 OA
ATOM     39  O1S IDS d 502      31.739  24.438 105.982  0.00  0.00    -0.572 OA
ATOM     40  C5  IDS d 502      31.684  29.408 107.339  0.00  0.00     0.152 C 
ATOM     41  H   IDS d 502      34.310  27.499 107.921  0.00  0.00     0.210 HD
ATOM     42  H   IDS d 502      32.227  27.985 108.835  0.00  0.00     0.092 H 
ATOM     43  H   IDS d 502      31.495  28.829 104.145  0.00  0.00     0.133 H 
ATOM     44  H   IDS d 502      33.751  29.274 105.798  0.00  0.00     0.212 HD
ATOM     45  H   IDS d 502      32.580  26.107 107.204  0.00  0.00     0.091 H 
ATOM     46  H   IDS d 502      32.955  26.875 104.819  0.00  0.00     0.097 H 
ATOM     47  H   IDS d 502      32.682  29.795 107.359  0.00  0.00     0.104 H 
ATOM     48  S2  SGN d 505      18.521  20.869 107.939  0.00  0.00     0.251 S 
ATOM     49  O6  SGN d 505      18.916  22.312 108.219  0.00  0.00    -0.254 OA
ATOM     50  O5S SGN d 505      18.604  20.744 106.505  0.00  0.00    -0.572 OA
ATOM     51  C6  SGN d 505      20.039  22.758 108.900  0.00  0.00     0.067 C 
ATOM     52  O2S SGN d 505      17.600  28.277 105.340  0.00  0.00    -0.296 OA
ATOM     53  S1  SGN d 505      19.040  28.375 105.398  0.00  0.00     0.156 S 
ATOM     54  O6S SGN d 505      19.486  20.024 108.628  0.00  0.00    -0.572 OA
ATOM     55  O4  SGN d 505      18.564  24.476 110.469  0.00  0.00    -0.348 OA
ATOM     56  O5  SGN d 505      20.272  24.454 107.346  0.00  0.00    -0.349 OA
ATOM     57  O4S SGN d 505      17.185  20.743 108.475  0.00  0.00    -0.572 OA
ATOM     58  C1  SGN d 505      20.472  25.798 107.013  0.00  0.00     0.150 C 
ATOM     59  O1S SGN d 505      19.695  27.400 104.551  0.00  0.00    -0.296 OA
ATOM     60  N   SGN d 505      19.433  28.011 106.987  0.00  0.00    -0.210 NA
ATOM     61  C3  SGN d 505      18.970  26.422 108.932  0.00  0.00     0.083 C 
ATOM     62  C2  SGN d 505      19.260  26.608 107.430  0.00  0.00     0.081 C 
ATOM     63  O3S SGN d 505      19.478  29.703 105.157  0.00  0.00    -0.296 OA
ATOM     64  C4  SGN d 505      18.777  24.891 109.136  0.00  0.00     0.095 C 
ATOM     65  C5  SGN d 505      20.051  24.239 108.706  0.00  0.00     0.091 C 
ATOM     66  O3  SGN d 505      17.774  27.122 109.250  0.00  0.00    -0.391 OA
ATOM     67  H   SGN d 505      20.925  22.318 108.491  0.00  0.00     0.080 H 
ATOM     68  H   SGN d 505      20.011  22.490 109.936  0.00  0.00     0.080 H 
ATOM     69  H   SGN d 505      17.332  27.359 105.508  0.00  0.00     0.231 HD
ATOM     70  H   SGN d 505      20.592  25.891 105.953  0.00  0.00     0.131 H 
ATOM     71  H   SGN d 505      19.359  26.514 104.758  0.00  0.00     0.231 HD
ATOM     72  H   SGN d 505      18.850  28.595 107.587  0.00  0.00     0.140 HD
ATOM     73  H   SGN d 505      19.754  26.796 109.557  0.00  0.00     0.089 H 
ATOM     74  H   SGN d 505      18.376  26.253 106.944  0.00  0.00     0.076 H 
ATOM     75  H   SGN d 505      19.009  30.311 105.750  0.00  0.00     0.231 HD
ATOM     76  H   SGN d 505      17.904  24.622 108.580  0.00  0.00     0.091 H 
ATOM     77  H   SGN d 505      20.816  24.676 109.314  0.00  0.00     0.090 H 
ATOM     78  H   SGN d 505      17.051  26.796 108.692  0.00  0.00     0.210 HD
ATOM     79  C6  SGN d 503      27.233  29.746 108.797  0.00  0.00     0.067 C 
ATOM     80  O6  SGN d 503      26.808  29.729 110.143  0.00  0.00    -0.254 OA
ATOM     81  C4  SGN d 503      27.110  27.191 108.758  0.00  0.00     0.095 C 
ATOM     82  O5  SGN d 503      29.051  28.483 109.398  0.00  0.00    -0.349 OA
ATOM     83  O4  SGN d 503      26.099  27.157 107.803  0.00  0.00    -0.348 OA
ATOM     84  S1  SGN d 503      30.980  24.517 110.621  0.00  0.00     0.156 S 
ATOM     85  O4S SGN d 503      26.202  32.062 110.242  0.00  0.00    -0.572 OA
ATOM     86  O2S SGN d 503      30.073  24.346 111.756  0.00  0.00    -0.296 OA
ATOM     87  C3  SGN d 503      27.973  25.942 108.593  0.00  0.00     0.083 C 
ATOM     88  S2  SGN d 503      26.637  30.974 111.052  0.00  0.00     0.251 S 
ATOM     89  O5S SGN d 503      25.655  30.627 112.073  0.00  0.00    -0.572 OA
ATOM     90  C1  SGN d 503      29.935  27.405 109.217  0.00  0.00     0.150 C 
ATOM     91  O1S SGN d 503      31.934  25.586 110.843  0.00  0.00    -0.296 OA
ATOM     92  O6S SGN d 503      27.941  31.220 111.533  0.00  0.00    -0.572 OA
ATOM     93  C2  SGN d 503      29.195  26.085 109.481  0.00  0.00     0.081 C 
ATOM     94  N   SGN d 503      30.097  24.957 109.327  0.00  0.00    -0.210 NA
ATOM     95  O3  SGN d 503      27.209  24.822 109.002  0.00  0.00    -0.391 OA
ATOM     96  C5  SGN d 503      27.958  28.454 108.534  0.00  0.00     0.091 C 
ATOM     97  O3S SGN d 503      31.613  23.291 110.189  0.00  0.00    -0.296 OA
ATOM     98  H   SGN d 503      26.385  29.828 108.148  0.00  0.00     0.080 H 
ATOM     99  H   SGN d 503      27.875  30.582 108.616  0.00  0.00     0.080 H 
ATOM    100  H   SGN d 503      26.700  27.212 109.746  0.00  0.00     0.091 H 
ATOM    101  H   SGN d 503      29.686  25.204 111.991  0.00  0.00     0.231 HD
ATOM    102  H   SGN d 503      28.283  25.816 107.577  0.00  0.00     0.089 H 
ATOM    103  H   SGN d 503      30.740  27.502 109.915  0.00  0.00     0.131 H 
ATOM    104  H   SGN d 503      31.464  26.384 111.131  0.00  0.00     0.231 HD
ATOM    105  H   SGN d 503      28.847  26.099 110.492  0.00  0.00     0.076 H 
ATOM    106  H   SGN d 503      29.534  24.153 109.053  0.00  0.00     0.140 HD
ATOM    107  H   SGN d 503      26.931  24.940 109.923  0.00  0.00     0.210 HD
ATOM    108  H   SGN d 503      28.232  28.391 107.501  0.00  0.00     0.090 H 
ATOM    109  H   SGN d 503      32.198  23.477 109.437  0.00  0.00     0.231 HD
ATOM    110  O61 IDS d 504      22.928  24.196 109.917  0.00  0.00    -0.646 OA
ATOM    111  O62 IDS d 504      23.560  22.980 108.318  0.00  0.00    -0.646 OA
ATOM    112  O3S IDS d 504      24.030  30.941 107.408  0.00  0.00    -0.572 OA
ATOM    113  S   IDS d 504      22.729  30.390 107.472  0.00  0.00     0.252 S 
ATOM    114  C6  IDS d 504      23.424  24.106 108.801  0.00  0.00     0.206 C 
ATOM    115  O3  IDS d 504      24.490  26.458 105.396  0.00  0.00    -0.390 OA
ATOM    116  C1  IDS d 504      24.839  27.513 108.295  0.00  0.00     0.161 C 
ATOM    117  O2  IDS d 504      22.981  28.890 107.712  0.00  0.00    -0.244 OA
ATOM    118  C5  IDS d 504      23.843  25.362 108.019  0.00  0.00     0.152 C 
ATOM    119  C4  IDS d 504      22.836  25.842 106.975  0.00  0.00     0.103 C 
ATOM    120  O5  IDS d 504      24.158  26.412 108.905  0.00  0.00    -0.340 OA
ATOM    121  O4  IDS d 504      21.645  26.280 107.611  0.00  0.00    -0.348 OA
ATOM    122  C2  IDS d 504      24.033  28.103 107.156  0.00  0.00     0.134 C 
ATOM    123  O1S IDS d 504      22.050  30.488 106.232  0.00  0.00    -0.572 OA
ATOM    124  O2S IDS d 504      21.922  30.872 108.555  0.00  0.00    -0.572 OA
ATOM    125  C3  IDS d 504      23.446  26.997 106.197  0.00  0.00     0.094 C 
ATOM    126  H   IDS d 504      24.127  25.777 104.807  0.00  0.00     0.210 HD
ATOM    127  H   IDS d 504      24.963  28.240 109.071  0.00  0.00     0.133 H 
ATOM    128  H   IDS d 504      24.709  25.065 107.464  0.00  0.00     0.104 H 
ATOM    129  H   IDS d 504      22.600  25.035 106.313  0.00  0.00     0.092 H 
ATOM    130  H   IDS d 504      24.680  28.709 106.557  0.00  0.00     0.097 H 
ATOM    131  H   IDS d 504      22.691  27.466 105.600  0.00  0.00     0.091 H 
ENDROOT
TORSDOF 40
ENDMDL
MODEL 36
REMARK VINA RESULT:     -10.0      6.116     11.048
REMARK  0 active torsions:
REMARK  status: ('A' for Active; 'I' for Inactive)
REMARK       I    between atoms: C6_1  and  C5_82 
REMARK       I    between atoms: O2_4  and  C2_65 
REMARK       I    between atoms: O2_4  and  S_6 
REMARK       I    between atoms: S2_5  and  O6_13 
REMARK       I    between atoms: C6_7  and  C5_66 
REMARK       I    between atoms: C6_7  and  O6_11 
REMARK       I    between atoms: S_8  and  O2_37 
REMARK       I    between atoms: O6_11  and  S2_34 
REMARK       I    between atoms: O6_13  and  C6_16 
REMARK       I    between atoms: C6_16  and  C5_76 
REMARK       I    between atoms: O2S_17  and  S1_21 
REMARK       I    between atoms: O4_18  and  C4_33 
REMARK       I    between atoms: C4_19  and  O4_25 
REMARK       I    between atoms: O3_20  and  C3_57 
REMARK       I    between atoms: S1_21  and  N_56 
REMARK       I    between atoms: S1_21  and  O1S_55 
REMARK       I    between atoms: S1_21  and  O3S_68 
REMARK       I    between atoms: O3_24  and  C3_80 
REMARK       I    between atoms: O4_25  and  C1_53 
REMARK       I    between atoms: S1_26  and  N_59 
REMARK       I    between atoms: S1_26  and  O1S_42 
REMARK       I    between atoms: S1_26  and  O2S_29 
REMARK       I    between atoms: S1_26  and  O3S_87 
REMARK       I    between atoms: S_30  and  O2_54 
REMARK       I    between atoms: C3_31  and  O3_61 
REMARK       I    between atoms: O4_36  and  C4_70 
REMARK       I    between atoms: O4_36  and  C1_52 
REMARK       I    between atoms: O2_37  and  C2_45 
REMARK       I    between atoms: C4_38  and  O4_71 
REMARK       I    between atoms: C1_39  and  O1_51 
REMARK       I    between atoms: C1_40  and  O4_71 
REMARK       I    between atoms: C6_46  and  C5_84 
REMARK       I    between atoms: C6_47  and  C5_64 
REMARK       I    between atoms: C1_48  and  O4_77 
REMARK       I    between atoms: O3_50  and  C3_86 
REMARK       I    between atoms: O2_54  and  C2_79 
REMARK       I    between atoms: N_56  and  C2_67 
REMARK       I    between atoms: C2_58  and  N_59 
REMARK       I    between atoms: C3_62  and  O3_81 
REMARK       I    between atoms: C4_69  and  O4_77 
ROOT
ATOM      1  C6  IDS d 506      26.472  21.014 114.009  0.00  0.00     0.206 C 
ATOM      2  O62 IDS d 506      27.247  21.151 114.939  0.00  0.00    -0.646 OA
ATOM      3  S   IDS d 506      28.204  21.025 107.979  0.00  0.00     0.252 S 
ATOM      4  O1S IDS d 506      29.402  21.681 108.405  0.00  0.00    -0.572 OA
ATOM      5  O3S IDS d 506      27.559  21.684 106.865  0.00  0.00    -0.572 OA
ATOM      6  O4  IDS d 506      28.596  20.660 111.919  0.00  0.00    -0.390 OA
ATOM      7  O3  IDS d 506      28.005  24.096 111.098  0.00  0.00    -0.390 OA
ATOM      8  C4  IDS d 506      28.049  21.934 112.165  0.00  0.00     0.097 C 
ATOM      9  O2  IDS d 506      27.198  21.170 109.200  0.00  0.00    -0.244 OA
ATOM     10  C2  IDS d 506      26.841  22.342 109.907  0.00  0.00     0.134 C 
ATOM     11  C1  IDS d 506      25.533  22.115 110.679  0.00  0.00     0.161 C 
ATOM     12  O2S IDS d 506      28.435  19.626 107.754  0.00  0.00    -0.572 OA
ATOM     13  O5  IDS d 506      25.795  21.237 111.744  0.00  0.00    -0.340 OA
ATOM     14  O61 IDS d 506      25.539  20.235 114.149  0.00  0.00    -0.646 OA
ATOM     15  C3  IDS d 506      28.043  22.698 110.824  0.00  0.00     0.094 C 
ATOM     16  C5  IDS d 506      26.625  21.789 112.713  0.00  0.00     0.152 C 
ATOM     17  H   IDS d 506      29.498  20.757 111.573  0.00  0.00     0.210 HD
ATOM     18  H   IDS d 506      28.750  24.334 111.671  0.00  0.00     0.210 HD
ATOM     19  H   IDS d 506      28.625  22.469 112.893  0.00  0.00     0.091 H 
ATOM     20  H   IDS d 506      26.648  23.166 109.252  0.00  0.00     0.097 H 
ATOM     21  H   IDS d 506      25.151  23.047 111.039  0.00  0.00     0.133 H 
ATOM     22  H   IDS d 506      28.931  22.412 110.300  0.00  0.00     0.091 H 
ATOM     23  H   IDS d 506      26.340  22.791 112.959  0.00  0.00     0.104 H 
ATOM     24  O62 IDS d 502      19.047  34.420 108.589  0.00  0.00    -0.646 OA
ATOM     25  O2  IDS d 502      15.932  30.974 105.373  0.00  0.00    -0.244 OA
ATOM     26  S   IDS d 502      16.146  29.969 104.194  0.00  0.00     0.252 S 
ATOM     27  O3  IDS d 502      16.511  34.427 104.602  0.00  0.00    -0.390 OA
ATOM     28  O2S IDS d 502      17.089  28.988 104.678  0.00  0.00    -0.572 OA
ATOM     29  C4  IDS d 502      17.884  33.098 106.064  0.00  0.00     0.103 C 
ATOM     30  C1  IDS d 502      15.067  32.773 106.653  0.00  0.00     0.158 C 
ATOM     31  O61 IDS d 502      17.967  32.910 109.513  0.00  0.00    -0.646 OA
ATOM     32  C6  IDS d 502      18.123  33.631 108.557  0.00  0.00     0.206 C 
ATOM     33  O1  IDS d 502      14.499  34.047 106.505  0.00  0.00    -0.368 OA
ATOM     34  C3  IDS d 502      16.871  33.093 104.904  0.00  0.00     0.094 C 
ATOM     35  O3S IDS d 502      14.836  29.433 103.926  0.00  0.00    -0.572 OA
ATOM     36  O5  IDS d 502      16.077  32.741 107.630  0.00  0.00    -0.340 OA
ATOM     37  C2  IDS d 502      15.598  32.334 105.292  0.00  0.00     0.134 C 
ATOM     38  O4  IDS d 502      18.401  31.805 106.244  0.00  0.00    -0.348 OA
ATOM     39  O1S IDS d 502      16.660  30.719 103.082  0.00  0.00    -0.572 OA
ATOM     40  C5  IDS d 502      17.198  33.554 107.350  0.00  0.00     0.152 C 
ATOM     41  H   IDS d 502      17.303  34.928 104.354  0.00  0.00     0.210 HD
ATOM     42  H   IDS d 502      18.681  33.773 105.831  0.00  0.00     0.092 H 
ATOM     43  H   IDS d 502      14.315  32.093 106.997  0.00  0.00     0.133 H 
ATOM     44  H   IDS d 502      15.177  34.668 106.193  0.00  0.00     0.212 HD
ATOM     45  H   IDS d 502      17.324  32.613 104.062  0.00  0.00     0.091 H 
ATOM     46  H   IDS d 502      14.842  32.530 104.561  0.00  0.00     0.097 H 
ATOM     47  H   IDS d 502      16.878  34.559 107.168  0.00  0.00     0.104 H 
ATOM     48  S2  SGN d 505      22.782  18.890 106.803  0.00  0.00     0.251 S 
ATOM     49  O6  SGN d 505      22.715  20.009 107.832  0.00  0.00    -0.254 OA
ATOM     50  O5S SGN d 505      21.420  18.435 106.674  0.00  0.00    -0.572 OA
ATOM     51  C6  SGN d 505      22.976  21.355 107.626  0.00  0.00     0.067 C 
ATOM     52  O2S SGN d 505      19.443  20.955 113.663  0.00  0.00    -0.296 OA
ATOM     53  S1  SGN d 505      19.078  22.187 113.005  0.00  0.00     0.156 S 
ATOM     54  O6S SGN d 505      23.294  19.476 105.572  0.00  0.00    -0.572 OA
ATOM     55  O4  SGN d 505      24.614  21.509 109.837  0.00  0.00    -0.348 OA
ATOM     56  O5  SGN d 505      21.178  21.880 108.982  0.00  0.00    -0.349 OA
ATOM     57  O4S SGN d 505      23.686  17.918 107.376  0.00  0.00    -0.572 OA
ATOM     58  C1  SGN d 505      20.599  22.597 110.036  0.00  0.00     0.150 C 
ATOM     59  O1S SGN d 505      18.241  21.967 111.844  0.00  0.00    -0.296 OA
ATOM     60  N   SGN d 505      20.528  22.835 112.468  0.00  0.00    -0.210 NA
ATOM     61  C3  SGN d 505      22.744  22.302 111.317  0.00  0.00     0.083 C 
ATOM     62  C2  SGN d 505      21.211  22.147 111.348  0.00  0.00     0.081 C 
ATOM     63  O3S SGN d 505      18.523  23.118 113.921  0.00  0.00    -0.296 OA
ATOM     64  C4  SGN d 505      23.227  21.459 110.101  0.00  0.00     0.095 C 
ATOM     65  C5  SGN d 505      22.561  22.032 108.892  0.00  0.00     0.091 C 
ATOM     66  O3  SGN d 505      23.275  21.780 112.528  0.00  0.00    -0.391 OA
ATOM     67  H   SGN d 505      22.407  21.725 106.799  0.00  0.00     0.080 H 
ATOM     68  H   SGN d 505      24.006  21.533 107.397  0.00  0.00     0.080 H 
ATOM     69  H   SGN d 505      19.818  20.340 113.013  0.00  0.00     0.231 HD
ATOM     70  H   SGN d 505      19.548  22.400 110.069  0.00  0.00     0.131 H 
ATOM     71  H   SGN d 505      18.668  21.325 111.255  0.00  0.00     0.231 HD
ATOM     72  H   SGN d 505      21.171  22.843 113.260  0.00  0.00     0.140 HD
ATOM     73  H   SGN d 505      23.059  23.321 111.225  0.00  0.00     0.089 H 
ATOM     74  H   SGN d 505      21.054  21.101 111.506  0.00  0.00     0.076 H 
ATOM     75  H   SGN d 505      19.123  23.227 114.675  0.00  0.00     0.231 HD
ATOM     76  H   SGN d 505      22.988  20.441 110.329  0.00  0.00     0.091 H 
ATOM     77  H   SGN d 505      22.854  23.061 108.865  0.00  0.00     0.090 H 
ATOM     78  H   SGN d 505      23.000  20.855 112.630  0.00  0.00     0.210 HD
ATOM     79  C6  SGN d 503      19.780  30.583 109.912  0.00  0.00     0.067 C 
ATOM     80  O6  SGN d 503      21.177  30.662 110.097  0.00  0.00    -0.254 OA
ATOM     81  C4  SGN d 503      20.170  29.214 107.786  0.00  0.00     0.095 C 
ATOM     82  O5  SGN d 503      20.032  31.627 107.885  0.00  0.00    -0.349 OA
ATOM     83  O4  SGN d 503      19.556  28.074 108.291  0.00  0.00    -0.348 OA
ATOM     84  S1  SGN d 503      21.256  31.630 103.475  0.00  0.00     0.156 S 
ATOM     85  O4S SGN d 503      21.084  31.351 112.407  0.00  0.00    -0.572 OA
ATOM     86  O2S SGN d 503      22.612  31.175 103.779  0.00  0.00    -0.296 OA
ATOM     87  C3  SGN d 503      19.963  29.246 106.273  0.00  0.00     0.083 C 
ATOM     88  S2  SGN d 503      21.895  31.428 111.239  0.00  0.00     0.251 S 
ATOM     89  O5S SGN d 503      23.193  30.788 111.433  0.00  0.00    -0.572 OA
ATOM     90  C1  SGN d 503      19.777  31.754 106.508  0.00  0.00     0.150 C 
ATOM     91  O1S SGN d 503      21.033  33.000 103.897  0.00  0.00    -0.296 OA
ATOM     92  O6S SGN d 503      21.947  32.758 110.771  0.00  0.00    -0.572 OA
ATOM     93  C2  SGN d 503      20.438  30.591 105.754  0.00  0.00     0.081 C 
ATOM     94  N   SGN d 503      20.211  30.717 104.325  0.00  0.00    -0.210 NA
ATOM     95  O3  SGN d 503      20.737  28.209 105.701  0.00  0.00    -0.391 OA
ATOM     96  C5  SGN d 503      19.525  30.451 108.435  0.00  0.00     0.091 C 
ATOM     97  O3S SGN d 503      20.856  31.401 102.104  0.00  0.00    -0.296 OA
ATOM     98  H   SGN d 503      19.392  29.730 110.428  0.00  0.00     0.080 H 
ATOM     99  H   SGN d 503      19.300  31.457 110.301  0.00  0.00     0.080 H 
ATOM    100  H   SGN d 503      21.218  29.210 108.001  0.00  0.00     0.091 H 
ATOM    101  H   SGN d 503      22.813  31.359 104.710  0.00  0.00     0.231 HD
ATOM    102  H   SGN d 503      18.933  29.110 106.021  0.00  0.00     0.089 H 
ATOM    103  H   SGN d 503      20.197  32.677 106.167  0.00  0.00     0.131 H 
ATOM    104  H   SGN d 503      21.316  33.103 104.819  0.00  0.00     0.231 HD
ATOM    105  H   SGN d 503      21.492  30.640 105.931  0.00  0.00     0.076 H 
ATOM    106  H   SGN d 503      20.234  29.778 103.929  0.00  0.00     0.140 HD
ATOM    107  H   SGN d 503      21.670  28.336 105.932  0.00  0.00     0.210 HD
ATOM    108  H   SGN d 503      18.480  30.311 108.254  0.00  0.00     0.090 H 
ATOM    109  H   SGN d 503      19.951  31.725 101.973  0.00  0.00     0.231 HD
ATOM    110  O61 IDS d 504      22.905  24.727 107.357  0.00  0.00    -0.646 OA
ATOM    111  O62 IDS d 504      21.399  24.128 106.012  0.00  0.00    -0.646 OA
ATOM    112  O3S IDS d 504      19.183  28.133 112.605  0.00  0.00    -0.572 OA
ATOM    113  S   IDS d 504      19.695  26.829 112.802  0.00  0.00     0.252 S 
ATOM    114  C6  IDS d 504      21.722  24.727 107.040  0.00  0.00     0.206 C 
ATOM    115  O3  IDS d 504      17.836  25.656 108.555  0.00  0.00    -0.390 OA
ATOM    116  C1  IDS d 504      20.321  27.387 109.238  0.00  0.00     0.161 C 
ATOM    117  O2  IDS d 504      20.081  26.373 111.384  0.00  0.00    -0.244 OA
ATOM    118  C5  IDS d 504      20.670  25.434 107.911  0.00  0.00     0.152 C 
ATOM    119  C4  IDS d 504      19.892  24.520 108.856  0.00  0.00     0.103 C 
ATOM    120  O5  IDS d 504      21.260  26.489 108.637  0.00  0.00    -0.340 OA
ATOM    121  O4  IDS d 504      20.762  23.975 109.837  0.00  0.00    -0.348 OA
ATOM    122  C2  IDS d 504      19.379  26.659 110.176  0.00  0.00     0.134 C 
ATOM    123  O1S IDS d 504      18.696  25.931 113.253  0.00  0.00    -0.572 OA
ATOM    124  O2S IDS d 504      20.873  26.760 113.616  0.00  0.00    -0.572 OA
ATOM    125  C3  IDS d 504      18.805  25.333 109.544  0.00  0.00     0.094 C 
ATOM    126  H   IDS d 504      17.485  24.839 108.167  0.00  0.00     0.210 HD
ATOM    127  H   IDS d 504      20.910  28.093 109.786  0.00  0.00     0.133 H 
ATOM    128  H   IDS d 504      19.947  25.811 107.219  0.00  0.00     0.104 H 
ATOM    129  H   IDS d 504      19.455  23.720 108.296  0.00  0.00     0.092 H 
ATOM    130  H   IDS d 504      18.536  27.289 110.369  0.00  0.00     0.097 H 
ATOM    131  H   IDS d 504      18.381  24.761 110.343  0.00  0.00     0.091 H 
ENDROOT
TORSDOF 40
ENDMDL
MODEL 37
REMARK VINA RESULT:     -10.0      5.872     10.150
REMARK  0 active torsions:
REMARK  status: ('A' for Active; 'I' for Inactive)
REMARK       I    between atoms: C6_1  and  C5_82 
REMARK       I    between atoms: O2_4  and  C2_65 
REMARK       I    between atoms: O2_4  and  S_6 
REMARK       I    between atoms: S2_5  and  O6_13 
REMARK       I    between atoms: C6_7  and  C5_66 
REMARK       I    between atoms: C6_7  and  O6_11 
REMARK       I    between atoms: S_8  and  O2_37 
REMARK       I    between atoms: O6_11  and  S2_34 
REMARK       I    between atoms: O6_13  and  C6_16 
REMARK       I    between atoms: C6_16  and  C5_76 
REMARK       I    between atoms: O2S_17  and  S1_21 
REMARK       I    between atoms: O4_18  and  C4_33 
REMARK       I    between atoms: C4_19  and  O4_25 
REMARK       I    between atoms: O3_20  and  C3_57 
REMARK       I    between atoms: S1_21  and  N_56 
REMARK       I    between atoms: S1_21  and  O1S_55 
REMARK       I    between atoms: S1_21  and  O3S_68 
REMARK       I    between atoms: O3_24  and  C3_80 
REMARK       I    between atoms: O4_25  and  C1_53 
REMARK       I    between atoms: S1_26  and  N_59 
REMARK       I    between atoms: S1_26  and  O1S_42 
REMARK       I    between atoms: S1_26  and  O2S_29 
REMARK       I    between atoms: S1_26  and  O3S_87 
REMARK       I    between atoms: S_30  and  O2_54 
REMARK       I    between atoms: C3_31  and  O3_61 
REMARK       I    between atoms: O4_36  and  C4_70 
REMARK       I    between atoms: O4_36  and  C1_52 
REMARK       I    between atoms: O2_37  and  C2_45 
REMARK       I    between atoms: C4_38  and  O4_71 
REMARK       I    between atoms: C1_39  and  O1_51 
REMARK       I    between atoms: C1_40  and  O4_71 
REMARK       I    between atoms: C6_46  and  C5_84 
REMARK       I    between atoms: C6_47  and  C5_64 
REMARK       I    between atoms: C1_48  and  O4_77 
REMARK       I    between atoms: O3_50  and  C3_86 
REMARK       I    between atoms: O2_54  and  C2_79 
REMARK       I    between atoms: N_56  and  C2_67 
REMARK       I    between atoms: C2_58  and  N_59 
REMARK       I    between atoms: C3_62  and  O3_81 
REMARK       I    between atoms: C4_69  and  O4_77 
ROOT
ATOM      1  C6  IDS d 506      14.914  22.707 112.690  0.00  0.00     0.206 C 
ATOM      2  O62 IDS d 506      14.448  22.649 113.815  0.00  0.00    -0.646 OA
ATOM      3  S   IDS d 506      15.116  17.843 108.732  0.00  0.00     0.252 S 
ATOM      4  O1S IDS d 506      14.950  17.004 109.879  0.00  0.00    -0.572 OA
ATOM      5  O3S IDS d 506      16.208  17.432 107.877  0.00  0.00    -0.572 OA
ATOM      6  O4  IDS d 506      13.883  20.026 111.818  0.00  0.00    -0.390 OA
ATOM      7  O3  IDS d 506      17.196  18.827 112.461  0.00  0.00    -0.390 OA
ATOM      8  C4  IDS d 506      15.184  20.149 112.345  0.00  0.00     0.097 C 
ATOM      9  O2  IDS d 506      15.543  19.258 109.315  0.00  0.00    -0.244 OA
ATOM     10  C2  IDS d 506      16.573  19.551 110.239  0.00  0.00     0.134 C 
ATOM     11  C1  IDS d 506      16.933  21.042 110.174  0.00  0.00     0.161 C 
ATOM     12  O2S IDS d 506      13.875  18.006 108.029  0.00  0.00    -0.572 OA
ATOM     13  O5  IDS d 506      15.871  21.777 110.727  0.00  0.00    -0.340 OA
ATOM     14  O61 IDS d 506      14.734  23.731 112.046  0.00  0.00    -0.646 OA
ATOM     15  C3  IDS d 506      16.066  19.100 111.637  0.00  0.00     0.094 C 
ATOM     16  C5  IDS d 506      15.714  21.564 112.091  0.00  0.00     0.152 C 
ATOM     17  H   IDS d 506      13.552  19.129 111.982  0.00  0.00     0.210 HD
ATOM     18  H   IDS d 506      16.895  18.543 113.339  0.00  0.00     0.210 HD
ATOM     19  H   IDS d 506      15.190  19.984 113.403  0.00  0.00     0.091 H 
ATOM     20  H   IDS d 506      17.479  19.027 110.013  0.00  0.00     0.097 H 
ATOM     21  H   IDS d 506      17.842  21.225 110.708  0.00  0.00     0.133 H 
ATOM     22  H   IDS d 506      15.457  18.234 111.483  0.00  0.00     0.091 H 
ATOM     23  H   IDS d 506      16.649  21.586 112.609  0.00  0.00     0.104 H 
ATOM     24  O62 IDS d 502      30.945  20.443 111.249  0.00  0.00    -0.646 OA
ATOM     25  O2  IDS d 502      30.320  21.949 105.840  0.00  0.00    -0.244 OA
ATOM     26  S   IDS d 502      29.590  21.424 104.559  0.00  0.00     0.252 S 
ATOM     27  O3  IDS d 502      33.021  19.918 107.037  0.00  0.00    -0.390 OA
ATOM     28  O2S IDS d 502      28.190  21.350 104.907  0.00  0.00    -0.572 OA
ATOM     29  C4  IDS d 502      30.926  20.227 108.178  0.00  0.00     0.103 C 
ATOM     30  C1  IDS d 502      32.033  22.746 107.272  0.00  0.00     0.158 C 
ATOM     31  O61 IDS d 502      30.093  22.285 110.825  0.00  0.00    -0.646 OA
ATOM     32  C6  IDS d 502      30.784  21.362 110.470  0.00  0.00     0.206 C 
ATOM     33  O1  IDS d 502      33.417  22.648 107.482  0.00  0.00    -0.368 OA
ATOM     34  C3  IDS d 502      31.669  20.279 106.830  0.00  0.00     0.094 C 
ATOM     35  O3S IDS d 502      29.885  22.400 103.542  0.00  0.00    -0.572 OA
ATOM     36  O5  IDS d 502      31.295  22.601 108.459  0.00  0.00    -0.340 OA
ATOM     37  C2  IDS d 502      31.639  21.692 106.241  0.00  0.00     0.134 C 
ATOM     38  O4  IDS d 502      29.547  20.387 107.963  0.00  0.00    -0.348 OA
ATOM     39  O1S IDS d 502      30.146  20.136 104.250  0.00  0.00    -0.572 OA
ATOM     40  C5  IDS d 502      31.430  21.343 109.091  0.00  0.00     0.152 C 
ATOM     41  H   IDS d 502      33.064  19.024 107.410  0.00  0.00     0.210 HD
ATOM     42  H   IDS d 502      31.108  19.281 108.644  0.00  0.00     0.092 H 
ATOM     43  H   IDS d 502      31.803  23.726 106.910  0.00  0.00     0.133 H 
ATOM     44  H   IDS d 502      33.632  21.761 107.810  0.00  0.00     0.212 HD
ATOM     45  H   IDS d 502      31.186  19.605 106.153  0.00  0.00     0.091 H 
ATOM     46  H   IDS d 502      32.335  21.744 105.430  0.00  0.00     0.097 H 
ATOM     47  H   IDS d 502      32.465  21.135 109.260  0.00  0.00     0.104 H 
ATOM     48  S2  SGN d 505      16.420  21.816 104.506  0.00  0.00     0.251 S 
ATOM     49  O6  SGN d 505      17.195  22.105 105.783  0.00  0.00    -0.254 OA
ATOM     50  O5S SGN d 505      16.785  22.885 103.610  0.00  0.00    -0.572 OA
ATOM     51  C6  SGN d 505      18.212  21.344 106.339  0.00  0.00     0.067 C 
ATOM     52  O2S SGN d 505      18.635  27.657 109.347  0.00  0.00    -0.296 OA
ATOM     53  S1  SGN d 505      19.970  27.121 109.227  0.00  0.00     0.156 S 
ATOM     54  O6S SGN d 505      16.863  20.513 104.028  0.00  0.00    -0.572 OA
ATOM     55  O4  SGN d 505      17.070  21.414 108.845  0.00  0.00    -0.348 OA
ATOM     56  O5  SGN d 505      19.347  23.292 106.855  0.00  0.00    -0.349 OA
ATOM     57  O4S SGN d 505      15.032  21.819 104.909  0.00  0.00    -0.572 OA
ATOM     58  C1  SGN d 505      20.053  24.104 107.749  0.00  0.00     0.150 C 
ATOM     59  O1S SGN d 505      20.443  27.115 107.859  0.00  0.00    -0.296 OA
ATOM     60  N   SGN d 505      19.842  25.527 109.727  0.00  0.00    -0.210 NA
ATOM     61  C3  SGN d 505      18.442  23.398 109.548  0.00  0.00     0.083 C 
ATOM     62  C2  SGN d 505      19.116  24.588 108.839  0.00  0.00     0.081 C 
ATOM     63  O3S SGN d 505      20.868  27.764 110.121  0.00  0.00    -0.296 OA
ATOM     64  C4  SGN d 505      17.711  22.601 108.429  0.00  0.00     0.095 C 
ATOM     65  C5  SGN d 505      18.760  22.177 107.452  0.00  0.00     0.091 C 
ATOM     66  O3  SGN d 505      17.506  23.906 110.491  0.00  0.00    -0.391 OA
ATOM     67  H   SGN d 505      18.971  21.144 105.611  0.00  0.00     0.080 H 
ATOM     68  H   SGN d 505      17.858  20.396 106.685  0.00  0.00     0.080 H 
ATOM     69  H   SGN d 505      18.046  27.200 108.726  0.00  0.00     0.231 HD
ATOM     70  H   SGN d 505      20.439  24.958 107.232  0.00  0.00     0.131 H 
ATOM     71  H   SGN d 505      19.793  26.665 107.295  0.00  0.00     0.231 HD
ATOM     72  H   SGN d 505      19.364  25.526 110.628  0.00  0.00     0.140 HD
ATOM     73  H   SGN d 505      19.138  22.774 110.069  0.00  0.00     0.089 H 
ATOM     74  H   SGN d 505      18.303  25.145 108.425  0.00  0.00     0.076 H 
ATOM     75  H   SGN d 505      20.502  27.739 111.019  0.00  0.00     0.231 HD
ATOM     76  H   SGN d 505      16.951  23.250 108.047  0.00  0.00     0.091 H 
ATOM     77  H   SGN d 505      19.464  21.604 108.019  0.00  0.00     0.090 H 
ATOM     78  H   SGN d 505      16.866  24.475 110.036  0.00  0.00     0.210 HD
ATOM     79  C6  SGN d 503      27.133  21.972 110.880  0.00  0.00     0.067 C 
ATOM     80  O6  SGN d 503      26.428  21.035 111.665  0.00  0.00    -0.254 OA
ATOM     81  C4  SGN d 503      26.182  20.875 108.773  0.00  0.00     0.095 C 
ATOM     82  O5  SGN d 503      28.238  20.233 109.873  0.00  0.00    -0.349 OA
ATOM     83  O4  SGN d 503      25.468  22.005 108.390  0.00  0.00    -0.348 OA
ATOM     84  S1  SGN d 503      28.405  16.709 106.956  0.00  0.00     0.156 S 
ATOM     85  O4S SGN d 503      26.624  22.250 113.740  0.00  0.00    -0.572 OA
ATOM     86  O2S SGN d 503      27.257  16.050 107.578  0.00  0.00    -0.296 OA
ATOM     87  C3  SGN d 503      26.595  20.115 107.515  0.00  0.00     0.083 C 
ATOM     88  S2  SGN d 503      26.474  20.936 113.213  0.00  0.00     0.251 S 
ATOM     89  O5S SGN d 503      25.224  20.316 113.640  0.00  0.00    -0.572 OA
ATOM     90  C1  SGN d 503      28.731  19.556 108.743  0.00  0.00     0.150 C 
ATOM     91  O1S SGN d 503      29.581  16.667 107.804  0.00  0.00    -0.296 OA
ATOM     92  O6S SGN d 503      27.636  20.177 113.466  0.00  0.00    -0.572 OA
ATOM     93  C2  SGN d 503      27.556  19.011 107.918  0.00  0.00     0.081 C 
ATOM     94  N   SGN d 503      28.042  18.283 106.759  0.00  0.00    -0.210 NA
ATOM     95  O3  SGN d 503      25.432  19.554 106.938  0.00  0.00    -0.391 OA
ATOM     96  C5  SGN d 503      27.429  21.322 109.556  0.00  0.00     0.091 C 
ATOM     97  O3S SGN d 503      28.677  16.260 105.610  0.00  0.00    -0.296 OA
ATOM     98  H   SGN d 503      26.535  22.847 110.732  0.00  0.00     0.080 H 
ATOM     99  H   SGN d 503      28.040  22.264 111.367  0.00  0.00     0.080 H 
ATOM    100  H   SGN d 503      25.586  20.239 109.393  0.00  0.00     0.091 H 
ATOM    101  H   SGN d 503      27.133  16.397 108.476  0.00  0.00     0.231 HD
ATOM    102  H   SGN d 503      27.072  20.762 106.810  0.00  0.00     0.089 H 
ATOM    103  H   SGN d 503      29.338  18.739 109.072  0.00  0.00     0.131 H 
ATOM    104  H   SGN d 503      29.349  16.975 108.694  0.00  0.00     0.231 HD
ATOM    105  H   SGN d 503      27.008  18.330 108.535  0.00  0.00     0.076 H 
ATOM    106  H   SGN d 503      27.324  18.343 106.038  0.00  0.00     0.140 HD
ATOM    107  H   SGN d 503      25.003  18.967 107.580  0.00  0.00     0.210 HD
ATOM    108  H   SGN d 503      27.898  22.025 108.899  0.00  0.00     0.090 H 
ATOM    109  H   SGN d 503      29.448  16.736 105.260  0.00  0.00     0.231 HD
ATOM    110  O61 IDS d 504      21.096  20.114 107.609  0.00  0.00    -0.646 OA
ATOM    111  O62 IDS d 504      21.641  20.611 105.637  0.00  0.00    -0.646 OA
ATOM    112  O3S IDS d 504      24.921  24.829 111.628  0.00  0.00    -0.572 OA
ATOM    113  S   IDS d 504      23.533  25.006 111.418  0.00  0.00     0.252 S 
ATOM    114  C6  IDS d 504      21.778  20.789 106.849  0.00  0.00     0.206 C 
ATOM    115  O3  IDS d 504      24.320  24.223 106.766  0.00  0.00    -0.390 OA
ATOM    116  C1  IDS d 504      24.320  22.238 109.154  0.00  0.00     0.161 C 
ATOM    117  O2  IDS d 504      23.211  24.030 110.272  0.00  0.00    -0.244 OA
ATOM    118  C5  IDS d 504      22.759  21.842 107.392  0.00  0.00     0.152 C 
ATOM    119  C4  IDS d 504      22.238  23.278 107.383  0.00  0.00     0.103 C 
ATOM    120  O5  IDS d 504      23.190  21.493 108.688  0.00  0.00    -0.340 OA
ATOM    121  O4  IDS d 504      21.147  23.408 108.282  0.00  0.00    -0.348 OA
ATOM    122  C2  IDS d 504      24.041  23.728 109.152  0.00  0.00     0.134 C 
ATOM    123  O1S IDS d 504      23.232  26.304 110.935  0.00  0.00    -0.572 OA
ATOM    124  O2S IDS d 504      22.705  24.652 112.534  0.00  0.00    -0.572 OA
ATOM    125  C3  IDS d 504      23.359  24.212 107.814  0.00  0.00     0.094 C 
ATOM    126  H   IDS d 504      23.899  24.521 105.945  0.00  0.00     0.210 HD
ATOM    127  H   IDS d 504      24.494  21.900 110.154  0.00  0.00     0.133 H 
ATOM    128  H   IDS d 504      23.580  21.833 106.707  0.00  0.00     0.104 H 
ATOM    129  H   IDS d 504      21.908  23.530 106.397  0.00  0.00     0.092 H 
ATOM    130  H   IDS d 504      24.972  24.250 109.221  0.00  0.00     0.097 H 
ATOM    131  H   IDS d 504      22.962  25.188 107.999  0.00  0.00     0.091 H 
ENDROOT
TORSDOF 40
ENDMDL
MODEL 38
REMARK VINA RESULT:     -10.0      4.526     11.962
REMARK  0 active torsions:
REMARK  status: ('A' for Active; 'I' for Inactive)
REMARK       I    between atoms: C6_1  and  C5_82 
REMARK       I    between atoms: O2_4  and  C2_65 
REMARK       I    between atoms: O2_4  and  S_6 
REMARK       I    between atoms: S2_5  and  O6_13 
REMARK       I    between atoms: C6_7  and  C5_66 
REMARK       I    between atoms: C6_7  and  O6_11 
REMARK       I    between atoms: S_8  and  O2_37 
REMARK       I    between atoms: O6_11  and  S2_34 
REMARK       I    between atoms: O6_13  and  C6_16 
REMARK       I    between atoms: C6_16  and  C5_76 
REMARK       I    between atoms: O2S_17  and  S1_21 
REMARK       I    between atoms: O4_18  and  C4_33 
REMARK       I    between atoms: C4_19  and  O4_25 
REMARK       I    between atoms: O3_20  and  C3_57 
REMARK       I    between atoms: S1_21  and  N_56 
REMARK       I    between atoms: S1_21  and  O1S_55 
REMARK       I    between atoms: S1_21  and  O3S_68 
REMARK       I    between atoms: O3_24  and  C3_80 
REMARK       I    between atoms: O4_25  and  C1_53 
REMARK       I    between atoms: S1_26  and  N_59 
REMARK       I    between atoms: S1_26  and  O1S_42 
REMARK       I    between atoms: S1_26  and  O2S_29 
REMARK       I    between atoms: S1_26  and  O3S_87 
REMARK       I    between atoms: S_30  and  O2_54 
REMARK       I    between atoms: C3_31  and  O3_61 
REMARK       I    between atoms: O4_36  and  C4_70 
REMARK       I    between atoms: O4_36  and  C1_52 
REMARK       I    between atoms: O2_37  and  C2_45 
REMARK       I    between atoms: C4_38  and  O4_71 
REMARK       I    between atoms: C1_39  and  O1_51 
REMARK       I    between atoms: C1_40  and  O4_71 
REMARK       I    between atoms: C6_46  and  C5_84 
REMARK       I    between atoms: C6_47  and  C5_64 
REMARK       I    between atoms: C1_48  and  O4_77 
REMARK       I    between atoms: O3_50  and  C3_86 
REMARK       I    between atoms: O2_54  and  C2_79 
REMARK       I    between atoms: N_56  and  C2_67 
REMARK       I    between atoms: C2_58  and  N_59 
REMARK       I    between atoms: C3_62  and  O3_81 
REMARK       I    between atoms: C4_69  and  O4_77 
ROOT
ATOM      1  C6  IDS d 506      25.237  33.439 112.989  0.00  0.00     0.206 C 
ATOM      2  O62 IDS d 506      25.927  33.907 113.879  0.00  0.00    -0.646 OA
ATOM      3  S   IDS d 506      19.500  31.066 113.892  0.00  0.00     0.252 S 
ATOM      4  O1S IDS d 506      19.853  30.944 115.273  0.00  0.00    -0.572 OA
ATOM      5  O3S IDS d 506      18.937  29.853 113.339  0.00  0.00    -0.572 OA
ATOM      6  O4  IDS d 506      22.738  33.250 114.640  0.00  0.00    -0.390 OA
ATOM      7  O3  IDS d 506      23.540  29.777 114.996  0.00  0.00    -0.390 OA
ATOM      8  C4  IDS d 506      23.601  32.142 114.529  0.00  0.00     0.097 C 
ATOM      9  O2  IDS d 506      20.879  31.280 113.132  0.00  0.00    -0.244 OA
ATOM     10  C2  IDS d 506      22.061  30.510 113.227  0.00  0.00     0.134 C 
ATOM     11  C1  IDS d 506      22.966  30.779 112.017  0.00  0.00     0.161 C 
ATOM     12  O2S IDS d 506      18.682  32.224 113.668  0.00  0.00    -0.572 OA
ATOM     13  O5  IDS d 506      23.490  32.078 112.136  0.00  0.00    -0.340 OA
ATOM     14  O61 IDS d 506      25.271  33.980 111.893  0.00  0.00    -0.646 OA
ATOM     15  C3  IDS d 506      22.725  30.872 114.585  0.00  0.00     0.094 C 
ATOM     16  C5  IDS d 506      24.368  32.214 113.205  0.00  0.00     0.152 C 
ATOM     17  H   IDS d 506      22.254  33.200 115.480  0.00  0.00     0.210 HD
ATOM     18  H   IDS d 506      23.962  29.989 115.843  0.00  0.00     0.210 HD
ATOM     19  H   IDS d 506      24.319  32.131 115.322  0.00  0.00     0.091 H 
ATOM     20  H   IDS d 506      21.861  29.459 113.208  0.00  0.00     0.097 H 
ATOM     21  H   IDS d 506      23.751  30.054 111.975  0.00  0.00     0.133 H 
ATOM     22  H   IDS d 506      21.933  31.070 115.277  0.00  0.00     0.091 H 
ATOM     23  H   IDS d 506      25.057  31.398 113.262  0.00  0.00     0.104 H 
ATOM     24  O62 IDS d 502      27.641  17.802 109.260  0.00  0.00    -0.646 OA
ATOM     25  O2  IDS d 502      24.163  18.669 104.894  0.00  0.00    -0.244 OA
ATOM     26  S   IDS d 502      22.665  19.051 104.653  0.00  0.00     0.252 S 
ATOM     27  O3  IDS d 502      24.735  15.453 106.370  0.00  0.00    -0.390 OA
ATOM     28  O2S IDS d 502      22.470  20.319 105.316  0.00  0.00    -0.572 OA
ATOM     29  C4  IDS d 502      25.159  17.557 107.457  0.00  0.00     0.103 C 
ATOM     30  C1  IDS d 502      26.226  17.508 104.764  0.00  0.00     0.158 C 
ATOM     31  O61 IDS d 502      28.108  19.299 107.904  0.00  0.00    -0.646 OA
ATOM     32  C6  IDS d 502      27.518  18.275 108.147  0.00  0.00     0.206 C 
ATOM     33  O1  IDS d 502      26.745  16.217 104.586  0.00  0.00    -0.368 OA
ATOM     34  C3  IDS d 502      24.377  16.821 106.352  0.00  0.00     0.094 C 
ATOM     35  O3S IDS d 502      22.528  19.116 103.221  0.00  0.00    -0.572 OA
ATOM     36  O5  IDS d 502      26.833  18.193 105.831  0.00  0.00    -0.340 OA
ATOM     37  C2  IDS d 502      24.720  17.384 104.970  0.00  0.00     0.134 C 
ATOM     38  O4  IDS d 502      24.672  18.867 107.586  0.00  0.00    -0.348 OA
ATOM     39  O1S IDS d 502      21.862  18.006 105.226  0.00  0.00    -0.572 OA
ATOM     40  C5  IDS d 502      26.644  17.599 107.100  0.00  0.00     0.152 C 
ATOM     41  H   IDS d 502      24.526  15.075 107.238  0.00  0.00     0.210 HD
ATOM     42  H   IDS d 502      25.033  17.035 108.383  0.00  0.00     0.092 H 
ATOM     43  H   IDS d 502      26.437  18.093 103.893  0.00  0.00     0.133 H 
ATOM     44  H   IDS d 502      26.558  15.682 105.373  0.00  0.00     0.212 HD
ATOM     45  H   IDS d 502      23.331  16.951 106.536  0.00  0.00     0.091 H 
ATOM     46  H   IDS d 502      24.336  16.723 104.222  0.00  0.00     0.097 H 
ATOM     47  H   IDS d 502      26.965  16.579 107.071  0.00  0.00     0.104 H 
ATOM     48  S2  SGN d 505      18.906  31.233 107.979  0.00  0.00     0.251 S 
ATOM     49  O6  SGN d 505      20.282  30.716 108.374  0.00  0.00    -0.254 OA
ATOM     50  O5S SGN d 505      18.936  31.279 106.538  0.00  0.00    -0.572 OA
ATOM     51  C6  SGN d 505      20.580  29.512 108.994  0.00  0.00     0.067 C 
ATOM     52  O2S SGN d 505      26.599  31.845 106.272  0.00  0.00    -0.296 OA
ATOM     53  S1  SGN d 505      26.602  30.402 106.210  0.00  0.00     0.156 S 
ATOM     54  O6S SGN d 505      17.932  30.276 108.486  0.00  0.00    -0.572 OA
ATOM     55  O4  SGN d 505      22.200  30.727 110.863  0.00  0.00    -0.348 OA
ATOM     56  O5  SGN d 505      22.422  29.291 107.613  0.00  0.00    -0.349 OA
ATOM     57  O4S SGN d 505      18.802  32.526 108.618  0.00  0.00    -0.572 OA
ATOM     58  C1  SGN d 505      23.780  29.025 107.407  0.00  0.00     0.150 C 
ATOM     59  O1S SGN d 505      25.691  29.889 105.209  0.00  0.00    -0.296 OA
ATOM     60  N   SGN d 505      26.041  29.905 107.709  0.00  0.00    -0.210 NA
ATOM     61  C3  SGN d 505      24.276  30.315 109.509  0.00  0.00     0.083 C 
ATOM     62  C2  SGN d 505      24.610  30.138 108.015  0.00  0.00     0.081 C 
ATOM     63  O3S SGN d 505      27.921  29.893 106.073  0.00  0.00    -0.296 OA
ATOM     64  C4  SGN d 505      22.746  30.597 109.567  0.00  0.00     0.095 C 
ATOM     65  C5  SGN d 505      22.071  29.412 108.957  0.00  0.00     0.091 C 
ATOM     66  O3  SGN d 505      25.007  31.429 110.006  0.00  0.00    -0.391 OA
ATOM     67  H   SGN d 505      20.136  28.696 108.463  0.00  0.00     0.080 H 
ATOM     68  H   SGN d 505      20.201  29.473 109.994  0.00  0.00     0.080 H 
ATOM     69  H   SGN d 505      25.687  32.162 106.365  0.00  0.00     0.231 HD
ATOM     70  H   SGN d 505      23.983  28.987 106.357  0.00  0.00     0.131 H 
ATOM     71  H   SGN d 505      24.809  30.269 105.351  0.00  0.00     0.231 HD
ATOM     72  H   SGN d 505      26.589  30.394 108.418  0.00  0.00     0.140 HD
ATOM     73  H   SGN d 505      24.530  29.458 110.097  0.00  0.00     0.089 H 
ATOM     74  H   SGN d 505      24.366  31.082 107.576  0.00  0.00     0.076 H 
ATOM     75  H   SGN d 505      28.486  30.268 106.766  0.00  0.00     0.231 HD
ATOM     76  H   SGN d 505      22.595  31.530 109.067  0.00  0.00     0.091 H 
ATOM     77  H   SGN d 505      22.390  28.570 109.536  0.00  0.00     0.090 H 
ATOM     78  H   SGN d 505      24.791  32.217 109.484  0.00  0.00     0.210 HD
ATOM     79  C6  SGN d 503      27.087  21.880 108.981  0.00  0.00     0.067 C 
ATOM     80  O6  SGN d 503      26.945  22.191 110.351  0.00  0.00    -0.254 OA
ATOM     81  C4  SGN d 503      24.564  22.184 108.683  0.00  0.00     0.095 C 
ATOM     82  O5  SGN d 503      25.657  20.111 109.279  0.00  0.00    -0.349 OA
ATOM     83  O4  SGN d 503      24.699  23.270 107.826  0.00  0.00    -0.348 OA
ATOM     84  S1  SGN d 503      21.469  18.370 109.897  0.00  0.00     0.156 S 
ATOM     85  O4S SGN d 503      29.286  22.621 110.751  0.00  0.00    -0.572 OA
ATOM     86  O2S SGN d 503      21.229  19.189 111.084  0.00  0.00    -0.296 OA
ATOM     87  C3  SGN d 503      23.291  21.428 108.311  0.00  0.00     0.083 C 
ATOM     88  S2  SGN d 503      28.090  22.198 111.398  0.00  0.00     0.251 S 
ATOM     89  O5S SGN d 503      27.691  23.114 112.462  0.00  0.00    -0.572 OA
ATOM     90  C1  SGN d 503      24.554  19.323 108.906  0.00  0.00     0.150 C 
ATOM     91  O1S SGN d 503      22.448  17.327 110.144  0.00  0.00    -0.296 OA
ATOM     92  O6S SGN d 503      28.201  20.845 111.783  0.00  0.00    -0.572 OA
ATOM     93  C2  SGN d 503      23.261  20.129 109.095  0.00  0.00     0.081 C 
ATOM     94  N   SGN d 503      22.104  19.324 108.742  0.00  0.00    -0.210 NA
ATOM     95  O3  SGN d 503      22.182  22.231 108.666  0.00  0.00    -0.391 OA
ATOM     96  C5  SGN d 503      25.791  21.270 108.519  0.00  0.00     0.091 C 
ATOM     97  O3S SGN d 503      20.264  17.862 109.282  0.00  0.00    -0.296 OA
ATOM     98  H   SGN d 503      27.292  22.770 108.424  0.00  0.00     0.080 H 
ATOM     99  H   SGN d 503      27.898  21.197 108.832  0.00  0.00     0.080 H 
ATOM    100  H   SGN d 503      24.500  22.508 109.701  0.00  0.00     0.091 H 
ATOM    101  H   SGN d 503      22.077  19.494 111.443  0.00  0.00     0.231 HD
ATOM    102  H   SGN d 503      23.261  21.213 107.263  0.00  0.00     0.089 H 
ATOM    103  H   SGN d 503      24.524  18.458 109.535  0.00  0.00     0.131 H 
ATOM    104  H   SGN d 503      23.236  17.715 110.556  0.00  0.00     0.231 HD
ATOM    105  H   SGN d 503      23.183  20.389 110.129  0.00  0.00     0.076 H 
ATOM    106  H   SGN d 503      21.371  19.963 108.436  0.00  0.00     0.140 HD
ATOM    107  H   SGN d 503      22.212  22.423 109.616  0.00  0.00     0.210 HD
ATOM    108  H   SGN d 503      25.827  21.088 107.465  0.00  0.00     0.090 H 
ATOM    109  H   SGN d 503      20.496  17.330 108.505  0.00  0.00     0.231 HD
ATOM    110  O61 IDS d 504      21.718  26.455 109.892  0.00  0.00    -0.646 OA
ATOM    111  O62 IDS d 504      20.652  26.045 108.124  0.00  0.00    -0.646 OA
ATOM    112  O3S IDS d 504      28.621  25.095 108.021  0.00  0.00    -0.572 OA
ATOM    113  S   IDS d 504      28.146  26.422 108.144  0.00  0.00     0.252 S 
ATOM    114  C6  IDS d 504      21.723  26.061 108.733  0.00  0.00     0.206 C 
ATOM    115  O3  IDS d 504      24.370  25.119 105.513  0.00  0.00    -0.390 OA
ATOM    116  C1  IDS d 504      25.073  24.457 108.464  0.00  0.00     0.161 C 
ATOM    117  O2  IDS d 504      26.617  26.256 108.200  0.00  0.00    -0.244 OA
ATOM    118  C5  IDS d 504      23.031  25.621 108.053  0.00  0.00     0.152 C 
ATOM    119  C4  IDS d 504      23.684  26.675 107.161  0.00  0.00     0.103 C 
ATOM    120  O5  IDS d 504      23.954  25.161 109.013  0.00  0.00    -0.340 OA
ATOM    121  O4  IDS d 504      24.120  27.776 107.945  0.00  0.00    -0.348 OA
ATOM    122  C2  IDS d 504      25.835  25.312 107.471  0.00  0.00     0.134 C 
ATOM    123  O1S IDS d 504      28.423  27.192 106.987  0.00  0.00    -0.572 OA
ATOM    124  O2S IDS d 504      28.553  27.100 109.340  0.00  0.00    -0.572 OA
ATOM    125  C3  IDS d 504      24.880  26.053 106.458  0.00  0.00     0.094 C 
ATOM    126  H   IDS d 504      23.783  25.577 104.891  0.00  0.00     0.210 HD
ATOM    127  H   IDS d 504      25.700  24.219 109.298  0.00  0.00     0.133 H 
ATOM    128  H   IDS d 504      22.746  24.828 107.395  0.00  0.00     0.104 H 
ATOM    129  H   IDS d 504      22.972  27.021 106.442  0.00  0.00     0.092 H 
ATOM    130  H   IDS d 504      26.462  24.676 106.884  0.00  0.00     0.097 H 
ATOM    131  H   IDS d 504      25.457  26.820 105.985  0.00  0.00     0.091 H 
ENDROOT
TORSDOF 40
ENDMDL
MODEL 39
REMARK VINA RESULT:      -9.9      3.965      7.124
REMARK  0 active torsions:
REMARK  status: ('A' for Active; 'I' for Inactive)
REMARK       I    between atoms: C6_1  and  C5_82 
REMARK       I    between atoms: O2_4  and  C2_65 
REMARK       I    between atoms: O2_4  and  S_6 
REMARK       I    between atoms: S2_5  and  O6_13 
REMARK       I    between atoms: C6_7  and  C5_66 
REMARK       I    between atoms: C6_7  and  O6_11 
REMARK       I    between atoms: S_8  and  O2_37 
REMARK       I    between atoms: O6_11  and  S2_34 
REMARK       I    between atoms: O6_13  and  C6_16 
REMARK       I    between atoms: C6_16  and  C5_76 
REMARK       I    between atoms: O2S_17  and  S1_21 
REMARK       I    between atoms: O4_18  and  C4_33 
REMARK       I    between atoms: C4_19  and  O4_25 
REMARK       I    between atoms: O3_20  and  C3_57 
REMARK       I    between atoms: S1_21  and  N_56 
REMARK       I    between atoms: S1_21  and  O1S_55 
REMARK       I    between atoms: S1_21  and  O3S_68 
REMARK       I    between atoms: O3_24  and  C3_80 
REMARK       I    between atoms: O4_25  and  C1_53 
REMARK       I    between atoms: S1_26  and  N_59 
REMARK       I    between atoms: S1_26  and  O1S_42 
REMARK       I    between atoms: S1_26  and  O2S_29 
REMARK       I    between atoms: S1_26  and  O3S_87 
REMARK       I    between atoms: S_30  and  O2_54 
REMARK       I    between atoms: C3_31  and  O3_61 
REMARK       I    between atoms: O4_36  and  C4_70 
REMARK       I    between atoms: O4_36  and  C1_52 
REMARK       I    between atoms: O2_37  and  C2_45 
REMARK       I    between atoms: C4_38  and  O4_71 
REMARK       I    between atoms: C1_39  and  O1_51 
REMARK       I    between atoms: C1_40  and  O4_71 
REMARK       I    between atoms: C6_46  and  C5_84 
REMARK       I    between atoms: C6_47  and  C5_64 
REMARK       I    between atoms: C1_48  and  O4_77 
REMARK       I    between atoms: O3_50  and  C3_86 
REMARK       I    between atoms: O2_54  and  C2_79 
REMARK       I    between atoms: N_56  and  C2_67 
REMARK       I    between atoms: C2_58  and  N_59 
REMARK       I    between atoms: C3_62  and  O3_81 
REMARK       I    between atoms: C4_69  and  O4_77 
ROOT
ATOM      1  C6  IDS d 506      17.240  26.155 111.112  0.00  0.00     0.206 C 
ATOM      2  O62 IDS d 506      16.670  25.285 111.748  0.00  0.00    -0.646 OA
ATOM      3  S   IDS d 506      17.995  26.011 104.886  0.00  0.00     0.252 S 
ATOM      4  O1S IDS d 506      17.751  24.604 104.967  0.00  0.00    -0.572 OA
ATOM      5  O3S IDS d 506      19.178  26.341 104.121  0.00  0.00    -0.572 OA
ATOM      6  O4  IDS d 506      16.395  25.136 108.419  0.00  0.00    -0.390 OA
ATOM      7  O3  IDS d 506      19.671  23.705 108.213  0.00  0.00    -0.390 OA
ATOM      8  C4  IDS d 506      17.633  24.750 108.967  0.00  0.00     0.097 C 
ATOM      9  O2  IDS d 506      18.313  26.461 106.377  0.00  0.00    -0.244 OA
ATOM     10  C2  IDS d 506      19.239  25.896 107.284  0.00  0.00     0.134 C 
ATOM     11  C1  IDS d 506      19.550  26.891 108.411  0.00  0.00     0.161 C 
ATOM     12  O2S IDS d 506      16.823  26.714 104.448  0.00  0.00    -0.572 OA
ATOM     13  O5  IDS d 506      18.414  27.000 109.231  0.00  0.00    -0.340 OA
ATOM     14  O61 IDS d 506      17.086  27.316 111.464  0.00  0.00    -0.646 OA
ATOM     15  C3  IDS d 506      18.617  24.566 107.792  0.00  0.00     0.094 C 
ATOM     16  C5  IDS d 506      18.134  25.832 109.929  0.00  0.00     0.152 C 
ATOM     17  H   IDS d 506      16.081  24.448 107.811  0.00  0.00     0.210 HD
ATOM     18  H   IDS d 506      19.298  22.869 108.534  0.00  0.00     0.210 HD
ATOM     19  H   IDS d 506      17.544  23.838 109.520  0.00  0.00     0.091 H 
ATOM     20  H   IDS d 506      20.181  25.684 106.821  0.00  0.00     0.097 H 
ATOM     21  H   IDS d 506      20.396  26.558 108.974  0.00  0.00     0.133 H 
ATOM     22  H   IDS d 506      18.056  24.153 106.979  0.00  0.00     0.091 H 
ATOM     23  H   IDS d 506      19.014  25.404 110.362  0.00  0.00     0.104 H 
ATOM     24  O62 IDS d 502      33.407  24.983 109.895  0.00  0.00    -0.646 OA
ATOM     25  O2  IDS d 502      33.250  30.105 107.516  0.00  0.00    -0.244 OA
ATOM     26  S   IDS d 502      32.665  30.777 106.230  0.00  0.00     0.252 S 
ATOM     27  O3  IDS d 502      35.894  27.745 106.978  0.00  0.00    -0.390 OA
ATOM     28  O2S IDS d 502      31.242  30.534 106.271  0.00  0.00    -0.572 OA
ATOM     29  C4  IDS d 502      33.690  27.181 107.760  0.00  0.00     0.103 C 
ATOM     30  C1  IDS d 502      34.788  29.445 109.196  0.00  0.00     0.158 C 
ATOM     31  O61 IDS d 502      32.533  26.539 110.951  0.00  0.00    -0.646 OA
ATOM     32  C6  IDS d 502      33.288  26.178 110.081  0.00  0.00     0.206 C 
ATOM     33  O1  IDS d 502      36.148  29.152 109.379  0.00  0.00    -0.368 OA
ATOM     34  C3  IDS d 502      34.556  28.204 107.000  0.00  0.00     0.094 C 
ATOM     35  O3S IDS d 502      33.021  32.167 106.348  0.00  0.00    -0.572 OA
ATOM     36  O5  IDS d 502      33.945  28.484 109.781  0.00  0.00    -0.340 OA
ATOM     37  C2  IDS d 502      34.533  29.567 107.697  0.00  0.00     0.134 C 
ATOM     38  O4  IDS d 502      32.333  27.518 107.620  0.00  0.00    -0.348 OA
ATOM     39  O1S IDS d 502      33.294  30.152 105.100  0.00  0.00    -0.572 OA
ATOM     40  C5  IDS d 502      34.063  27.183 109.240  0.00  0.00     0.152 C 
ATOM     41  H   IDS d 502      35.933  26.880 106.541  0.00  0.00     0.210 HD
ATOM     42  H   IDS d 502      33.860  26.206 107.353  0.00  0.00     0.092 H 
ATOM     43  H   IDS d 502      34.559  30.365 109.690  0.00  0.00     0.133 H 
ATOM     44  H   IDS d 502      36.362  28.317 108.933  0.00  0.00     0.212 HD
ATOM     45  H   IDS d 502      34.165  28.307 106.009  0.00  0.00     0.091 H 
ATOM     46  H   IDS d 502      35.301  30.183 107.278  0.00  0.00     0.097 H 
ATOM     47  H   IDS d 502      35.085  26.868 109.283  0.00  0.00     0.104 H 
ATOM     48  S2  SGN d 505      19.556  31.732 105.318  0.00  0.00     0.251 S 
ATOM     49  O6  SGN d 505      20.194  30.908 106.427  0.00  0.00    -0.254 OA
ATOM     50  O5S SGN d 505      19.967  33.086 105.591  0.00  0.00    -0.572 OA
ATOM     51  C6  SGN d 505      21.180  29.942 106.295  0.00  0.00     0.067 C 
ATOM     52  O2S SGN d 505      21.085  31.714 113.072  0.00  0.00    -0.296 OA
ATOM     53  S1  SGN d 505      22.445  31.391 112.706  0.00  0.00     0.156 S 
ATOM     54  O6S SGN d 505      20.089  31.230 104.058  0.00  0.00    -0.572 OA
ATOM     55  O4  SGN d 505      19.800  28.136 107.854  0.00  0.00    -0.348 OA
ATOM     56  O5  SGN d 505      22.189  30.751 108.211  0.00  0.00    -0.349 OA
ATOM     57  O4S SGN d 505      18.137  31.497 105.455  0.00  0.00    -0.572 OA
ATOM     58  C1  SGN d 505      22.777  30.561 109.467  0.00  0.00     0.150 C 
ATOM     59  O1S SGN d 505      23.046  32.405 111.865  0.00  0.00    -0.296 OA
ATOM     60  N   SGN d 505      22.326  29.986 111.800  0.00  0.00    -0.210 NA
ATOM     61  C3  SGN d 505      21.026  28.816 109.939  0.00  0.00     0.083 C 
ATOM     62  C2  SGN d 505      21.723  30.092 110.451  0.00  0.00     0.081 C 
ATOM     63  O3S SGN d 505      23.228  31.082 113.849  0.00  0.00    -0.296 OA
ATOM     64  C4  SGN d 505      20.435  29.189 108.548  0.00  0.00     0.095 C 
ATOM     65  C5  SGN d 505      21.587  29.605 107.692  0.00  0.00     0.091 C 
ATOM     66  O3  SGN d 505      19.987  28.474 110.847  0.00  0.00    -0.391 OA
ATOM     67  H   SGN d 505      22.011  30.328 105.743  0.00  0.00     0.080 H 
ATOM     68  H   SGN d 505      20.828  29.082 105.763  0.00  0.00     0.080 H 
ATOM     69  H   SGN d 505      20.576  31.920 112.272  0.00  0.00     0.231 HD
ATOM     70  H   SGN d 505      23.179  31.488 109.819  0.00  0.00     0.131 H 
ATOM     71  H   SGN d 505      22.470  32.576 111.103  0.00  0.00     0.231 HD
ATOM     72  H   SGN d 505      21.764  29.324 112.336  0.00  0.00     0.140 HD
ATOM     73  H   SGN d 505      21.691  27.981 109.860  0.00  0.00     0.089 H 
ATOM     74  H   SGN d 505      20.933  30.808 110.537  0.00  0.00     0.076 H 
ATOM     75  H   SGN d 505      22.780  30.400 114.373  0.00  0.00     0.231 HD
ATOM     76  H   SGN d 505      19.693  29.938 108.730  0.00  0.00     0.091 H 
ATOM     77  H   SGN d 505      22.254  28.768 107.682  0.00  0.00     0.090 H 
ATOM     78  H   SGN d 505      19.373  29.220 110.932  0.00  0.00     0.210 HD
ATOM     79  C6  SGN d 503      29.595  26.444 110.483  0.00  0.00     0.067 C 
ATOM     80  O6  SGN d 503      28.852  25.276 110.209  0.00  0.00    -0.254 OA
ATOM     81  C4  SGN d 503      28.891  27.386 108.211  0.00  0.00     0.095 C 
ATOM     82  O5  SGN d 503      30.853  26.030 108.610  0.00  0.00    -0.349 OA
ATOM     83  O4  SGN d 503      28.176  28.444 108.762  0.00  0.00    -0.348 OA
ATOM     84  S1  SGN d 503      31.425  25.962 104.070  0.00  0.00     0.156 S 
ATOM     85  O4S SGN d 503      28.804  24.473 112.484  0.00  0.00    -0.572 OA
ATOM     86  O2S SGN d 503      30.247  25.121 103.864  0.00  0.00    -0.296 OA
ATOM     87  C3  SGN d 503      29.450  27.830 106.861  0.00  0.00     0.083 C 
ATOM     88  S2  SGN d 503      28.753  24.032 111.132  0.00  0.00     0.251 S 
ATOM     89  O5S SGN d 503      27.490  23.368 110.822  0.00  0.00    -0.572 OA
ATOM     90  C1  SGN d 503      31.476  26.428 107.414  0.00  0.00     0.150 C 
ATOM     91  O1S SGN d 503      32.515  25.231 104.687  0.00  0.00    -0.296 OA
ATOM     92  O6S SGN d 503      29.912  23.290 110.820  0.00  0.00    -0.572 OA
ATOM     93  C2  SGN d 503      30.406  26.762 106.365  0.00  0.00     0.081 C 
ATOM     94  N   SGN d 503      31.027  27.148 105.110  0.00  0.00    -0.210 NA
ATOM     95  O3  SGN d 503      28.368  27.965 105.959  0.00  0.00    -0.391 OA
ATOM     96  C5  SGN d 503      30.040  27.017 109.165  0.00  0.00     0.091 C 
ATOM     97  O3S SGN d 503      31.841  26.684 102.888  0.00  0.00    -0.296 OA
ATOM     98  H   SGN d 503      28.983  27.152 111.001  0.00  0.00     0.080 H 
ATOM     99  H   SGN d 503      30.440  26.217 111.099  0.00  0.00     0.080 H 
ATOM    100  H   SGN d 503      28.261  26.532 108.071  0.00  0.00     0.091 H 
ATOM    101  H   SGN d 503      30.025  24.669 104.693  0.00  0.00     0.231 HD
ATOM    102  H   SGN d 503      29.969  28.762 106.945  0.00  0.00     0.089 H 
ATOM    103  H   SGN d 503      32.078  25.618 107.057  0.00  0.00     0.131 H 
ATOM    104  H   SGN d 503      32.188  24.765 105.472  0.00  0.00     0.231 HD
ATOM    105  H   SGN d 503      29.827  25.879 106.193  0.00  0.00     0.076 H 
ATOM    106  H   SGN d 503      30.380  27.772 104.629  0.00  0.00     0.140 HD
ATOM    107  H   SGN d 503      27.900  27.119 105.886  0.00  0.00     0.210 HD
ATOM    108  H   SGN d 503      30.544  27.948 109.321  0.00  0.00     0.090 H 
ATOM    109  H   SGN d 503      32.624  27.218 103.095  0.00  0.00     0.231 HD
ATOM    110  O61 IDS d 504      23.970  28.034 106.430  0.00  0.00    -0.646 OA
ATOM    111  O62 IDS d 504      24.684  29.829 105.593  0.00  0.00    -0.646 OA
ATOM    112  O3S IDS d 504      27.221  27.833 112.942  0.00  0.00    -0.572 OA
ATOM    113  S   IDS d 504      25.854  28.177 112.818  0.00  0.00     0.252 S 
ATOM    114  C6  IDS d 504      24.698  29.015 106.518  0.00  0.00     0.206 C 
ATOM    115  O3  IDS d 504      27.111  31.172 109.308  0.00  0.00    -0.390 OA
ATOM    116  C1  IDS d 504      26.953  28.071 109.327  0.00  0.00     0.161 C 
ATOM    117  O2  IDS d 504      25.678  28.434 111.311  0.00  0.00    -0.244 OA
ATOM    118  C5  IDS d 504      25.583  29.234 107.756  0.00  0.00     0.152 C 
ATOM    119  C4  IDS d 504      25.015  30.195 108.798  0.00  0.00     0.103 C 
ATOM    120  O5  IDS d 504      25.900  28.000 108.359  0.00  0.00    -0.340 OA
ATOM    121  O4  IDS d 504      23.838  29.650 109.376  0.00  0.00    -0.348 OA
ATOM    122  C2  IDS d 504      26.622  29.050 110.436  0.00  0.00     0.134 C 
ATOM    123  O1S IDS d 504      25.554  29.399 113.470  0.00  0.00    -0.572 OA
ATOM    124  O2S IDS d 504      24.935  27.141 113.191  0.00  0.00    -0.572 OA
ATOM    125  C3  IDS d 504      26.055  30.415 109.886  0.00  0.00     0.094 C 
ATOM    126  H   IDS d 504      26.760  32.011 108.970  0.00  0.00     0.210 HD
ATOM    127  H   IDS d 504      27.042  27.082 109.727  0.00  0.00     0.133 H 
ATOM    128  H   IDS d 504      26.467  29.708 107.383  0.00  0.00     0.104 H 
ATOM    129  H   IDS d 504      24.772  31.125 108.327  0.00  0.00     0.092 H 
ATOM    130  H   IDS d 504      27.524  29.288 110.961  0.00  0.00     0.097 H 
ATOM    131  H   IDS d 504      25.607  30.926 110.712  0.00  0.00     0.091 H 
ENDROOT
TORSDOF 40
ENDMDL
MODEL 40
REMARK VINA RESULT:      -9.9      4.555      8.227
REMARK  0 active torsions:
REMARK  status: ('A' for Active; 'I' for Inactive)
REMARK       I    between atoms: C6_1  and  C5_82 
REMARK       I    between atoms: O2_4  and  C2_65 
REMARK       I    between atoms: O2_4  and  S_6 
REMARK       I    between atoms: S2_5  and  O6_13 
REMARK       I    between atoms: C6_7  and  C5_66 
REMARK       I    between atoms: C6_7  and  O6_11 
REMARK       I    between atoms: S_8  and  O2_37 
REMARK       I    between atoms: O6_11  and  S2_34 
REMARK       I    between atoms: O6_13  and  C6_16 
REMARK       I    between atoms: C6_16  and  C5_76 
REMARK       I    between atoms: O2S_17  and  S1_21 
REMARK       I    between atoms: O4_18  and  C4_33 
REMARK       I    between atoms: C4_19  and  O4_25 
REMARK       I    between atoms: O3_20  and  C3_57 
REMARK       I    between atoms: S1_21  and  N_56 
REMARK       I    between atoms: S1_21  and  O1S_55 
REMARK       I    between atoms: S1_21  and  O3S_68 
REMARK       I    between atoms: O3_24  and  C3_80 
REMARK       I    between atoms: O4_25  and  C1_53 
REMARK       I    between atoms: S1_26  and  N_59 
REMARK       I    between atoms: S1_26  and  O1S_42 
REMARK       I    between atoms: S1_26  and  O2S_29 
REMARK       I    between atoms: S1_26  and  O3S_87 
REMARK       I    between atoms: S_30  and  O2_54 
REMARK       I    between atoms: C3_31  and  O3_61 
REMARK       I    between atoms: O4_36  and  C4_70 
REMARK       I    between atoms: O4_36  and  C1_52 
REMARK       I    between atoms: O2_37  and  C2_45 
REMARK       I    between atoms: C4_38  and  O4_71 
REMARK       I    between atoms: C1_39  and  O1_51 
REMARK       I    between atoms: C1_40  and  O4_71 
REMARK       I    between atoms: C6_46  and  C5_84 
REMARK       I    between atoms: C6_47  and  C5_64 
REMARK       I    between atoms: C1_48  and  O4_77 
REMARK       I    between atoms: O3_50  and  C3_86 
REMARK       I    between atoms: O2_54  and  C2_79 
REMARK       I    between atoms: N_56  and  C2_67 
REMARK       I    between atoms: C2_58  and  N_59 
REMARK       I    between atoms: C3_62  and  O3_81 
REMARK       I    between atoms: C4_69  and  O4_77 
ROOT
ATOM      1  C6  IDS d 506      15.346  27.313 107.531  0.00  0.00     0.206 C 
ATOM      2  O62 IDS d 506      14.421  26.711 107.012  0.00  0.00    -0.646 OA
ATOM      3  S   IDS d 506      18.604  31.853 104.680  0.00  0.00     0.252 S 
ATOM      4  O1S IDS d 506      18.109  31.326 103.446  0.00  0.00    -0.572 OA
ATOM      5  O3S IDS d 506      20.036  32.060 104.679  0.00  0.00    -0.572 OA
ATOM      6  O4  IDS d 506      15.545  29.416 105.401  0.00  0.00    -0.390 OA
ATOM      7  O3  IDS d 506      18.306  27.515 104.138  0.00  0.00    -0.390 OA
ATOM      8  C4  IDS d 506      16.353  28.264 105.338  0.00  0.00     0.097 C 
ATOM      9  O2  IDS d 506      18.340  30.710 105.752  0.00  0.00    -0.244 OA
ATOM     10  C2  IDS d 506      18.688  29.341 105.677  0.00  0.00     0.134 C 
ATOM     11  C1  IDS d 506      18.664  28.713 107.078  0.00  0.00     0.161 C 
ATOM     12  O2S IDS d 506      17.864  33.017 105.078  0.00  0.00    -0.572 OA
ATOM     13  O5  IDS d 506      17.326  28.620 107.498  0.00  0.00    -0.340 OA
ATOM     14  O61 IDS d 506      15.262  27.577 108.722  0.00  0.00    -0.646 OA
ATOM     15  C3  IDS d 506      17.691  28.677 104.688  0.00  0.00     0.094 C 
ATOM     16  C5  IDS d 506      16.583  27.716 106.750  0.00  0.00     0.152 C 
ATOM     17  H   IDS d 506      15.402  29.760 104.505  0.00  0.00     0.210 HD
ATOM     18  H   IDS d 506      17.694  27.089 103.517  0.00  0.00     0.210 HD
ATOM     19  H   IDS d 506      15.884  27.494 104.761  0.00  0.00     0.091 H 
ATOM     20  H   IDS d 506      19.685  29.197 105.315  0.00  0.00     0.097 H 
ATOM     21  H   IDS d 506      19.125  27.748 107.057  0.00  0.00     0.133 H 
ATOM     22  H   IDS d 506      17.461  29.408 103.940  0.00  0.00     0.091 H 
ATOM     23  H   IDS d 506      17.113  26.800 106.588  0.00  0.00     0.104 H 
ATOM     24  O62 IDS d 502      30.065  20.494 106.494  0.00  0.00    -0.646 OA
ATOM     25  O2  IDS d 502      31.805  24.540 110.032  0.00  0.00    -0.244 OA
ATOM     26  S   IDS d 502      31.939  26.099 110.047  0.00  0.00     0.252 S 
ATOM     27  O3  IDS d 502      33.981  22.810 107.768  0.00  0.00    -0.390 OA
ATOM     28  O2S IDS d 502      30.611  26.611 109.799  0.00  0.00    -0.572 OA
ATOM     29  C4  IDS d 502      31.591  22.957 107.533  0.00  0.00     0.103 C 
ATOM     30  C1  IDS d 502      32.359  22.244 110.233  0.00  0.00     0.158 C 
ATOM     31  O61 IDS d 502      29.112  20.686 108.326  0.00  0.00    -0.646 OA
ATOM     32  C6  IDS d 502      30.087  20.887 107.644  0.00  0.00     0.206 C 
ATOM     33  O1  IDS d 502      33.443  21.364 110.099  0.00  0.00    -0.368 OA
ATOM     34  C3  IDS d 502      32.858  23.584 108.144  0.00  0.00     0.094 C 
ATOM     35  O3S IDS d 502      32.447  26.411 111.357  0.00  0.00    -0.572 OA
ATOM     36  O5  IDS d 502      31.196  21.769 109.602  0.00  0.00    -0.340 OA
ATOM     37  C2  IDS d 502      32.781  23.598 109.673  0.00  0.00     0.134 C 
ATOM     38  O4  IDS d 502      30.499  23.818 107.726  0.00  0.00    -0.348 OA
ATOM     39  O1S IDS d 502      32.865  26.457 109.009  0.00  0.00    -0.572 OA
ATOM     40  C5  IDS d 502      31.304  21.614 108.201  0.00  0.00     0.152 C 
ATOM     41  H   IDS d 502      34.050  22.787 106.801  0.00  0.00     0.210 HD
ATOM     42  H   IDS d 502      31.745  22.804 106.485  0.00  0.00     0.092 H 
ATOM     43  H   IDS d 502      32.106  22.331 111.269  0.00  0.00     0.133 H 
ATOM     44  H   IDS d 502      33.677  21.281 109.161  0.00  0.00     0.212 HD
ATOM     45  H   IDS d 502      32.943  24.589 107.786  0.00  0.00     0.091 H 
ATOM     46  H   IDS d 502      33.746  23.834 110.067  0.00  0.00     0.097 H 
ATOM     47  H   IDS d 502      32.142  20.990 107.972  0.00  0.00     0.104 H 
ATOM     48  S2  SGN d 505      20.801  33.137 110.053  0.00  0.00     0.251 S 
ATOM     49  O6  SGN d 505      20.762  31.633 109.826  0.00  0.00    -0.254 OA
ATOM     50  O5S SGN d 505      21.286  33.287 111.403  0.00  0.00    -0.572 OA
ATOM     51  C6  SGN d 505      21.530  30.899 108.935  0.00  0.00     0.067 C 
ATOM     52  O2S SGN d 505      18.910  26.286 113.512  0.00  0.00    -0.296 OA
ATOM     53  S1  SGN d 505      20.220  25.831 113.108  0.00  0.00     0.156 S 
ATOM     54  O6S SGN d 505      21.718  33.691 109.066  0.00  0.00    -0.572 OA
ATOM     55  O4  SGN d 505      19.336  29.549 107.957  0.00  0.00    -0.348 OA
ATOM     56  O5  SGN d 505      21.766  29.252 110.541  0.00  0.00    -0.349 OA
ATOM     57  O4S SGN d 505      19.437  33.574 109.855  0.00  0.00    -0.572 OA
ATOM     58  C1  SGN d 505      21.731  27.912 110.944  0.00  0.00     0.150 C 
ATOM     59  O1S SGN d 505      21.283  26.639 113.666  0.00  0.00    -0.296 OA
ATOM     60  N   SGN d 505      20.252  26.031 111.444  0.00  0.00    -0.210 NA
ATOM     61  C3  SGN d 505      19.671  27.618 109.529  0.00  0.00     0.083 C 
ATOM     62  C2  SGN d 505      20.298  27.416 110.922  0.00  0.00     0.081 C 
ATOM     63  O3S SGN d 505      20.386  24.444 113.361  0.00  0.00    -0.296 OA
ATOM     64  C4  SGN d 505      19.792  29.140 109.229  0.00  0.00     0.095 C 
ATOM     65  C5  SGN d 505      21.250  29.468 109.264  0.00  0.00     0.091 C 
ATOM     66  O3  SGN d 505      18.306  27.227 109.587  0.00  0.00    -0.391 OA
ATOM     67  H   SGN d 505      22.569  31.118 109.066  0.00  0.00     0.080 H 
ATOM     68  H   SGN d 505      21.292  31.129 107.918  0.00  0.00     0.080 H 
ATOM     69  H   SGN d 505      18.827  27.235 113.327  0.00  0.00     0.231 HD
ATOM     70  H   SGN d 505      22.101  27.828 111.945  0.00  0.00     0.131 H 
ATOM     71  H   SGN d 505      21.119  27.574 113.463  0.00  0.00     0.231 HD
ATOM     72  H   SGN d 505      19.412  25.590 111.067  0.00  0.00     0.140 HD
ATOM     73  H   SGN d 505      20.153  27.039 108.768  0.00  0.00     0.089 H 
ATOM     74  H   SGN d 505      19.681  27.997 111.575  0.00  0.00     0.076 H 
ATOM     75  H   SGN d 505      19.649  23.953 112.966  0.00  0.00     0.231 HD
ATOM     76  H   SGN d 505      19.184  29.637 109.956  0.00  0.00     0.091 H 
ATOM     77  H   SGN d 505      21.704  28.834 108.531  0.00  0.00     0.090 H 
ATOM     78  H   SGN d 505      17.852  27.742 110.273  0.00  0.00     0.210 HD
ATOM     79  C6  SGN d 503      26.672  22.346 107.934  0.00  0.00     0.067 C 
ATOM     80  O6  SGN d 503      25.923  22.423 106.740  0.00  0.00    -0.254 OA
ATOM     81  C4  SGN d 503      27.160  24.851 107.752  0.00  0.00     0.095 C 
ATOM     82  O5  SGN d 503      28.508  23.094 106.779  0.00  0.00    -0.349 OA
ATOM     83  O4  SGN d 503      26.474  25.168 108.919  0.00  0.00    -0.348 OA
ATOM     84  S1  SGN d 503      30.909  26.411 104.734  0.00  0.00     0.156 S 
ATOM     85  O4S SGN d 503      24.789  20.312 107.023  0.00  0.00    -0.572 OA
ATOM     86  O2S SGN d 503      29.800  26.763 103.848  0.00  0.00    -0.296 OA
ATOM     87  C3  SGN d 503      28.300  25.850 107.574  0.00  0.00     0.083 C 
ATOM     88  S2  SGN d 503      25.234  21.228 106.029  0.00  0.00     0.251 S 
ATOM     89  O5S SGN d 503      24.124  21.775 105.254  0.00  0.00    -0.572 OA
ATOM     90  C1  SGN d 503      29.633  23.924 106.629  0.00  0.00     0.150 C 
ATOM     91  O1S SGN d 503      31.496  25.130 104.388  0.00  0.00    -0.296 OA
ATOM     92  O6S SGN d 503      26.270  20.650 105.265  0.00  0.00    -0.572 OA
ATOM     93  C2  SGN d 503      29.176  25.376 106.429  0.00  0.00     0.081 C 
ATOM     94  N   SGN d 503      30.323  26.249 106.243  0.00  0.00    -0.210 NA
ATOM     95  O3  SGN d 503      27.737  27.110 107.260  0.00  0.00    -0.391 OA
ATOM     96  C5  SGN d 503      27.721  23.424 107.881  0.00  0.00     0.091 C 
ATOM     97  O3S SGN d 503      31.900  27.454 104.873  0.00  0.00    -0.296 OA
ATOM     98  H   SGN d 503      26.032  22.500 108.777  0.00  0.00     0.080 H 
ATOM     99  H   SGN d 503      27.128  21.383 108.031  0.00  0.00     0.080 H 
ATOM    100  H   SGN d 503      26.510  24.899 106.903  0.00  0.00     0.091 H 
ATOM    101  H   SGN d 503      29.176  26.021 103.801  0.00  0.00     0.231 HD
ATOM    102  H   SGN d 503      28.888  25.930 108.464  0.00  0.00     0.089 H 
ATOM    103  H   SGN d 503      30.179  23.606 105.766  0.00  0.00     0.131 H 
ATOM    104  H   SGN d 503      30.795  24.465 104.305  0.00  0.00     0.231 HD
ATOM    105  H   SGN d 503      28.580  25.415 105.542  0.00  0.00     0.076 H 
ATOM    106  H   SGN d 503      30.055  27.177 106.568  0.00  0.00     0.140 HD
ATOM    107  H   SGN d 503      27.205  27.035 106.452  0.00  0.00     0.210 HD
ATOM    108  H   SGN d 503      28.265  23.452 108.802  0.00  0.00     0.090 H 
ATOM    109  H   SGN d 503      32.603  27.154 105.471  0.00  0.00     0.231 HD
ATOM    110  O61 IDS d 504      23.632  28.752 107.379  0.00  0.00    -0.646 OA
ATOM    111  O62 IDS d 504      24.928  29.826 108.644  0.00  0.00    -0.646 OA
ATOM    112  O3S IDS d 504      23.765  22.035 110.184  0.00  0.00    -0.572 OA
ATOM    113  S   IDS d 504      22.657  22.891 110.391  0.00  0.00     0.252 S 
ATOM    114  C6  IDS d 504      24.412  28.754 108.322  0.00  0.00     0.206 C 
ATOM    115  O3  IDS d 504      25.766  26.328 111.570  0.00  0.00    -0.390 OA
ATOM    116  C1  IDS d 504      25.082  25.121 108.793  0.00  0.00     0.161 C 
ATOM    117  O2  IDS d 504      23.178  24.271 109.950  0.00  0.00    -0.244 OA
ATOM    118  C5  IDS d 504      24.721  27.460 109.095  0.00  0.00     0.152 C 
ATOM    119  C4  IDS d 504      23.943  27.283 110.398  0.00  0.00     0.103 C 
ATOM    120  O5  IDS d 504      24.538  26.335 108.266  0.00  0.00    -0.340 OA
ATOM    121  O4  IDS d 504      22.558  27.133 110.124  0.00  0.00    -0.348 OA
ATOM    122  C2  IDS d 504      24.492  24.789 110.148  0.00  0.00     0.134 C 
ATOM    123  O1S IDS d 504      22.328  23.007 111.764  0.00  0.00    -0.572 OA
ATOM    124  O2S IDS d 504      21.504  22.588 109.595  0.00  0.00    -0.572 OA
ATOM    125  C3  IDS d 504      24.452  26.039 111.110  0.00  0.00     0.094 C 
ATOM    126  H   IDS d 504      25.740  27.097 112.161  0.00  0.00     0.210 HD
ATOM    127  H   IDS d 504      24.824  24.360 108.085  0.00  0.00     0.133 H 
ATOM    128  H   IDS d 504      25.746  27.551 109.386  0.00  0.00     0.104 H 
ATOM    129  H   IDS d 504      24.084  28.145 111.016  0.00  0.00     0.092 H 
ATOM    130  H   IDS d 504      25.116  24.062 110.624  0.00  0.00     0.097 H 
ATOM    131  H   IDS d 504      23.794  25.794 111.918  0.00  0.00     0.091 H 
ENDROOT
TORSDOF 40
ENDMDL
MODEL 41
REMARK VINA RESULT:      -9.8      4.617     12.255
REMARK  0 active torsions:
REMARK  status: ('A' for Active; 'I' for Inactive)
REMARK       I    between atoms: C6_1  and  C5_82 
REMARK       I    between atoms: O2_4  and  C2_65 
REMARK       I    between atoms: O2_4  and  S_6 
REMARK       I    between atoms: S2_5  and  O6_13 
REMARK       I    between atoms: C6_7  and  C5_66 
REMARK       I    between atoms: C6_7  and  O6_11 
REMARK       I    between atoms: S_8  and  O2_37 
REMARK       I    between atoms: O6_11  and  S2_34 
REMARK       I    between atoms: O6_13  and  C6_16 
REMARK       I    between atoms: C6_16  and  C5_76 
REMARK       I    between atoms: O2S_17  and  S1_21 
REMARK       I    between atoms: O4_18  and  C4_33 
REMARK       I    between atoms: C4_19  and  O4_25 
REMARK       I    between atoms: O3_20  and  C3_57 
REMARK       I    between atoms: S1_21  and  N_56 
REMARK       I    between atoms: S1_21  and  O1S_55 
REMARK       I    between atoms: S1_21  and  O3S_68 
REMARK       I    between atoms: O3_24  and  C3_80 
REMARK       I    between atoms: O4_25  and  C1_53 
REMARK       I    between atoms: S1_26  and  N_59 
REMARK       I    between atoms: S1_26  and  O1S_42 
REMARK       I    between atoms: S1_26  and  O2S_29 
REMARK       I    between atoms: S1_26  and  O3S_87 
REMARK       I    between atoms: S_30  and  O2_54 
REMARK       I    between atoms: C3_31  and  O3_61 
REMARK       I    between atoms: O4_36  and  C4_70 
REMARK       I    between atoms: O4_36  and  C1_52 
REMARK       I    between atoms: O2_37  and  C2_45 
REMARK       I    between atoms: C4_38  and  O4_71 
REMARK       I    between atoms: C1_39  and  O1_51 
REMARK       I    between atoms: C1_40  and  O4_71 
REMARK       I    between atoms: C6_46  and  C5_84 
REMARK       I    between atoms: C6_47  and  C5_64 
REMARK       I    between atoms: C1_48  and  O4_77 
REMARK       I    between atoms: O3_50  and  C3_86 
REMARK       I    between atoms: O2_54  and  C2_79 
REMARK       I    between atoms: N_56  and  C2_67 
REMARK       I    between atoms: C2_58  and  N_59 
REMARK       I    between atoms: C3_62  and  O3_81 
REMARK       I    between atoms: C4_69  and  O4_77 
ROOT
ATOM      1  C6  IDS d 506      38.116  20.639 113.204  0.00  0.00     0.206 C 
ATOM      2  O62 IDS d 506      38.576  20.063 114.174  0.00  0.00    -0.646 OA
ATOM      3  S   IDS d 506      37.696  26.879 112.713  0.00  0.00     0.252 S 
ATOM      4  O1S IDS d 506      37.818  26.922 114.138  0.00  0.00    -0.572 OA
ATOM      5  O3S IDS d 506      36.588  27.664 112.212  0.00  0.00    -0.572 OA
ATOM      6  O4  IDS d 506      39.021  23.375 114.043  0.00  0.00    -0.390 OA
ATOM      7  O3  IDS d 506      35.654  23.870 115.157  0.00  0.00    -0.390 OA
ATOM      8  C4  IDS d 506      37.727  22.925 114.368  0.00  0.00     0.097 C 
ATOM      9  O2  IDS d 506      37.335  25.369 112.374  0.00  0.00    -0.244 OA
ATOM     10  C2  IDS d 506      36.316  24.565 112.937  0.00  0.00     0.134 C 
ATOM     11  C1  IDS d 506      36.028  23.364 112.024  0.00  0.00     0.161 C 
ATOM     12  O2S IDS d 506      38.945  27.193 112.078  0.00  0.00    -0.572 OA
ATOM     13  O5  IDS d 506      37.122  22.485 112.091  0.00  0.00    -0.340 OA
ATOM     14  O61 IDS d 506      38.346  20.172 112.097  0.00  0.00    -0.646 OA
ATOM     15  C3  IDS d 506      36.797  24.158 114.357  0.00  0.00     0.094 C 
ATOM     16  C5  IDS d 506      37.265  21.889 113.338  0.00  0.00     0.152 C 
ATOM     17  H   IDS d 506      39.310  24.030 114.697  0.00  0.00     0.210 HD
ATOM     18  H   IDS d 506      35.938  23.614 116.048  0.00  0.00     0.210 HD
ATOM     19  H   IDS d 506      37.710  22.458 115.330  0.00  0.00     0.091 H 
ATOM     20  H   IDS d 506      35.387  25.090 113.022  0.00  0.00     0.097 H 
ATOM     21  H   IDS d 506      35.127  22.876 112.332  0.00  0.00     0.133 H 
ATOM     22  H   IDS d 506      37.366  24.979 114.741  0.00  0.00     0.091 H 
ATOM     23  H   IDS d 506      36.330  21.541 113.724  0.00  0.00     0.104 H 
ATOM     24  O62 IDS d 502      22.000  22.722 112.838  0.00  0.00    -0.646 OA
ATOM     25  O2  IDS d 502      22.711  24.591 107.554  0.00  0.00    -0.244 OA
ATOM     26  S   IDS d 502      23.419  25.778 106.822  0.00  0.00     0.252 S 
ATOM     27  O3  IDS d 502      19.914  25.476 109.614  0.00  0.00    -0.390 OA
ATOM     28  O2S IDS d 502      24.813  25.694 107.191  0.00  0.00    -0.572 OA
ATOM     29  C4  IDS d 502      22.018  24.649 110.438  0.00  0.00     0.103 C 
ATOM     30  C1  IDS d 502      21.033  23.057 108.227  0.00  0.00     0.158 C 
ATOM     31  O61 IDS d 502      22.940  21.483 111.467  0.00  0.00    -0.646 OA
ATOM     32  C6  IDS d 502      22.206  22.418 111.679  0.00  0.00     0.206 C 
ATOM     33  O1  IDS d 502      19.646  22.966 108.415  0.00  0.00    -0.368 OA
ATOM     34  C3  IDS d 502      21.282  25.348 109.279  0.00  0.00     0.094 C 
ATOM     35  O3S IDS d 502      23.174  25.546 105.422  0.00  0.00    -0.572 OA
ATOM     36  O5  IDS d 502      21.761  22.527 109.307  0.00  0.00    -0.340 OA
ATOM     37  C2  IDS d 502      21.380  24.524 107.992  0.00  0.00     0.134 C 
ATOM     38  O4  IDS d 502      23.403  24.692 110.211  0.00  0.00    -0.348 OA
ATOM     39  O1S IDS d 502      22.804  26.992 107.284  0.00  0.00    -0.572 OA
ATOM     40  C5  IDS d 502      21.565  23.194 110.538  0.00  0.00     0.152 C 
ATOM     41  H   IDS d 502      19.828  25.995 110.429  0.00  0.00     0.210 HD
ATOM     42  H   IDS d 502      21.790  25.154 111.354  0.00  0.00     0.092 H 
ATOM     43  H   IDS d 502      21.311  22.467 107.379  0.00  0.00     0.133 H 
ATOM     44  H   IDS d 502      19.388  23.499 109.184  0.00  0.00     0.212 HD
ATOM     45  H   IDS d 502      21.734  26.305 109.120  0.00  0.00     0.091 H 
ATOM     46  H   IDS d 502      20.690  24.917 107.275  0.00  0.00     0.097 H 
ATOM     47  H   IDS d 502      20.520  23.230 110.765  0.00  0.00     0.104 H 
ATOM     48  S2  SGN d 505      36.593  25.978 106.941  0.00  0.00     0.251 S 
ATOM     49  O6  SGN d 505      35.829  24.984 107.803  0.00  0.00    -0.254 OA
ATOM     50  O5S SGN d 505      36.281  25.597 105.586  0.00  0.00    -0.572 OA
ATOM     51  C6  SGN d 505      34.775  25.254 108.663  0.00  0.00     0.067 C 
ATOM     52  O2S SGN d 505      34.643  18.341 107.531  0.00  0.00    -0.296 OA
ATOM     53  S1  SGN d 505      33.284  18.800 107.698  0.00  0.00     0.156 S 
ATOM     54  O6S SGN d 505      36.090  27.303 107.277  0.00  0.00    -0.572 OA
ATOM     55  O4  SGN d 505      35.912  23.811 110.717  0.00  0.00    -0.348 OA
ATOM     56  O5  SGN d 505      33.733  23.319 107.946  0.00  0.00    -0.349 OA
ATOM     57  O4S SGN d 505      37.978  25.797 107.311  0.00  0.00    -0.572 OA
ATOM     58  C1  SGN d 505      33.063  22.116 108.198  0.00  0.00     0.150 C 
ATOM     59  O1S SGN d 505      32.816  19.567 106.563  0.00  0.00    -0.296 OA
ATOM     60  N   SGN d 505      33.335  19.829 109.019  0.00  0.00    -0.210 NA
ATOM     61  C3  SGN d 505      34.634  21.731 110.125  0.00  0.00     0.083 C 
ATOM     62  C2  SGN d 505      34.018  21.132 108.845  0.00  0.00     0.081 C 
ATOM     63  O3S SGN d 505      32.416  17.730 108.040  0.00  0.00    -0.296 OA
ATOM     64  C4  SGN d 505      35.329  23.050 109.680  0.00  0.00     0.095 C 
ATOM     65  C5  SGN d 505      34.265  23.916 109.088  0.00  0.00     0.091 C 
ATOM     66  O3  SGN d 505      35.590  20.811 110.638  0.00  0.00    -0.391 OA
ATOM     67  H   SGN d 505      34.010  25.805 108.157  0.00  0.00     0.080 H 
ATOM     68  H   SGN d 505      35.083  25.848 109.498  0.00  0.00     0.080 H 
ATOM     69  H   SGN d 505      35.211  19.093 107.298  0.00  0.00     0.231 HD
ATOM     70  H   SGN d 505      32.720  21.696 107.275  0.00  0.00     0.131 H 
ATOM     71  H   SGN d 505      33.445  20.282 106.375  0.00  0.00     0.231 HD
ATOM     72  H   SGN d 505      33.811  19.334 109.774  0.00  0.00     0.140 HD
ATOM     73  H   SGN d 505      33.907  21.919 110.888  0.00  0.00     0.089 H 
ATOM     74  H   SGN d 505      34.859  20.941 108.212  0.00  0.00     0.076 H 
ATOM     75  H   SGN d 505      32.777  17.252 108.803  0.00  0.00     0.231 HD
ATOM     76  H   SGN d 505      36.120  22.763 109.019  0.00  0.00     0.091 H 
ATOM     77  H   SGN d 505      33.532  24.037 109.860  0.00  0.00     0.090 H 
ATOM     78  H   SGN d 505      36.257  20.627 109.959  0.00  0.00     0.210 HD
ATOM     79  C6  SGN d 503      25.881  21.819 111.777  0.00  0.00     0.067 C 
ATOM     80  O6  SGN d 503      26.539  22.167 112.976  0.00  0.00    -0.254 OA
ATOM     81  C4  SGN d 503      26.785  23.955 110.697  0.00  0.00     0.095 C 
ATOM     82  O5  SGN d 503      24.698  23.780 111.906  0.00  0.00    -0.349 OA
ATOM     83  O4  SGN d 503      27.553  23.272 109.760  0.00  0.00    -0.348 OA
ATOM     84  S1  SGN d 503      24.373  28.328 111.510  0.00  0.00     0.156 S 
ATOM     85  O4S SGN d 503      26.394  19.980 113.983  0.00  0.00    -0.572 OA
ATOM     86  O2S SGN d 503      25.487  28.557 112.429  0.00  0.00    -0.296 OA
ATOM     87  C3  SGN d 503      26.340  25.281 110.084  0.00  0.00     0.083 C 
ATOM     88  S2  SGN d 503      26.483  21.364 114.302  0.00  0.00     0.251 S 
ATOM     89  O5S SGN d 503      27.702  21.677 115.043  0.00  0.00    -0.572 OA
ATOM     90  C1  SGN d 503      24.177  24.960 111.348  0.00  0.00     0.150 C 
ATOM     91  O1S SGN d 503      23.194  27.835 112.196  0.00  0.00    -0.296 OA
ATOM     92  O6S SGN d 503      25.286  21.800 114.908  0.00  0.00    -0.572 OA
ATOM     93  C2  SGN d 503      25.327  25.922 111.015  0.00  0.00     0.081 C 
ATOM     94  N   SGN d 503      24.810  27.161 110.463  0.00  0.00    -0.210 NA
ATOM     95  O3  SGN d 503      27.477  26.114 109.963  0.00  0.00    -0.391 OA
ATOM     96  C5  SGN d 503      25.558  23.096 111.049  0.00  0.00     0.091 C 
ATOM     97  O3S SGN d 503      24.084  29.453 110.650  0.00  0.00    -0.296 OA
ATOM     98  H   SGN d 503      26.520  21.207 111.174  0.00  0.00     0.080 H 
ATOM     99  H   SGN d 503      24.988  21.268 111.984  0.00  0.00     0.080 H 
ATOM    100  H   SGN d 503      27.349  24.146 111.586  0.00  0.00     0.091 H 
ATOM    101  H   SGN d 503      25.625  27.765 112.973  0.00  0.00     0.231 HD
ATOM    102  H   SGN d 503      25.896  25.133 109.122  0.00  0.00     0.089 H 
ATOM    103  H   SGN d 503      23.531  25.421 112.066  0.00  0.00     0.131 H 
ATOM    104  H   SGN d 503      23.438  27.084 112.758  0.00  0.00     0.231 HD
ATOM    105  H   SGN d 503      25.840  26.150 111.926  0.00  0.00     0.076 H 
ATOM    106  H   SGN d 503      25.533  27.550 109.857  0.00  0.00     0.140 HD
ATOM    107  H   SGN d 503      27.877  26.246 110.837  0.00  0.00     0.210 HD
ATOM    108  H   SGN d 503      25.126  22.876 110.096  0.00  0.00     0.090 H 
ATOM    109  H   SGN d 503      23.338  29.233 110.070  0.00  0.00     0.231 HD
ATOM    110  O61 IDS d 504      31.833  25.433 110.323  0.00  0.00    -0.646 OA
ATOM    111  O62 IDS d 504      31.318  26.127 108.403  0.00  0.00    -0.646 OA
ATOM    112  O3S IDS d 504      28.224  19.130 110.830  0.00  0.00    -0.572 OA
ATOM    113  S   IDS d 504      29.619  19.155 110.598  0.00  0.00     0.252 S 
ATOM    114  C6  IDS d 504      31.186  25.286 109.294  0.00  0.00     0.206 C 
ATOM    115  O3  IDS d 504      28.809  22.419 107.197  0.00  0.00    -0.390 OA
ATOM    116  C1  IDS d 504      28.709  22.689 110.289  0.00  0.00     0.161 C 
ATOM    117  O2  IDS d 504      29.898  20.622 110.221  0.00  0.00    -0.244 OA
ATOM    118  C5  IDS d 504      30.254  24.076 109.112  0.00  0.00     0.152 C 
ATOM    119  C4  IDS d 504      30.842  22.921 108.303  0.00  0.00     0.103 C 
ATOM    120  O5  IDS d 504      29.803  23.608 110.363  0.00  0.00    -0.340 OA
ATOM    121  O4  IDS d 504      31.936  22.343 109.000  0.00  0.00    -0.348 OA
ATOM    122  C2  IDS d 504      29.058  21.477 109.448  0.00  0.00     0.134 C 
ATOM    123  O1S IDS d 504      29.983  18.377 109.471  0.00  0.00    -0.572 OA
ATOM    124  O2S IDS d 504      30.426  18.841 111.740  0.00  0.00    -0.572 OA
ATOM    125  C3  IDS d 504      29.766  21.867 108.093  0.00  0.00     0.094 C 
ATOM    126  H   IDS d 504      29.247  22.659 106.365  0.00  0.00     0.210 HD
ATOM    127  H   IDS d 504      28.516  22.390 111.298  0.00  0.00     0.133 H 
ATOM    128  H   IDS d 504      29.435  24.443 108.530  0.00  0.00     0.104 H 
ATOM    129  H   IDS d 504      31.187  23.289 107.359  0.00  0.00     0.092 H 
ATOM    130  H   IDS d 504      28.152  20.975 109.180  0.00  0.00     0.097 H 
ATOM    131  H   IDS d 504      30.208  20.976 107.701  0.00  0.00     0.091 H 
ENDROOT
TORSDOF 40
ENDMDL
MODEL 42
REMARK VINA RESULT:      -9.8      2.194      2.879
REMARK  0 active torsions:
REMARK  status: ('A' for Active; 'I' for Inactive)
REMARK       I    between atoms: C6_1  and  C5_82 
REMARK       I    between atoms: O2_4  and  C2_65 
REMARK       I    between atoms: O2_4  and  S_6 
REMARK       I    between atoms: S2_5  and  O6_13 
REMARK       I    between atoms: C6_7  and  C5_66 
REMARK       I    between atoms: C6_7  and  O6_11 
REMARK       I    between atoms: S_8  and  O2_37 
REMARK       I    between atoms: O6_11  and  S2_34 
REMARK       I    between atoms: O6_13  and  C6_16 
REMARK       I    between atoms: C6_16  and  C5_76 
REMARK       I    between atoms: O2S_17  and  S1_21 
REMARK       I    between atoms: O4_18  and  C4_33 
REMARK       I    between atoms: C4_19  and  O4_25 
REMARK       I    between atoms: O3_20  and  C3_57 
REMARK       I    between atoms: S1_21  and  N_56 
REMARK       I    between atoms: S1_21  and  O1S_55 
REMARK       I    between atoms: S1_21  and  O3S_68 
REMARK       I    between atoms: O3_24  and  C3_80 
REMARK       I    between atoms: O4_25  and  C1_53 
REMARK       I    between atoms: S1_26  and  N_59 
REMARK       I    between atoms: S1_26  and  O1S_42 
REMARK       I    between atoms: S1_26  and  O2S_29 
REMARK       I    between atoms: S1_26  and  O3S_87 
REMARK       I    between atoms: S_30  and  O2_54 
REMARK       I    between atoms: C3_31  and  O3_61 
REMARK       I    between atoms: O4_36  and  C4_70 
REMARK       I    between atoms: O4_36  and  C1_52 
REMARK       I    between atoms: O2_37  and  C2_45 
REMARK       I    between atoms: C4_38  and  O4_71 
REMARK       I    between atoms: C1_39  and  O1_51 
REMARK       I    between atoms: C1_40  and  O4_71 
REMARK       I    between atoms: C6_46  and  C5_84 
REMARK       I    between atoms: C6_47  and  C5_64 
REMARK       I    between atoms: C1_48  and  O4_77 
REMARK       I    between atoms: O3_50  and  C3_86 
REMARK       I    between atoms: O2_54  and  C2_79 
REMARK       I    between atoms: N_56  and  C2_67 
REMARK       I    between atoms: C2_58  and  N_59 
REMARK       I    between atoms: C3_62  and  O3_81 
REMARK       I    between atoms: C4_69  and  O4_77 
ROOT
ATOM      1  C6  IDS d 506      23.157  16.808 107.746  0.00  0.00     0.206 C 
ATOM      2  O62 IDS d 506      23.560  15.857 107.099  0.00  0.00    -0.646 OA
ATOM      3  S   IDS d 506      18.865  20.886 105.672  0.00  0.00     0.252 S 
ATOM      4  O1S IDS d 506      19.183  20.431 104.353  0.00  0.00    -0.572 OA
ATOM      5  O3S IDS d 506      18.870  22.328 105.793  0.00  0.00    -0.572 OA
ATOM      6  O4  IDS d 506      20.893  17.473 105.893  0.00  0.00    -0.390 OA
ATOM      7  O3  IDS d 506      23.033  20.044 104.611  0.00  0.00    -0.390 OA
ATOM      8  C4  IDS d 506      22.137  18.118 105.753  0.00  0.00     0.097 C 
ATOM      9  O2  IDS d 506      20.064  20.379 106.584  0.00  0.00    -0.244 OA
ATOM     10  C2  IDS d 506      21.453  20.541 106.375  0.00  0.00     0.134 C 
ATOM     11  C1  IDS d 506      22.215  20.313 107.688  0.00  0.00     0.161 C 
ATOM     12  O2S IDS d 506      17.654  20.282 106.149  0.00  0.00    -0.572 OA
ATOM     13  O5  IDS d 506      22.155  18.944 108.002  0.00  0.00    -0.340 OA
ATOM     14  O61 IDS d 506      23.009  16.660 108.952  0.00  0.00    -0.646 OA
ATOM     15  C3  IDS d 506      21.857  19.550 105.249  0.00  0.00     0.094 C 
ATOM     16  C5  IDS d 506      22.858  18.150 107.104  0.00  0.00     0.152 C 
ATOM     17  H   IDS d 506      20.440  17.455 105.035  0.00  0.00     0.210 HD
ATOM     18  H   IDS d 506      23.298  19.434 103.905  0.00  0.00     0.210 HD
ATOM     19  H   IDS d 506      22.766  17.598 105.060  0.00  0.00     0.091 H 
ATOM     20  H   IDS d 506      21.702  21.535 106.067  0.00  0.00     0.097 H 
ATOM     21  H   IDS d 506      23.229  20.637 107.587  0.00  0.00     0.133 H 
ATOM     22  H   IDS d 506      21.027  19.486 104.576  0.00  0.00     0.091 H 
ATOM     23  H   IDS d 506      23.819  18.561 106.874  0.00  0.00     0.104 H 
ATOM     24  O62 IDS d 502      31.898  30.488 106.944  0.00  0.00    -0.646 OA
ATOM     25  O2  IDS d 502      28.542  32.461 111.038  0.00  0.00    -0.244 OA
ATOM     26  S   IDS d 502      27.030  32.805 111.242  0.00  0.00     0.252 S 
ATOM     27  O3  IDS d 502      30.323  34.562 108.745  0.00  0.00    -0.390 OA
ATOM     28  O2S IDS d 502      26.307  31.586 110.964  0.00  0.00    -0.572 OA
ATOM     29  C4  IDS d 502      29.807  32.244 108.363  0.00  0.00     0.103 C 
ATOM     30  C1  IDS d 502      30.903  32.675 111.010  0.00  0.00     0.158 C 
ATOM     31  O61 IDS d 502      31.763  29.419 108.716  0.00  0.00    -0.646 OA
ATOM     32  C6  IDS d 502      31.635  30.467 108.131  0.00  0.00     0.206 C 
ATOM     33  O1  IDS d 502      31.912  33.636 110.849  0.00  0.00    -0.368 OA
ATOM     34  C3  IDS d 502      29.438  33.529 109.129  0.00  0.00     0.094 C 
ATOM     35  O3S IDS d 502      26.933  33.238 112.612  0.00  0.00    -0.572 OA
ATOM     36  O5  IDS d 502      31.135  31.516 110.249  0.00  0.00    -0.340 OA
ATOM     37  C2  IDS d 502      29.573  33.324 110.640  0.00  0.00     0.134 C 
ATOM     38  O4  IDS d 502      28.821  31.267 108.580  0.00  0.00    -0.348 OA
ATOM     39  O1S IDS d 502      26.703  33.856 110.319  0.00  0.00    -0.572 OA
ATOM     40  C5  IDS d 502      31.156  31.720 108.850  0.00  0.00     0.152 C 
ATOM     41  H   IDS d 502      30.255  34.709 107.789  0.00  0.00     0.210 HD
ATOM     42  H   IDS d 502      29.869  32.464 107.318  0.00  0.00     0.092 H 
ATOM     43  H   IDS d 502      30.889  32.350 112.029  0.00  0.00     0.133 H 
ATOM     44  H   IDS d 502      31.930  33.935 109.926  0.00  0.00     0.212 HD
ATOM     45  H   IDS d 502      28.424  33.780 108.896  0.00  0.00     0.091 H 
ATOM     46  H   IDS d 502      29.522  34.277 111.125  0.00  0.00     0.097 H 
ATOM     47  H   IDS d 502      31.868  32.481 108.609  0.00  0.00     0.104 H 
ATOM     48  S2  SGN d 505      18.485  22.776 111.296  0.00  0.00     0.251 S 
ATOM     49  O6  SGN d 505      19.935  22.551 110.894  0.00  0.00    -0.254 OA
ATOM     50  O5S SGN d 505      18.549  23.161 112.684  0.00  0.00    -0.572 OA
ATOM     51  C6  SGN d 505      20.676  23.283 109.979  0.00  0.00     0.067 C 
ATOM     52  O2S SGN d 505      25.312  19.679 113.799  0.00  0.00    -0.296 OA
ATOM     53  S1  SGN d 505      25.908  20.943 113.436  0.00  0.00     0.156 S 
ATOM     54  O6S SGN d 505      17.970  23.840 110.445  0.00  0.00    -0.572 OA
ATOM     55  O4  SGN d 505      21.582  21.015 108.702  0.00  0.00    -0.348 OA
ATOM     56  O5  SGN d 505      22.498  23.155 111.396  0.00  0.00    -0.349 OA
ATOM     57  O4S SGN d 505      17.836  21.507 111.056  0.00  0.00    -0.572 OA
ATOM     58  C1  SGN d 505      23.854  22.902 111.638  0.00  0.00     0.150 C 
ATOM     59  O1S SGN d 505      25.326  22.056 114.156  0.00  0.00    -0.296 OA
ATOM     60  N   SGN d 505      25.542  21.142 111.813  0.00  0.00    -0.210 NA
ATOM     61  C3  SGN d 505      23.696  20.949 110.059  0.00  0.00     0.083 C 
ATOM     62  C2  SGN d 505      24.131  21.422 111.460  0.00  0.00     0.081 C 
ATOM     63  O3S SGN d 505      27.323  20.895 113.539  0.00  0.00    -0.296 OA
ATOM     64  C4  SGN d 505      22.184  21.302 109.947  0.00  0.00     0.095 C 
ATOM     65  C5  SGN d 505      22.077  22.783 110.120  0.00  0.00     0.091 C 
ATOM     66  O3  SGN d 505      23.887  19.543 109.978  0.00  0.00    -0.391 OA
ATOM     67  H   SGN d 505      20.625  24.328 110.205  0.00  0.00     0.080 H 
ATOM     68  H   SGN d 505      20.308  23.166 108.981  0.00  0.00     0.080 H 
ATOM     69  H   SGN d 505      24.347  19.742 113.720  0.00  0.00     0.231 HD
ATOM     70  H   SGN d 505      24.095  23.172 112.645  0.00  0.00     0.131 H 
ATOM     71  H   SGN d 505      24.361  22.039 114.053  0.00  0.00     0.231 HD
ATOM     72  H   SGN d 505      25.814  20.285 111.331  0.00  0.00     0.140 HD
ATOM     73  H   SGN d 505      24.255  21.410 109.271  0.00  0.00     0.089 H 
ATOM     74  H   SGN d 505      23.538  20.838 112.132  0.00  0.00     0.076 H 
ATOM     75  H   SGN d 505      27.658  20.134 113.040  0.00  0.00     0.231 HD
ATOM     76  H   SGN d 505      21.683  20.708 110.682  0.00  0.00     0.091 H 
ATOM     77  H   SGN d 505      22.691  23.206 109.352  0.00  0.00     0.090 H 
ATOM     78  H   SGN d 505      23.387  19.107 110.685  0.00  0.00     0.210 HD
ATOM     79  C6  SGN d 503      29.733  27.272 108.351  0.00  0.00     0.067 C 
ATOM     80  O6  SGN d 503      29.424  26.644 107.126  0.00  0.00    -0.254 OA
ATOM     81  C4  SGN d 503      27.321  28.111 108.494  0.00  0.00     0.095 C 
ATOM     82  O5  SGN d 503      29.143  29.283 107.420  0.00  0.00    -0.349 OA
ATOM     83  O4  SGN d 503      27.032  27.379 109.640  0.00  0.00    -0.348 OA
ATOM     84  S1  SGN d 503      26.016  32.281 105.943  0.00  0.00     0.156 S 
ATOM     85  O4S SGN d 503      31.365  25.211 107.083  0.00  0.00    -0.572 OA
ATOM     86  O2S SGN d 503      25.415  31.309 105.030  0.00  0.00    -0.296 OA
ATOM     87  C3  SGN d 503      26.485  29.389 108.512  0.00  0.00     0.083 C 
ATOM     88  S2  SGN d 503      30.424  25.860 106.235  0.00  0.00     0.251 S 
ATOM     89  O5S SGN d 503      29.644  24.905 105.454  0.00  0.00    -0.572 OA
ATOM     90  C1  SGN d 503      28.475  30.520 107.445  0.00  0.00     0.150 C 
ATOM     91  O1S SGN d 503      27.325  32.714 105.492  0.00  0.00    -0.296 OA
ATOM     92  O6S SGN d 503      31.064  26.868 105.482  0.00  0.00    -0.572 OA
ATOM     93  C2  SGN d 503      26.959  30.286 107.383  0.00  0.00     0.081 C 
ATOM     94  N   SGN d 503      26.248  31.552 107.379  0.00  0.00    -0.210 NA
ATOM     95  O3  SGN d 503      25.131  29.032 108.308  0.00  0.00    -0.391 OA
ATOM     96  C5  SGN d 503      28.820  28.458 108.496  0.00  0.00     0.091 C 
ATOM     97  O3S SGN d 503      25.148  33.390 106.270  0.00  0.00    -0.296 OA
ATOM     98  H   SGN d 503      29.577  26.589 109.160  0.00  0.00     0.080 H 
ATOM     99  H   SGN d 503      30.758  27.581 108.367  0.00  0.00     0.080 H 
ATOM    100  H   SGN d 503      27.090  27.548 107.614  0.00  0.00     0.091 H 
ATOM    101  H   SGN d 503      26.049  30.596 104.854  0.00  0.00     0.231 HD
ATOM    102  H   SGN d 503      26.586  29.905 109.444  0.00  0.00     0.089 H 
ATOM    103  H   SGN d 503      28.778  31.089 106.591  0.00  0.00     0.131 H 
ATOM    104  H   SGN d 503      27.868  31.938 105.285  0.00  0.00     0.231 HD
ATOM    105  H   SGN d 503      26.741  29.777 106.468  0.00  0.00     0.076 H 
ATOM    106  H   SGN d 503      25.330  31.387 107.790  0.00  0.00     0.140 HD
ATOM    107  H   SGN d 503      25.043  28.565 107.463  0.00  0.00     0.210 HD
ATOM    108  H   SGN d 503      28.968  28.921 109.449  0.00  0.00     0.090 H 
ATOM    109  H   SGN d 503      25.609  33.992 106.876  0.00  0.00     0.231 HD
ATOM    110  O61 IDS d 504      22.931  25.195 108.334  0.00  0.00    -0.646 OA
ATOM    111  O62 IDS d 504      22.195  26.515 109.800  0.00  0.00    -0.646 OA
ATOM    112  O3S IDS d 504      29.852  24.169 110.344  0.00  0.00    -0.572 OA
ATOM    113  S   IDS d 504      28.871  23.176 110.572  0.00  0.00     0.252 S 
ATOM    114  C6  IDS d 504      23.142  25.886 109.322  0.00  0.00     0.206 C 
ATOM    115  O3  IDS d 504      26.065  26.615 112.353  0.00  0.00    -0.390 OA
ATOM    116  C1  IDS d 504      26.862  26.010 109.414  0.00  0.00     0.161 C 
ATOM    117  O2  IDS d 504      27.543  23.916 110.331  0.00  0.00    -0.244 OA
ATOM    118  C5  IDS d 504      24.540  25.948 109.960  0.00  0.00     0.152 C 
ATOM    119  C4  IDS d 504      24.738  25.046 111.176  0.00  0.00     0.103 C 
ATOM    120  O5  IDS d 504      25.533  25.683 108.995  0.00  0.00    -0.340 OA
ATOM    121  O4  IDS d 504      24.655  23.682 110.792  0.00  0.00    -0.348 OA
ATOM    122  C2  IDS d 504      27.244  25.267 110.678  0.00  0.00     0.134 C 
ATOM    123  O1S IDS d 504      28.852  22.750 111.924  0.00  0.00    -0.572 OA
ATOM    124  O2S IDS d 504      28.918  22.063 109.669  0.00  0.00    -0.572 OA
ATOM    125  C3  IDS d 504      26.110  25.317 111.773  0.00  0.00     0.094 C 
ATOM    126  H   IDS d 504      25.366  26.644 113.025  0.00  0.00     0.210 HD
ATOM    127  H   IDS d 504      27.499  25.711 108.607  0.00  0.00     0.133 H 
ATOM    128  H   IDS d 504      24.631  26.948 110.329  0.00  0.00     0.104 H 
ATOM    129  H   IDS d 504      23.975  25.251 111.898  0.00  0.00     0.092 H 
ATOM    130  H   IDS d 504      28.100  25.743 111.109  0.00  0.00     0.097 H 
ATOM    131  H   IDS d 504      26.340  24.566 112.500  0.00  0.00     0.091 H 
ENDROOT
TORSDOF 40
ENDMDL
MODEL 43
REMARK VINA RESULT:      -9.7      3.611      8.197
REMARK  0 active torsions:
REMARK  status: ('A' for Active; 'I' for Inactive)
REMARK       I    between atoms: C6_1  and  C5_82 
REMARK       I    between atoms: O2_4  and  C2_65 
REMARK       I    between atoms: O2_4  and  S_6 
REMARK       I    between atoms: S2_5  and  O6_13 
REMARK       I    between atoms: C6_7  and  C5_66 
REMARK       I    between atoms: C6_7  and  O6_11 
REMARK       I    between atoms: S_8  and  O2_37 
REMARK       I    between atoms: O6_11  and  S2_34 
REMARK       I    between atoms: O6_13  and  C6_16 
REMARK       I    between atoms: C6_16  and  C5_76 
REMARK       I    between atoms: O2S_17  and  S1_21 
REMARK       I    between atoms: O4_18  and  C4_33 
REMARK       I    between atoms: C4_19  and  O4_25 
REMARK       I    between atoms: O3_20  and  C3_57 
REMARK       I    between atoms: S1_21  and  N_56 
REMARK       I    between atoms: S1_21  and  O1S_55 
REMARK       I    between atoms: S1_21  and  O3S_68 
REMARK       I    between atoms: O3_24  and  C3_80 
REMARK       I    between atoms: O4_25  and  C1_53 
REMARK       I    between atoms: S1_26  and  N_59 
REMARK       I    between atoms: S1_26  and  O1S_42 
REMARK       I    between atoms: S1_26  and  O2S_29 
REMARK       I    between atoms: S1_26  and  O3S_87 
REMARK       I    between atoms: S_30  and  O2_54 
REMARK       I    between atoms: C3_31  and  O3_61 
REMARK       I    between atoms: O4_36  and  C4_70 
REMARK       I    between atoms: O4_36  and  C1_52 
REMARK       I    between atoms: O2_37  and  C2_45 
REMARK       I    between atoms: C4_38  and  O4_71 
REMARK       I    between atoms: C1_39  and  O1_51 
REMARK       I    between atoms: C1_40  and  O4_71 
REMARK       I    between atoms: C6_46  and  C5_84 
REMARK       I    between atoms: C6_47  and  C5_64 
REMARK       I    between atoms: C1_48  and  O4_77 
REMARK       I    between atoms: O3_50  and  C3_86 
REMARK       I    between atoms: O2_54  and  C2_79 
REMARK       I    between atoms: N_56  and  C2_67 
REMARK       I    between atoms: C2_58  and  N_59 
REMARK       I    between atoms: C3_62  and  O3_81 
REMARK       I    between atoms: C4_69  and  O4_77 
ROOT
ATOM      1  C6  IDS d 506      15.262  23.510 111.516  0.00  0.00     0.206 C 
ATOM      2  O62 IDS d 506      14.564  23.806 112.470  0.00  0.00    -0.646 OA
ATOM      3  S   IDS d 506      19.040  18.504 111.365  0.00  0.00     0.252 S 
ATOM      4  O1S IDS d 506      18.964  18.501 112.793  0.00  0.00    -0.572 OA
ATOM      5  O3S IDS d 506      20.395  18.422 110.865  0.00  0.00    -0.572 OA
ATOM      6  O4  IDS d 506      16.010  20.793 112.545  0.00  0.00    -0.390 OA
ATOM      7  O3  IDS d 506      19.099  22.302 113.549  0.00  0.00    -0.390 OA
ATOM      8  C4  IDS d 506      16.846  21.899 112.792  0.00  0.00     0.097 C 
ATOM      9  O2  IDS d 506      18.511  19.937 110.927  0.00  0.00    -0.244 OA
ATOM     10  C2  IDS d 506      18.922  21.205 111.400  0.00  0.00     0.134 C 
ATOM     11  C1  IDS d 506      18.501  22.300 110.410  0.00  0.00     0.161 C 
ATOM     12  O2S IDS d 506      18.167  17.514 110.800  0.00  0.00    -0.572 OA
ATOM     13  O5  IDS d 506      17.104  22.438 110.471  0.00  0.00    -0.340 OA
ATOM     14  O61 IDS d 506      14.810  23.696 110.395  0.00  0.00    -0.646 OA
ATOM     15  C3  IDS d 506      18.299  21.380 112.813  0.00  0.00     0.094 C 
ATOM     16  C5  IDS d 506      16.660  22.944 111.687  0.00  0.00     0.152 C 
ATOM     17  H   IDS d 506      16.131  20.133 113.247  0.00  0.00     0.210 HD
ATOM     18  H   IDS d 506      18.722  22.422 114.435  0.00  0.00     0.210 HD
ATOM     19  H   IDS d 506      16.606  22.365 113.725  0.00  0.00     0.091 H 
ATOM     20  H   IDS d 506      19.987  21.282 111.479  0.00  0.00     0.097 H 
ATOM     21  H   IDS d 506      18.986  23.222 110.653  0.00  0.00     0.133 H 
ATOM     22  H   IDS d 506      18.277  20.411 113.267  0.00  0.00     0.091 H 
ATOM     23  H   IDS d 506      17.251  23.774 112.014  0.00  0.00     0.104 H 
ATOM     24  O62 IDS d 502      29.873  30.577 110.619  0.00  0.00    -0.646 OA
ATOM     25  O2  IDS d 502      30.292  28.261 105.484  0.00  0.00    -0.244 OA
ATOM     26  S   IDS d 502      30.351  26.832 104.850  0.00  0.00     0.252 S 
ATOM     27  O3  IDS d 502      33.120  29.199 107.476  0.00  0.00    -0.390 OA
ATOM     28  O2S IDS d 502      29.140  26.164 105.269  0.00  0.00    -0.572 OA
ATOM     29  C4  IDS d 502      30.910  28.793 108.336  0.00  0.00     0.103 C 
ATOM     30  C1  IDS d 502      30.853  30.506 106.000  0.00  0.00     0.158 C 
ATOM     31  O61 IDS d 502      28.403  31.000 109.219  0.00  0.00    -0.646 OA
ATOM     32  C6  IDS d 502      29.530  30.637 109.455  0.00  0.00     0.206 C 
ATOM     33  O1  IDS d 502      31.963  31.354 106.126  0.00  0.00    -0.368 OA
ATOM     34  C3  IDS d 502      31.906  28.533 107.190  0.00  0.00     0.094 C 
ATOM     35  O3S IDS d 502      30.425  27.062 103.430  0.00  0.00    -0.572 OA
ATOM     36  O5  IDS d 502      29.957  30.624 107.076  0.00  0.00    -0.340 OA
ATOM     37  C2  IDS d 502      31.368  29.077 105.862  0.00  0.00     0.134 C 
ATOM     38  O4  IDS d 502      29.776  27.982 108.167  0.00  0.00    -0.348 OA
ATOM     39  O1S IDS d 502      31.532  26.189 105.355  0.00  0.00    -0.572 OA
ATOM     40  C5  IDS d 502      30.490  30.261 108.334  0.00  0.00     0.152 C 
ATOM     41  H   IDS d 502      33.479  28.870 108.315  0.00  0.00     0.210 HD
ATOM     42  H   IDS d 502      31.380  28.561 109.269  0.00  0.00     0.092 H 
ATOM     43  H   IDS d 502      30.295  30.786 105.131  0.00  0.00     0.133 H 
ATOM     44  H   IDS d 502      32.473  31.105 106.913  0.00  0.00     0.212 HD
ATOM     45  H   IDS d 502      32.053  27.477 107.104  0.00  0.00     0.091 H 
ATOM     46  H   IDS d 502      32.159  29.076 105.142  0.00  0.00     0.097 H 
ATOM     47  H   IDS d 502      31.383  30.820 108.521  0.00  0.00     0.104 H 
ATOM     48  S2  SGN d 505      19.452  19.457 105.511  0.00  0.00     0.251 S 
ATOM     49  O6  SGN d 505      19.546  20.764 106.283  0.00  0.00    -0.254 OA
ATOM     50  O5S SGN d 505      19.500  19.851 104.125  0.00  0.00    -0.572 OA
ATOM     51  C6  SGN d 505      20.577  21.176 107.114  0.00  0.00     0.067 C 
ATOM     52  O2S SGN d 505      16.888  26.933 105.586  0.00  0.00    -0.296 OA
ATOM     53  S1  SGN d 505      18.276  27.307 105.724  0.00  0.00     0.156 S 
ATOM     54  O6S SGN d 505      20.601  18.651 105.901  0.00  0.00    -0.572 OA
ATOM     55  O4  SGN d 505      18.840  21.900 109.127  0.00  0.00    -0.348 OA
ATOM     56  O5  SGN d 505      20.384  23.311 106.247  0.00  0.00    -0.349 OA
ATOM     57  O4S SGN d 505      18.196  18.875 105.926  0.00  0.00    -0.572 OA
ATOM     58  C1  SGN d 505      20.284  24.698 106.403  0.00  0.00     0.150 C 
ATOM     59  O1S SGN d 505      19.086  26.844 104.617  0.00  0.00    -0.296 OA
ATOM     60  N   SGN d 505      18.802  26.512 107.103  0.00  0.00    -0.210 NA
ATOM     61  C3  SGN d 505      18.764  24.293 108.366  0.00  0.00     0.083 C 
ATOM     62  C2  SGN d 505      18.947  25.040 107.031  0.00  0.00     0.081 C 
ATOM     63  O3S SGN d 505      18.415  28.698 105.969  0.00  0.00    -0.296 OA
ATOM     64  C4  SGN d 505      18.906  22.781 108.026  0.00  0.00     0.095 C 
ATOM     65  C5  SGN d 505      20.270  22.602 107.442  0.00  0.00     0.091 C 
ATOM     66  O3  SGN d 505      17.462  24.572 108.864  0.00  0.00    -0.391 OA
ATOM     67  H   SGN d 505      21.518  21.101 106.610  0.00  0.00     0.080 H 
ATOM     68  H   SGN d 505      20.649  20.571 107.993  0.00  0.00     0.080 H 
ATOM     69  H   SGN d 505      16.826  25.979 105.419  0.00  0.00     0.231 HD
ATOM     70  H   SGN d 505      20.337  25.172 105.444  0.00  0.00     0.131 H 
ATOM     71  H   SGN d 505      18.953  25.891 104.495  0.00  0.00     0.231 HD
ATOM     72  H   SGN d 505      18.134  26.718 107.847  0.00  0.00     0.140 HD
ATOM     73  H   SGN d 505      19.477  24.587 109.109  0.00  0.00     0.089 H 
ATOM     74  H   SGN d 505      18.138  24.694 106.422  0.00  0.00     0.076 H 
ATOM     75  H   SGN d 505      17.853  28.952 106.718  0.00  0.00     0.231 HD
ATOM     76  H   SGN d 505      18.086  22.541 107.382  0.00  0.00     0.091 H 
ATOM     77  H   SGN d 505      20.950  22.955 108.189  0.00  0.00     0.090 H 
ATOM     78  H   SGN d 505      16.801  24.312 108.204  0.00  0.00     0.210 HD
ATOM     79  C6  SGN d 503      26.130  29.129 109.666  0.00  0.00     0.067 C 
ATOM     80  O6  SGN d 503      25.775  28.562 110.908  0.00  0.00    -0.254 OA
ATOM     81  C4  SGN d 503      26.546  26.778 108.747  0.00  0.00     0.095 C 
ATOM     82  O5  SGN d 503      28.197  28.152 109.859  0.00  0.00    -0.349 OA
ATOM     83  O4  SGN d 503      25.527  26.861 107.805  0.00  0.00    -0.348 OA
ATOM     84  S1  SGN d 503      30.965  24.511 109.710  0.00  0.00     0.156 S 
ATOM     85  O4S SGN d 503      24.697  30.536 111.783  0.00  0.00    -0.572 OA
ATOM     86  O2S SGN d 503      30.162  23.774 110.685  0.00  0.00    -0.296 OA
ATOM     87  C3  SGN d 503      27.645  25.874 108.193  0.00  0.00     0.083 C 
ATOM     88  S2  SGN d 503      25.384  29.355 112.183  0.00  0.00     0.251 S 
ATOM     89  O5S SGN d 503      24.539  28.479 112.989  0.00  0.00    -0.572 OA
ATOM     90  C1  SGN d 503      29.279  27.414 109.348  0.00  0.00     0.150 C 
ATOM     91  O1S SGN d 503      31.682  25.615 110.318  0.00  0.00    -0.296 OA
ATOM     92  O6S SGN d 503      26.625  29.690 112.765  0.00  0.00    -0.572 OA
ATOM     93  C2  SGN d 503      28.845  25.960 109.118  0.00  0.00     0.081 C 
ATOM     94  N   SGN d 503      29.957  25.171 108.616  0.00  0.00    -0.210 NA
ATOM     95  O3  SGN d 503      27.151  24.548 108.165  0.00  0.00    -0.391 OA
ATOM     96  C5  SGN d 503      27.100  28.191 109.000  0.00  0.00     0.091 C 
ATOM     97  O3S SGN d 503      31.823  23.671 108.905  0.00  0.00    -0.296 OA
ATOM     98  H   SGN d 503      25.259  29.248 109.056  0.00  0.00     0.080 H 
ATOM     99  H   SGN d 503      26.574  30.093 109.805  0.00  0.00     0.080 H 
ATOM    100  H   SGN d 503      26.182  26.372 109.667  0.00  0.00     0.091 H 
ATOM    101  H   SGN d 503      29.614  24.396 111.187  0.00  0.00     0.231 HD
ATOM    102  H   SGN d 503      27.932  26.173 107.207  0.00  0.00     0.089 H 
ATOM    103  H   SGN d 503      30.074  27.434 110.065  0.00  0.00     0.131 H 
ATOM    104  H   SGN d 503      31.067  26.148 110.847  0.00  0.00     0.231 HD
ATOM    105  H   SGN d 503      28.544  25.552 110.060  0.00  0.00     0.076 H 
ATOM    106  H   SGN d 503      29.565  24.409 108.063  0.00  0.00     0.140 HD
ATOM    107  H   SGN d 503      26.892  24.280 109.061  0.00  0.00     0.210 HD
ATOM    108  H   SGN d 503      27.338  28.545 108.019  0.00  0.00     0.090 H 
ATOM    109  H   SGN d 503      32.324  24.223 108.283  0.00  0.00     0.231 HD
ATOM    110  O61 IDS d 504      23.139  22.755 108.662  0.00  0.00    -0.646 OA
ATOM    111  O62 IDS d 504      23.946  22.324 106.766  0.00  0.00    -0.646 OA
ATOM    112  O3S IDS d 504      22.694  30.022 108.663  0.00  0.00    -0.572 OA
ATOM    113  S   IDS d 504      21.541  29.220 108.489  0.00  0.00     0.252 S 
ATOM    114  C6  IDS d 504      23.596  23.160 107.601  0.00  0.00     0.206 C 
ATOM    115  O3  IDS d 504      24.002  26.706 105.250  0.00  0.00    -0.390 OA
ATOM    116  C1  IDS d 504      24.241  26.752 108.345  0.00  0.00     0.161 C 
ATOM    117  O2  IDS d 504      22.113  27.819 108.208  0.00  0.00    -0.244 OA
ATOM    118  C5  IDS d 504      23.709  24.667 107.313  0.00  0.00     0.152 C 
ATOM    119  C4  IDS d 504      22.582  25.251 106.464  0.00  0.00     0.103 C 
ATOM    120  O5  IDS d 504      23.832  25.391 108.516  0.00  0.00    -0.340 OA
ATOM    121  O4  IDS d 504      21.352  25.182 107.170  0.00  0.00    -0.348 OA
ATOM    122  C2  IDS d 504      23.282  27.512 107.451  0.00  0.00     0.134 C 
ATOM    123  O1S IDS d 504      20.807  29.592 107.335  0.00  0.00    -0.572 OA
ATOM    124  O2S IDS d 504      20.696  29.120 109.643  0.00  0.00    -0.572 OA
ATOM    125  C3  IDS d 504      22.902  26.704 106.151  0.00  0.00     0.094 C 
ATOM    126  H   IDS d 504      23.766  26.208 104.451  0.00  0.00     0.210 HD
ATOM    127  H   IDS d 504      24.241  27.177 109.327  0.00  0.00     0.133 H 
ATOM    128  H   IDS d 504      24.594  24.768 106.720  0.00  0.00     0.104 H 
ATOM    129  H   IDS d 504      22.494  24.689 105.557  0.00  0.00     0.092 H 
ATOM    130  H   IDS d 504      23.763  28.408 107.119  0.00  0.00     0.097 H 
ATOM    131  H   IDS d 504      22.042  27.178 105.726  0.00  0.00     0.091 H 
ENDROOT
TORSDOF 40
ENDMDL
MODEL 44
REMARK VINA RESULT:      -9.7      4.861     10.099
REMARK  0 active torsions:
REMARK  status: ('A' for Active; 'I' for Inactive)
REMARK       I    between atoms: C6_1  and  C5_82 
REMARK       I    between atoms: O2_4  and  C2_65 
REMARK       I    between atoms: O2_4  and  S_6 
REMARK       I    between atoms: S2_5  and  O6_13 
REMARK       I    between atoms: C6_7  and  C5_66 
REMARK       I    between atoms: C6_7  and  O6_11 
REMARK       I    between atoms: S_8  and  O2_37 
REMARK       I    between atoms: O6_11  and  S2_34 
REMARK       I    between atoms: O6_13  and  C6_16 
REMARK       I    between atoms: C6_16  and  C5_76 
REMARK       I    between atoms: O2S_17  and  S1_21 
REMARK       I    between atoms: O4_18  and  C4_33 
REMARK       I    between atoms: C4_19  and  O4_25 
REMARK       I    between atoms: O3_20  and  C3_57 
REMARK       I    between atoms: S1_21  and  N_56 
REMARK       I    between atoms: S1_21  and  O1S_55 
REMARK       I    between atoms: S1_21  and  O3S_68 
REMARK       I    between atoms: O3_24  and  C3_80 
REMARK       I    between atoms: O4_25  and  C1_53 
REMARK       I    between atoms: S1_26  and  N_59 
REMARK       I    between atoms: S1_26  and  O1S_42 
REMARK       I    between atoms: S1_26  and  O2S_29 
REMARK       I    between atoms: S1_26  and  O3S_87 
REMARK       I    between atoms: S_30  and  O2_54 
REMARK       I    between atoms: C3_31  and  O3_61 
REMARK       I    between atoms: O4_36  and  C4_70 
REMARK       I    between atoms: O4_36  and  C1_52 
REMARK       I    between atoms: O2_37  and  C2_45 
REMARK       I    between atoms: C4_38  and  O4_71 
REMARK       I    between atoms: C1_39  and  O1_51 
REMARK       I    between atoms: C1_40  and  O4_71 
REMARK       I    between atoms: C6_46  and  C5_84 
REMARK       I    between atoms: C6_47  and  C5_64 
REMARK       I    between atoms: C1_48  and  O4_77 
REMARK       I    between atoms: O3_50  and  C3_86 
REMARK       I    between atoms: O2_54  and  C2_79 
REMARK       I    between atoms: N_56  and  C2_67 
REMARK       I    between atoms: C2_58  and  N_59 
REMARK       I    between atoms: C3_62  and  O3_81 
REMARK       I    between atoms: C4_69  and  O4_77 
ROOT
ATOM      1  C6  IDS d 506      17.078  33.514 111.733  0.00  0.00     0.206 C 
ATOM      2  O62 IDS d 506      17.036  34.562 112.354  0.00  0.00    -0.646 OA
ATOM      3  S   IDS d 506      16.563  27.853 114.387  0.00  0.00     0.252 S 
ATOM      4  O1S IDS d 506      16.914  28.485 115.621  0.00  0.00    -0.572 OA
ATOM      5  O3S IDS d 506      17.341  26.663 114.114  0.00  0.00    -0.572 OA
ATOM      6  O4  IDS d 506      16.180  31.793 114.022  0.00  0.00    -0.390 OA
ATOM      7  O3  IDS d 506      19.642  30.970 114.429  0.00  0.00    -0.390 OA
ATOM      8  C4  IDS d 506      17.553  31.977 113.769  0.00  0.00     0.097 C 
ATOM      9  O2  IDS d 506      16.970  28.895 113.258  0.00  0.00    -0.244 OA
ATOM     10  C2  IDS d 506      18.205  29.562 113.086  0.00  0.00     0.134 C 
ATOM     11  C1  IDS d 506      18.318  30.103 111.654  0.00  0.00     0.161 C 
ATOM     12  O2S IDS d 506      15.147  27.635 114.303  0.00  0.00    -0.572 OA
ATOM     13  O5  IDS d 506      17.420  31.176 111.515  0.00  0.00    -0.340 OA
ATOM     14  O61 IDS d 506      16.552  33.480 110.629  0.00  0.00    -0.646 OA
ATOM     15  C3  IDS d 506      18.272  30.672 114.171  0.00  0.00     0.094 C 
ATOM     16  C5  IDS d 506      17.769  32.280 112.282  0.00  0.00     0.152 C 
ATOM     17  H   IDS d 506      16.048  31.602 114.964  0.00  0.00     0.210 HD
ATOM     18  H   IDS d 506      19.700  31.663 115.106  0.00  0.00     0.210 HD
ATOM     19  H   IDS d 506      17.943  32.802 114.329  0.00  0.00     0.091 H 
ATOM     20  H   IDS d 506      19.040  28.904 113.211  0.00  0.00     0.097 H 
ATOM     21  H   IDS d 506      19.321  30.418 111.456  0.00  0.00     0.133 H 
ATOM     22  H   IDS d 506      17.769  30.294 115.036  0.00  0.00     0.091 H 
ATOM     23  H   IDS d 506      18.814  32.500 112.214  0.00  0.00     0.104 H 
ATOM     24  O62 IDS d 502      31.798  27.276 108.798  0.00  0.00    -0.646 OA
ATOM     25  O2  IDS d 502      29.164  23.510 105.512  0.00  0.00    -0.244 OA
ATOM     26  S   IDS d 502      28.117  22.358 105.666  0.00  0.00     0.252 S 
ATOM     27  O3  IDS d 502      32.357  22.929 107.034  0.00  0.00    -0.390 OA
ATOM     28  O2S IDS d 502      26.944  22.966 106.249  0.00  0.00    -0.572 OA
ATOM     29  C4  IDS d 502      30.758  24.563 107.781  0.00  0.00     0.103 C 
ATOM     30  C1  IDS d 502      31.140  24.674 104.912  0.00  0.00     0.158 C 
ATOM     31  O61 IDS d 502      30.613  27.973 107.245  0.00  0.00    -0.646 OA
ATOM     32  C6  IDS d 502      31.258  27.074 107.727  0.00  0.00     0.206 C 
ATOM     33  O1  IDS d 502      32.512  24.466 104.705  0.00  0.00    -0.368 OA
ATOM     34  C3  IDS d 502      30.981  23.253 107.002  0.00  0.00     0.094 C 
ATOM     35  O3S IDS d 502      27.912  21.866 104.328  0.00  0.00    -0.572 OA
ATOM     36  O5  IDS d 502      30.879  25.803 105.708  0.00  0.00    -0.340 OA
ATOM     37  C2  IDS d 502      30.563  23.408 105.537  0.00  0.00     0.134 C 
ATOM     38  O4  IDS d 502      29.381  24.794 107.931  0.00  0.00    -0.348 OA
ATOM     39  O1S IDS d 502      28.700  21.364 106.524  0.00  0.00    -0.572 OA
ATOM     40  C5  IDS d 502      31.389  25.730 107.025  0.00  0.00     0.152 C 
ATOM     41  H   IDS d 502      32.645  22.826 107.954  0.00  0.00     0.210 HD
ATOM     42  H   IDS d 502      31.213  24.480 108.746  0.00  0.00     0.092 H 
ATOM     43  H   IDS d 502      30.671  24.873 103.971  0.00  0.00     0.133 H 
ATOM     44  H   IDS d 502      32.943  24.285 105.555  0.00  0.00     0.212 HD
ATOM     45  H   IDS d 502      30.391  22.485 107.458  0.00  0.00     0.091 H 
ATOM     46  H   IDS d 502      30.925  22.568 104.983  0.00  0.00     0.097 H 
ATOM     47  H   IDS d 502      32.438  25.522 106.993  0.00  0.00     0.104 H 
ATOM     48  S2  SGN d 505      15.798  25.751 108.878  0.00  0.00     0.251 S 
ATOM     49  O6  SGN d 505      16.916  26.782 108.917  0.00  0.00    -0.254 OA
ATOM     50  O5S SGN d 505      15.687  25.389 107.487  0.00  0.00    -0.572 OA
ATOM     51  C6  SGN d 505      18.154  26.655 109.528  0.00  0.00     0.067 C 
ATOM     52  O2S SGN d 505      18.731  32.018 105.058  0.00  0.00    -0.296 OA
ATOM     53  S1  SGN d 505      20.004  31.339 105.119  0.00  0.00     0.156 S 
ATOM     54  O6S SGN d 505      16.221  24.635 109.713  0.00  0.00    -0.572 OA
ATOM     55  O4  SGN d 505      17.941  29.107 110.766  0.00  0.00    -0.348 OA
ATOM     56  O5  SGN d 505      19.125  27.710 107.714  0.00  0.00    -0.349 OA
ATOM     57  O4S SGN d 505      14.644  26.441 109.411  0.00  0.00    -0.572 OA
ATOM     58  C1  SGN d 505      19.980  28.671 107.162  0.00  0.00     0.150 C 
ATOM     59  O1S SGN d 505      19.976  30.052 104.456  0.00  0.00    -0.296 OA
ATOM     60  N   SGN d 505      20.269  31.063 106.750  0.00  0.00    -0.210 NA
ATOM     61  C3  SGN d 505      19.191  30.279 108.929  0.00  0.00     0.083 C 
ATOM     62  C2  SGN d 505      19.416  30.055 107.421  0.00  0.00     0.081 C 
ATOM     63  O3S SGN d 505      21.058  32.174 104.663  0.00  0.00    -0.296 OA
ATOM     64  C4  SGN d 505      18.235  29.139 109.385  0.00  0.00     0.095 C 
ATOM     65  C5  SGN d 505      18.933  27.852 109.088  0.00  0.00     0.091 C 
ATOM     66  O3  SGN d 505      18.575  31.548 109.109  0.00  0.00    -0.391 OA
ATOM     67  H   SGN d 505      18.638  25.754 109.211  0.00  0.00     0.080 H 
ATOM     68  H   SGN d 505      18.071  26.602 110.594  0.00  0.00     0.080 H 
ATOM     69  H   SGN d 505      18.033  31.424 105.375  0.00  0.00     0.231 HD
ATOM     70  H   SGN d 505      20.046  28.526 106.103  0.00  0.00     0.131 H 
ATOM     71  H   SGN d 505      19.239  29.525 104.805  0.00  0.00     0.231 HD
ATOM     72  H   SGN d 505      20.133  31.951 107.236  0.00  0.00     0.140 HD
ATOM     73  H   SGN d 505      20.101  30.265 109.493  0.00  0.00     0.089 H 
ATOM     74  H   SGN d 505      18.443  30.159 106.990  0.00  0.00     0.076 H 
ATOM     75  H   SGN d 505      21.029  33.019 105.139  0.00  0.00     0.231 HD
ATOM     76  H   SGN d 505      17.311  29.300 108.871  0.00  0.00     0.091 H 
ATOM     77  H   SGN d 505      19.859  27.897 109.623  0.00  0.00     0.090 H 
ATOM     78  H   SGN d 505      17.748  31.580 108.604  0.00  0.00     0.210 HD
ATOM     79  C6  SGN d 503      27.921  28.608 108.346  0.00  0.00     0.067 C 
ATOM     80  O6  SGN d 503      27.659  29.021 109.670  0.00  0.00    -0.254 OA
ATOM     81  C4  SGN d 503      26.463  26.542 108.735  0.00  0.00     0.095 C 
ATOM     82  O5  SGN d 503      28.837  26.676 109.175  0.00  0.00    -0.349 OA
ATOM     83  O4  SGN d 503      25.516  26.912 107.787  0.00  0.00    -0.348 OA
ATOM     84  S1  SGN d 503      28.467  22.527 111.073  0.00  0.00     0.156 S 
ATOM     85  O4S SGN d 503      28.389  31.301 109.367  0.00  0.00    -0.572 OA
ATOM     86  O2S SGN d 503      27.700  23.039 112.208  0.00  0.00    -0.296 OA
ATOM     87  C3  SGN d 503      26.519  25.018 108.795  0.00  0.00     0.083 C 
ATOM     88  S2  SGN d 503      28.245  30.285 110.354  0.00  0.00     0.251 S 
ATOM     89  O5S SGN d 503      27.312  30.673 111.406  0.00  0.00    -0.572 OA
ATOM     90  C1  SGN d 503      29.000  25.279 109.189  0.00  0.00     0.150 C 
ATOM     91  O1S SGN d 503      29.856  22.940 111.124  0.00  0.00    -0.296 OA
ATOM     92  O6S SGN d 503      29.514  29.864 110.804  0.00  0.00    -0.572 OA
ATOM     93  C2  SGN d 503      27.698  24.616 109.662  0.00  0.00     0.081 C 
ATOM     94  N   SGN d 503      27.851  23.173 109.712  0.00  0.00    -0.210 NA
ATOM     95  O3  SGN d 503      25.314  24.555 109.376  0.00  0.00    -0.391 OA
ATOM     96  C5  SGN d 503      27.831  27.107 108.313  0.00  0.00     0.091 C 
ATOM     97  O3S SGN d 503      28.319  21.105 110.861  0.00  0.00    -0.296 OA
ATOM     98  H   SGN d 503      27.197  29.032 107.681  0.00  0.00     0.080 H 
ATOM     99  H   SGN d 503      28.892  28.934 108.035  0.00  0.00     0.080 H 
ATOM    100  H   SGN d 503      26.206  26.926 109.700  0.00  0.00     0.091 H 
ATOM    101  H   SGN d 503      27.845  23.995 112.291  0.00  0.00     0.231 HD
ATOM    102  H   SGN d 503      26.634  24.596 107.819  0.00  0.00     0.089 H 
ATOM    103  H   SGN d 503      29.786  25.034 109.872  0.00  0.00     0.131 H 
ATOM    104  H   SGN d 503      29.904  23.898 111.268  0.00  0.00     0.231 HD
ATOM    105  H   SGN d 503      27.491  24.965 110.652  0.00  0.00     0.076 H 
ATOM    106  H   SGN d 503      26.928  22.763 109.570  0.00  0.00     0.140 HD
ATOM    107  H   SGN d 503      25.213  24.939 110.261  0.00  0.00     0.210 HD
ATOM    108  H   SGN d 503      27.947  26.754 107.310  0.00  0.00     0.090 H 
ATOM    109  H   SGN d 503      28.853  20.835 110.097  0.00  0.00     0.231 HD
ATOM    110  O61 IDS d 504      21.436  26.459 110.326  0.00  0.00    -0.646 OA
ATOM    111  O62 IDS d 504      21.201  24.871 108.964  0.00  0.00    -0.646 OA
ATOM    112  O3S IDS d 504      25.737  31.107 106.734  0.00  0.00    -0.572 OA
ATOM    113  S   IDS d 504      24.350  31.353 106.872  0.00  0.00     0.252 S 
ATOM    114  C6  IDS d 504      21.720  25.952 109.248  0.00  0.00     0.206 C 
ATOM    115  O3  IDS d 504      23.596  26.831 105.511  0.00  0.00    -0.390 OA
ATOM    116  C1  IDS d 504      24.678  27.955 108.195  0.00  0.00     0.161 C 
ATOM    117  O2  IDS d 504      23.790  30.007 107.364  0.00  0.00    -0.244 OA
ATOM    118  C5  IDS d 504      22.677  26.656 108.272  0.00  0.00     0.152 C 
ATOM    119  C4  IDS d 504      21.997  27.438 107.149  0.00  0.00     0.103 C 
ATOM    120  O5  IDS d 504      23.568  27.494 108.972  0.00  0.00    -0.340 OA
ATOM    121  O4  IDS d 504      21.273  28.535 107.686  0.00  0.00    -0.348 OA
ATOM    122  C2  IDS d 504      24.219  28.707 106.962  0.00  0.00     0.134 C 
ATOM    123  O1S IDS d 504      23.731  31.613 105.624  0.00  0.00    -0.572 OA
ATOM    124  O2S IDS d 504      24.009  32.347 107.848  0.00  0.00    -0.572 OA
ATOM    125  C3  IDS d 504      23.062  27.958 106.195  0.00  0.00     0.094 C 
ATOM    126  H   IDS d 504      22.883  26.371 105.040  0.00  0.00     0.210 HD
ATOM    127  H   IDS d 504      25.228  28.609 108.839  0.00  0.00     0.133 H 
ATOM    128  H   IDS d 504      23.208  25.865 107.786  0.00  0.00     0.104 H 
ATOM    129  H   IDS d 504      21.319  26.794 106.629  0.00  0.00     0.092 H 
ATOM    130  H   IDS d 504      25.039  28.775 106.279  0.00  0.00     0.097 H 
ATOM    131  H   IDS d 504      22.625  28.662 105.519  0.00  0.00     0.091 H 
ENDROOT
TORSDOF 40
ENDMDL
MODEL 45
REMARK VINA RESULT:      -9.6      5.299     10.515
REMARK  0 active torsions:
REMARK  status: ('A' for Active; 'I' for Inactive)
REMARK       I    between atoms: C6_1  and  C5_82 
REMARK       I    between atoms: O2_4  and  C2_65 
REMARK       I    between atoms: O2_4  and  S_6 
REMARK       I    between atoms: S2_5  and  O6_13 
REMARK       I    between atoms: C6_7  and  C5_66 
REMARK       I    between atoms: C6_7  and  O6_11 
REMARK       I    between atoms: S_8  and  O2_37 
REMARK       I    between atoms: O6_11  and  S2_34 
REMARK       I    between atoms: O6_13  and  C6_16 
REMARK       I    between atoms: C6_16  and  C5_76 
REMARK       I    between atoms: O2S_17  and  S1_21 
REMARK       I    between atoms: O4_18  and  C4_33 
REMARK       I    between atoms: C4_19  and  O4_25 
REMARK       I    between atoms: O3_20  and  C3_57 
REMARK       I    between atoms: S1_21  and  N_56 
REMARK       I    between atoms: S1_21  and  O1S_55 
REMARK       I    between atoms: S1_21  and  O3S_68 
REMARK       I    between atoms: O3_24  and  C3_80 
REMARK       I    between atoms: O4_25  and  C1_53 
REMARK       I    between atoms: S1_26  and  N_59 
REMARK       I    between atoms: S1_26  and  O1S_42 
REMARK       I    between atoms: S1_26  and  O2S_29 
REMARK       I    between atoms: S1_26  and  O3S_87 
REMARK       I    between atoms: S_30  and  O2_54 
REMARK       I    between atoms: C3_31  and  O3_61 
REMARK       I    between atoms: O4_36  and  C4_70 
REMARK       I    between atoms: O4_36  and  C1_52 
REMARK       I    between atoms: O2_37  and  C2_45 
REMARK       I    between atoms: C4_38  and  O4_71 
REMARK       I    between atoms: C1_39  and  O1_51 
REMARK       I    between atoms: C1_40  and  O4_71 
REMARK       I    between atoms: C6_46  and  C5_84 
REMARK       I    between atoms: C6_47  and  C5_64 
REMARK       I    between atoms: C1_48  and  O4_77 
REMARK       I    between atoms: O3_50  and  C3_86 
REMARK       I    between atoms: O2_54  and  C2_79 
REMARK       I    between atoms: N_56  and  C2_67 
REMARK       I    between atoms: C2_58  and  N_59 
REMARK       I    between atoms: C3_62  and  O3_81 
REMARK       I    between atoms: C4_69  and  O4_77 
ROOT
ATOM      1  C6  IDS d 506      16.793  30.097 109.285  0.00  0.00     0.206 C 
ATOM      2  O62 IDS d 506      15.857  30.326 108.539  0.00  0.00    -0.646 OA
ATOM      3  S   IDS d 506      22.298  33.092 109.014  0.00  0.00     0.252 S 
ATOM      4  O1S IDS d 506      21.942  33.463 107.679  0.00  0.00    -0.572 OA
ATOM      5  O3S IDS d 506      23.628  32.530 109.114  0.00  0.00    -0.572 OA
ATOM      6  O4  IDS d 506      18.409  32.484 108.453  0.00  0.00    -0.390 OA
ATOM      7  O3  IDS d 506      20.273  30.197 106.423  0.00  0.00    -0.390 OA
ATOM      8  C4  IDS d 506      18.618  31.236 107.836  0.00  0.00     0.097 C 
ATOM      9  O2  IDS d 506      21.307  31.909 109.392  0.00  0.00    -0.244 OA
ATOM     10  C2  IDS d 506      21.026  30.733 108.658  0.00  0.00     0.134 C 
ATOM     11  C1  IDS d 506      20.387  29.679 109.574  0.00  0.00     0.161 C 
ATOM     12  O2S IDS d 506      22.071  34.174 109.929  0.00  0.00    -0.572 OA
ATOM     13  O5  IDS d 506      19.086  30.103 109.895  0.00  0.00    -0.340 OA
ATOM     14  O61 IDS d 506      16.544  29.836 110.454  0.00  0.00    -0.646 OA
ATOM     15  C3  IDS d 506      20.116  31.150 107.470  0.00  0.00     0.094 C 
ATOM     16  C5  IDS d 506      18.230  30.110 108.800  0.00  0.00     0.152 C 
ATOM     17  H   IDS d 506      18.656  33.194 107.839  0.00  0.00     0.210 HD
ATOM     18  H   IDS d 506      19.710  30.444 105.673  0.00  0.00     0.210 HD
ATOM     19  H   IDS d 506      18.017  31.133 106.956  0.00  0.00     0.091 H 
ATOM     20  H   IDS d 506      21.914  30.277 108.271  0.00  0.00     0.097 H 
ATOM     21  H   IDS d 506      20.368  28.728 109.084  0.00  0.00     0.133 H 
ATOM     22  H   IDS d 506      20.420  32.133 107.174  0.00  0.00     0.091 H 
ATOM     23  H   IDS d 506      18.327  29.222 108.212  0.00  0.00     0.104 H 
ATOM     24  O62 IDS d 502      26.789  17.999 105.052  0.00  0.00    -0.646 OA
ATOM     25  O2  IDS d 502      29.200  18.685 110.115  0.00  0.00    -0.244 OA
ATOM     26  S   IDS d 502      29.995  19.788 110.889  0.00  0.00     0.252 S 
ATOM     27  O3  IDS d 502      30.878  17.243 107.295  0.00  0.00    -0.390 OA
ATOM     28  O2S IDS d 502      29.131  20.946 110.922  0.00  0.00    -0.572 OA
ATOM     29  C4  IDS d 502      28.933  18.653 107.161  0.00  0.00     0.103 C 
ATOM     30  C1  IDS d 502      28.623  16.589 109.170  0.00  0.00     0.158 C 
ATOM     31  O61 IDS d 502      25.600  17.849 106.744  0.00  0.00    -0.646 OA
ATOM     32  C6  IDS d 502      26.699  17.799 106.248  0.00  0.00     0.206 C 
ATOM     33  O1  IDS d 502      29.208  15.438 108.623  0.00  0.00    -0.368 OA
ATOM     34  C3  IDS d 502      30.155  18.232 108.000  0.00  0.00     0.094 C 
ATOM     35  O3S IDS d 502      30.250  19.216 112.186  0.00  0.00    -0.572 OA
ATOM     36  O5  IDS d 502      27.564  17.081 108.387  0.00  0.00    -0.340 OA
ATOM     37  C2  IDS d 502      29.718  17.636 109.342  0.00  0.00     0.134 C 
ATOM     38  O4  IDS d 502      28.318  19.770 107.750  0.00  0.00    -0.348 OA
ATOM     39  O1S IDS d 502      31.207  20.032 110.158  0.00  0.00    -0.572 OA
ATOM     40  C5  IDS d 502      27.933  17.502 107.088  0.00  0.00     0.152 C 
ATOM     41  H   IDS d 502      31.165  17.599 106.440  0.00  0.00     0.210 HD
ATOM     42  H   IDS d 502      29.257  18.903 106.172  0.00  0.00     0.092 H 
ATOM     43  H   IDS d 502      28.188  16.344 110.116  0.00  0.00     0.133 H 
ATOM     44  H   IDS d 502      29.604  15.653 107.763  0.00  0.00     0.212 HD
ATOM     45  H   IDS d 502      30.756  19.100 108.179  0.00  0.00     0.091 H 
ATOM     46  H   IDS d 502      30.561  17.163 109.801  0.00  0.00     0.097 H 
ATOM     47  H   IDS d 502      28.441  16.706 106.584  0.00  0.00     0.104 H 
ATOM     48  S2  SGN d 505      23.444  30.690 114.330  0.00  0.00     0.251 S 
ATOM     49  O6  SGN d 505      22.807  29.670 113.398  0.00  0.00    -0.254 OA
ATOM     50  O5S SGN d 505      23.599  29.990 115.581  0.00  0.00    -0.572 OA
ATOM     51  C6  SGN d 505      23.368  29.106 112.262  0.00  0.00     0.067 C 
ATOM     52  O2S SGN d 505      17.959  25.008 114.004  0.00  0.00    -0.296 OA
ATOM     53  S1  SGN d 505      18.992  24.177 113.429  0.00  0.00     0.156 S 
ATOM     54  O6S SGN d 505      24.722  31.065 113.739  0.00  0.00    -0.572 OA
ATOM     55  O4  SGN d 505      21.118  29.602 110.749  0.00  0.00    -0.348 OA
ATOM     56  O5  SGN d 505      22.457  27.067 112.859  0.00  0.00    -0.349 OA
ATOM     57  O4S SGN d 505      22.504  31.788 114.371  0.00  0.00    -0.572 OA
ATOM     58  C1  SGN d 505      21.740  25.903 112.557  0.00  0.00     0.150 C 
ATOM     59  O1S SGN d 505      20.129  24.018 114.311  0.00  0.00    -0.296 OA
ATOM     60  N   SGN d 505      19.514  25.015 112.074  0.00  0.00    -0.210 NA
ATOM     61  C3  SGN d 505      20.178  27.312 111.178  0.00  0.00     0.083 C 
ATOM     62  C2  SGN d 505      20.289  26.258 112.296  0.00  0.00     0.081 C 
ATOM     63  O3S SGN d 505      18.465  22.940 112.973  0.00  0.00    -0.296 OA
ATOM     64  C4  SGN d 505      21.022  28.527 111.660  0.00  0.00     0.095 C 
ATOM     65  C5  SGN d 505      22.418  28.029 111.850  0.00  0.00     0.091 C 
ATOM     66  O3  SGN d 505      18.811  27.679 111.038  0.00  0.00    -0.391 OA
ATOM     67  H   SGN d 505      24.330  28.695 112.483  0.00  0.00     0.080 H 
ATOM     68  H   SGN d 505      23.512  29.829 111.486  0.00  0.00     0.080 H 
ATOM     69  H   SGN d 505      18.349  25.844 114.305  0.00  0.00     0.231 HD
ATOM     70  H   SGN d 505      21.779  25.231 113.389  0.00  0.00     0.131 H 
ATOM     71  H   SGN d 505      20.446  24.892 114.590  0.00  0.00     0.231 HD
ATOM     72  H   SGN d 505      18.687  25.263 111.530  0.00  0.00     0.140 HD
ATOM     73  H   SGN d 505      20.527  26.955 110.231  0.00  0.00     0.089 H 
ATOM     74  H   SGN d 505      19.850  26.730 113.149  0.00  0.00     0.076 H 
ATOM     75  H   SGN d 505      17.710  23.106 112.388  0.00  0.00     0.231 HD
ATOM     76  H   SGN d 505      20.535  28.901 112.536  0.00  0.00     0.091 H 
ATOM     77  H   SGN d 505      22.712  27.631 110.901  0.00  0.00     0.090 H 
ATOM     78  H   SGN d 505      18.476  28.005 111.887  0.00  0.00     0.210 HD
ATOM     79  C6  SGN d 503      24.314  20.492 107.212  0.00  0.00     0.067 C 
ATOM     80  O6  SGN d 503      23.992  21.430 106.208  0.00  0.00    -0.254 OA
ATOM     81  C4  SGN d 503      25.877  22.215 108.277  0.00  0.00     0.095 C 
ATOM     82  O5  SGN d 503      26.512  20.623 106.570  0.00  0.00    -0.349 OA
ATOM     83  O4  SGN d 503      25.137  22.305 109.450  0.00  0.00    -0.348 OA
ATOM     84  S1  SGN d 503      30.543  22.784 106.404  0.00  0.00     0.156 S 
ATOM     85  O4S SGN d 503      22.017  20.287 105.424  0.00  0.00    -0.572 OA
ATOM     86  O2S SGN d 503      29.955  23.981 105.804  0.00  0.00    -0.296 OA
ATOM     87  C3  SGN d 503      27.345  22.472 108.609  0.00  0.00     0.083 C 
ATOM     88  S2  SGN d 503      23.047  21.175 105.004  0.00  0.00     0.251 S 
ATOM     89  O5S SGN d 503      22.516  22.472 104.594  0.00  0.00    -0.572 OA
ATOM     90  C1  SGN d 503      27.885  20.748 106.844  0.00  0.00     0.150 C 
ATOM     91  O1S SGN d 503      30.574  21.669 105.477  0.00  0.00    -0.296 OA
ATOM     92  O6S SGN d 503      23.877  20.541 104.055  0.00  0.00    -0.572 OA
ATOM     93  C2  SGN d 503      28.176  22.158 107.379  0.00  0.00     0.081 C 
ATOM     94  N   SGN d 503      29.595  22.319 107.642  0.00  0.00    -0.210 NA
ATOM     95  O3  SGN d 503      27.487  23.838 108.950  0.00  0.00    -0.391 OA
ATOM     96  C5  SGN d 503      25.706  20.802 107.693  0.00  0.00     0.091 C 
ATOM     97  O3S SGN d 503      31.823  23.015 107.036  0.00  0.00    -0.296 OA
ATOM     98  H   SGN d 503      23.621  20.574 108.024  0.00  0.00     0.080 H 
ATOM     99  H   SGN d 503      24.262  19.495 106.827  0.00  0.00     0.080 H 
ATOM    100  H   SGN d 503      25.544  22.936 107.559  0.00  0.00     0.091 H 
ATOM    101  H   SGN d 503      29.102  23.754 105.400  0.00  0.00     0.231 HD
ATOM    102  H   SGN d 503      27.670  21.861 109.425  0.00  0.00     0.089 H 
ATOM    103  H   SGN d 503      28.430  20.597 105.936  0.00  0.00     0.131 H 
ATOM    104  H   SGN d 503      29.697  21.554 105.080  0.00  0.00     0.231 HD
ATOM    105  H   SGN d 503      27.894  22.861 106.623  0.00  0.00     0.076 H 
ATOM    106  H   SGN d 503      29.690  23.017 108.379  0.00  0.00     0.140 HD
ATOM    107  H   SGN d 503      27.192  24.389 108.209  0.00  0.00     0.210 HD
ATOM    108  H   SGN d 503      25.963  20.161 108.510  0.00  0.00     0.090 H 
ATOM    109  H   SGN d 503      32.153  22.184 107.411  0.00  0.00     0.231 HD
ATOM    110  O61 IDS d 504      24.627  27.088 109.856  0.00  0.00    -0.646 OA
ATOM    111  O62 IDS d 504      25.908  26.714 111.484  0.00  0.00    -0.646 OA
ATOM    112  O3S IDS d 504      21.111  20.767 109.024  0.00  0.00    -0.572 OA
ATOM    113  S   IDS d 504      20.477  21.881 109.622  0.00  0.00     0.252 S 
ATOM    114  C6  IDS d 504      25.071  26.299 110.680  0.00  0.00     0.206 C 
ATOM    115  O3  IDS d 504      24.383  22.417 112.330  0.00  0.00    -0.390 OA
ATOM    116  C1  IDS d 504      23.943  23.022 109.317  0.00  0.00     0.161 C 
ATOM    117  O2  IDS d 504      21.640  22.848 109.912  0.00  0.00    -0.244 OA
ATOM    118  C5  IDS d 504      24.582  24.842 110.723  0.00  0.00     0.152 C 
ATOM    119  C4  IDS d 504      23.512  24.548 111.773  0.00  0.00     0.103 C 
ATOM    120  O5  IDS d 504      24.134  24.434 109.450  0.00  0.00    -0.340 OA
ATOM    121  O4  IDS d 504      22.316  25.246 111.461  0.00  0.00    -0.348 OA
ATOM    122  C2  IDS d 504      22.955  22.496 110.338  0.00  0.00     0.134 C 
ATOM    123  O1S IDS d 504      19.907  21.555 110.878  0.00  0.00    -0.572 OA
ATOM    124  O2S IDS d 504      19.542  22.568 108.780  0.00  0.00    -0.572 OA
ATOM    125  C3  IDS d 504      23.232  23.053 111.787  0.00  0.00     0.094 C 
ATOM    126  H   IDS d 504      24.552  22.762 113.221  0.00  0.00     0.210 HD
ATOM    127  H   IDS d 504      23.560  22.876 108.328  0.00  0.00     0.133 H 
ATOM    128  H   IDS d 504      25.437  24.272 111.021  0.00  0.00     0.104 H 
ATOM    129  H   IDS d 504      23.860  24.867 112.733  0.00  0.00     0.092 H 
ATOM    130  H   IDS d 504      23.060  21.433 110.399  0.00  0.00     0.097 H 
ATOM    131  H   IDS d 504      22.358  22.857 112.373  0.00  0.00     0.091 H 
ENDROOT
TORSDOF 40
ENDMDL
MODEL 46
REMARK VINA RESULT:      -9.6      3.856      7.939
REMARK  0 active torsions:
REMARK  status: ('A' for Active; 'I' for Inactive)
REMARK       I    between atoms: C6_1  and  C5_82 
REMARK       I    between atoms: O2_4  and  C2_65 
REMARK       I    between atoms: O2_4  and  S_6 
REMARK       I    between atoms: S2_5  and  O6_13 
REMARK       I    between atoms: C6_7  and  C5_66 
REMARK       I    between atoms: C6_7  and  O6_11 
REMARK       I    between atoms: S_8  and  O2_37 
REMARK       I    between atoms: O6_11  and  S2_34 
REMARK       I    between atoms: O6_13  and  C6_16 
REMARK       I    between atoms: C6_16  and  C5_76 
REMARK       I    between atoms: O2S_17  and  S1_21 
REMARK       I    between atoms: O4_18  and  C4_33 
REMARK       I    between atoms: C4_19  and  O4_25 
REMARK       I    between atoms: O3_20  and  C3_57 
REMARK       I    between atoms: S1_21  and  N_56 
REMARK       I    between atoms: S1_21  and  O1S_55 
REMARK       I    between atoms: S1_21  and  O3S_68 
REMARK       I    between atoms: O3_24  and  C3_80 
REMARK       I    between atoms: O4_25  and  C1_53 
REMARK       I    between atoms: S1_26  and  N_59 
REMARK       I    between atoms: S1_26  and  O1S_42 
REMARK       I    between atoms: S1_26  and  O2S_29 
REMARK       I    between atoms: S1_26  and  O3S_87 
REMARK       I    between atoms: S_30  and  O2_54 
REMARK       I    between atoms: C3_31  and  O3_61 
REMARK       I    between atoms: O4_36  and  C4_70 
REMARK       I    between atoms: O4_36  and  C1_52 
REMARK       I    between atoms: O2_37  and  C2_45 
REMARK       I    between atoms: C4_38  and  O4_71 
REMARK       I    between atoms: C1_39  and  O1_51 
REMARK       I    between atoms: C1_40  and  O4_71 
REMARK       I    between atoms: C6_46  and  C5_84 
REMARK       I    between atoms: C6_47  and  C5_64 
REMARK       I    between atoms: C1_48  and  O4_77 
REMARK       I    between atoms: O3_50  and  C3_86 
REMARK       I    between atoms: O2_54  and  C2_79 
REMARK       I    between atoms: N_56  and  C2_67 
REMARK       I    between atoms: C2_58  and  N_59 
REMARK       I    between atoms: C3_62  and  O3_81 
REMARK       I    between atoms: C4_69  and  O4_77 
ROOT
ATOM      1  C6  IDS d 506      15.375  21.998 111.214  0.00  0.00     0.206 C 
ATOM      2  O62 IDS d 506      14.900  21.269 112.067  0.00  0.00    -0.646 OA
ATOM      3  S   IDS d 506      16.449  20.225 105.294  0.00  0.00     0.252 S 
ATOM      4  O1S IDS d 506      16.396  18.877 105.770  0.00  0.00    -0.572 OA
ATOM      5  O3S IDS d 506      17.613  20.496 104.476  0.00  0.00    -0.572 OA
ATOM      6  O4  IDS d 506      14.812  20.154 108.916  0.00  0.00    -0.390 OA
ATOM      7  O3  IDS d 506      18.260  19.214 109.154  0.00  0.00    -0.390 OA
ATOM      8  C4  IDS d 506      16.063  20.121 109.561  0.00  0.00     0.097 C 
ATOM      9  O2  IDS d 506      16.629  21.117 106.597  0.00  0.00    -0.244 OA
ATOM     10  C2  IDS d 506      17.578  20.969 107.635  0.00  0.00     0.134 C 
ATOM     11  C1  IDS d 506      17.693  22.275 108.434  0.00  0.00     0.161 C 
ATOM     12  O2S IDS d 506      15.215  20.599 104.664  0.00  0.00    -0.572 OA
ATOM     13  O5  IDS d 506      16.513  22.443 109.180  0.00  0.00    -0.340 OA
ATOM     14  O61 IDS d 506      15.046  23.177 111.219  0.00  0.00    -0.646 OA
ATOM     15  C3  IDS d 506      17.119  19.760 108.495  0.00  0.00     0.094 C 
ATOM     16  C5  IDS d 506      16.362  21.490 110.180  0.00  0.00     0.152 C 
ATOM     17  H   IDS d 506      14.626  19.285 108.526  0.00  0.00     0.210 HD
ATOM     18  H   IDS d 506      17.989  18.457 109.696  0.00  0.00     0.210 HD
ATOM     19  H   IDS d 506      16.072  19.398 110.351  0.00  0.00     0.091 H 
ATOM     20  H   IDS d 506      18.561  20.775 107.259  0.00  0.00     0.097 H 
ATOM     21  H   IDS d 506      18.548  22.241 109.076  0.00  0.00     0.133 H 
ATOM     22  H   IDS d 506      16.661  19.058 107.829  0.00  0.00     0.091 H 
ATOM     23  H   IDS d 506      17.271  21.334 110.724  0.00  0.00     0.104 H 
ATOM     24  O62 IDS d 502      31.590  22.897 110.517  0.00  0.00    -0.646 OA
ATOM     25  O2  IDS d 502      30.851  27.066 106.777  0.00  0.00    -0.244 OA
ATOM     26  S   IDS d 502      30.244  27.257 105.348  0.00  0.00     0.252 S 
ATOM     27  O3  IDS d 502      33.817  25.061 106.956  0.00  0.00    -0.390 OA
ATOM     28  O2S IDS d 502      28.867  26.832 105.445  0.00  0.00    -0.572 OA
ATOM     29  C4  IDS d 502      31.674  24.424 107.847  0.00  0.00     0.103 C 
ATOM     30  C1  IDS d 502      32.380  27.134 108.588  0.00  0.00     0.158 C 
ATOM     31  O61 IDS d 502      30.460  24.542 111.079  0.00  0.00    -0.646 OA
ATOM     32  C6  IDS d 502      31.300  24.066 110.354  0.00  0.00     0.206 C 
ATOM     33  O1  IDS d 502      33.756  27.106 108.859  0.00  0.00    -0.368 OA
ATOM     34  C3  IDS d 502      32.429  25.307 106.835  0.00  0.00     0.094 C 
ATOM     35  O3S IDS d 502      30.400  28.661 105.068  0.00  0.00    -0.572 OA
ATOM     36  O5  IDS d 502      31.648  26.265 109.415  0.00  0.00    -0.340 OA
ATOM     37  C2  IDS d 502      32.185  26.793 107.114  0.00  0.00     0.134 C 
ATOM     38  O4  IDS d 502      30.293  24.507 107.605  0.00  0.00    -0.348 OA
ATOM     39  O1S IDS d 502      31.007  26.439 104.448  0.00  0.00    -0.572 OA
ATOM     40  C5  IDS d 502      31.970  24.896 109.269  0.00  0.00     0.152 C 
ATOM     41  H   IDS d 502      33.995  24.123 106.783  0.00  0.00     0.210 HD
ATOM     42  H   IDS d 502      31.996  23.410 107.737  0.00  0.00     0.092 H 
ATOM     43  H   IDS d 502      32.003  28.113 108.797  0.00  0.00     0.133 H 
ATOM     44  H   IDS d 502      34.104  26.220 108.671  0.00  0.00     0.212 HD
ATOM     45  H   IDS d 502      32.077  25.071 105.852  0.00  0.00     0.091 H 
ATOM     46  H   IDS d 502      32.880  27.372 106.544  0.00  0.00     0.097 H 
ATOM     47  H   IDS d 502      33.022  24.758 109.408  0.00  0.00     0.104 H 
ATOM     48  S2  SGN d 505      17.188  26.001 104.091  0.00  0.00     0.251 S 
ATOM     49  O6  SGN d 505      17.877  25.623 105.394  0.00  0.00    -0.254 OA
ATOM     50  O5S SGN d 505      17.396  27.422 103.970  0.00  0.00    -0.572 OA
ATOM     51  C6  SGN d 505      18.992  24.813 105.551  0.00  0.00     0.067 C 
ATOM     52  O2S SGN d 505      18.321  28.382 111.542  0.00  0.00    -0.296 OA
ATOM     53  S1  SGN d 505      19.728  28.171 111.295  0.00  0.00     0.156 S 
ATOM     54  O6S SGN d 505      17.847  25.249 103.031  0.00  0.00    -0.572 OA
ATOM     55  O4  SGN d 505      17.798  23.336 107.548  0.00  0.00    -0.348 OA
ATOM     56  O5  SGN d 505      19.784  26.265 107.166  0.00  0.00    -0.349 OA
ATOM     57  O4S SGN d 505      15.809  25.610 104.278  0.00  0.00    -0.572 OA
ATOM     58  C1  SGN d 505      20.330  26.522 108.429  0.00  0.00     0.150 C 
ATOM     59  O1S SGN d 505      20.225  28.984 110.205  0.00  0.00    -0.296 OA
ATOM     60  N   SGN d 505      19.848  26.567 110.825  0.00  0.00    -0.210 NA
ATOM     61  C3  SGN d 505      18.814  24.745 109.364  0.00  0.00     0.083 C 
ATOM     62  C2  SGN d 505      19.303  26.200 109.497  0.00  0.00     0.081 C 
ATOM     63  O3S SGN d 505      20.489  28.312 112.485  0.00  0.00    -0.296 OA
ATOM     64  C4  SGN d 505      18.247  24.623 107.919  0.00  0.00     0.095 C 
ATOM     65  C5  SGN d 505      19.372  24.945 106.990  0.00  0.00     0.091 C 
ATOM     66  O3  SGN d 505      17.788  24.524 110.323  0.00  0.00    -0.391 OA
ATOM     67  H   SGN d 505      19.789  25.145 104.919  0.00  0.00     0.080 H 
ATOM     68  H   SGN d 505      18.788  23.797 105.283  0.00  0.00     0.080 H 
ATOM     69  H   SGN d 505      17.828  28.279 110.713  0.00  0.00     0.231 HD
ATOM     70  H   SGN d 505      20.584  27.559 108.506  0.00  0.00     0.131 H 
ATOM     71  H   SGN d 505      19.670  28.849 109.421  0.00  0.00     0.231 HD
ATOM     72  H   SGN d 505      19.356  26.007 111.522  0.00  0.00     0.140 HD
ATOM     73  H   SGN d 505      19.591  24.027 109.532  0.00  0.00     0.089 H 
ATOM     74  H   SGN d 505      18.420  26.789 109.369  0.00  0.00     0.076 H 
ATOM     75  H   SGN d 505      20.113  27.747 113.178  0.00  0.00     0.231 HD
ATOM     76  H   SGN d 505      17.401  25.276 107.874  0.00  0.00     0.091 H 
ATOM     77  H   SGN d 505      20.147  24.245 107.224  0.00  0.00     0.090 H 
ATOM     78  H   SGN d 505      17.075  25.166 110.186  0.00  0.00     0.210 HD
ATOM     79  C6  SGN d 503      27.590  23.893 110.633  0.00  0.00     0.067 C 
ATOM     80  O6  SGN d 503      27.028  22.600 110.697  0.00  0.00    -0.254 OA
ATOM     81  C4  SGN d 503      26.876  24.047 108.180  0.00  0.00     0.095 C 
ATOM     82  O5  SGN d 503      28.984  23.158 108.966  0.00  0.00    -0.349 OA
ATOM     83  O4  SGN d 503      25.997  25.101 108.402  0.00  0.00    -0.348 OA
ATOM     84  S1  SGN d 503      29.783  21.903 104.638  0.00  0.00     0.156 S 
ATOM     85  O4S SGN d 503      26.979  22.470 113.106  0.00  0.00    -0.572 OA
ATOM     86  O2S SGN d 503      28.743  20.876 104.671  0.00  0.00    -0.296 OA
ATOM     87  C3  SGN d 503      27.435  24.172 106.765  0.00  0.00     0.083 C 
ATOM     88  S2  SGN d 503      27.055  21.664 111.934  0.00  0.00     0.251 S 
ATOM     89  O5S SGN d 503      25.912  20.764 111.815  0.00  0.00    -0.572 OA
ATOM     90  C1  SGN d 503      29.605  23.291 107.711  0.00  0.00     0.150 C 
ATOM     91  O1S SGN d 503      30.932  21.541 105.447  0.00  0.00    -0.296 OA
ATOM     92  O6S SGN d 503      28.319  21.041 111.856  0.00  0.00    -0.572 OA
ATOM     93  C2  SGN d 503      28.552  23.157 106.601  0.00  0.00     0.081 C 
ATOM     94  N   SGN d 503      29.176  23.263 105.294  0.00  0.00    -0.210 NA
ATOM     95  O3  SGN d 503      26.391  23.889 105.853  0.00  0.00    -0.391 OA
ATOM     96  C5  SGN d 503      28.017  24.132 109.210  0.00  0.00     0.091 C 
ATOM     97  O3S SGN d 503      30.155  22.317 103.303  0.00  0.00    -0.296 OA
ATOM     98  H   SGN d 503      26.862  24.622 110.923  0.00  0.00     0.080 H 
ATOM     99  H   SGN d 503      28.426  23.973 111.295  0.00  0.00     0.080 H 
ATOM    100  H   SGN d 503      26.377  23.107 108.284  0.00  0.00     0.091 H 
ATOM    101  H   SGN d 503      28.544  20.647 105.592  0.00  0.00     0.231 HD
ATOM    102  H   SGN d 503      27.816  25.154 106.584  0.00  0.00     0.089 H 
ATOM    103  H   SGN d 503      30.329  22.510 107.604  0.00  0.00     0.131 H 
ATOM    104  H   SGN d 503      30.633  21.272 106.329  0.00  0.00     0.231 HD
ATOM    105  H   SGN d 503      28.108  22.187 106.683  0.00  0.00     0.076 H 
ATOM    106  H   SGN d 503      28.473  23.625 104.650  0.00  0.00     0.140 HD
ATOM    107  H   SGN d 503      26.048  22.997 106.020  0.00  0.00     0.210 HD
ATOM    108  H   SGN d 503      28.380  25.132 109.098  0.00  0.00     0.090 H 
ATOM    109  H   SGN d 503      30.846  22.996 103.356  0.00  0.00     0.231 HD
ATOM    110  O61 IDS d 504      22.007  23.447 106.247  0.00  0.00    -0.646 OA
ATOM    111  O62 IDS d 504      22.508  25.019 104.940  0.00  0.00    -0.646 OA
ATOM    112  O3S IDS d 504      24.929  25.556 112.574  0.00  0.00    -0.572 OA
ATOM    113  S   IDS d 504      23.535  25.648 112.346  0.00  0.00     0.252 S 
ATOM    114  C6  IDS d 504      22.588  24.508 106.059  0.00  0.00     0.206 C 
ATOM    115  O3  IDS d 504      24.543  27.688 108.139  0.00  0.00    -0.390 OA
ATOM    116  C1  IDS d 504      24.810  24.728 109.039  0.00  0.00     0.161 C 
ATOM    117  O2  IDS d 504      23.401  25.444 110.826  0.00  0.00    -0.244 OA
ATOM    118  C5  IDS d 504      23.373  25.192 107.190  0.00  0.00     0.152 C 
ATOM    119  C4  IDS d 504      22.628  26.314 107.910  0.00  0.00     0.103 C 
ATOM    120  O5  IDS d 504      23.826  24.237 108.123  0.00  0.00    -0.340 OA
ATOM    121  O4  IDS d 504      21.510  25.787 108.610  0.00  0.00    -0.348 OA
ATOM    122  C2  IDS d 504      24.294  25.920 109.821  0.00  0.00     0.134 C 
ATOM    123  O1S IDS d 504      23.039  26.947 112.621  0.00  0.00    -0.572 OA
ATOM    124  O2S IDS d 504      22.751  24.636 112.991  0.00  0.00    -0.572 OA
ATOM    125  C3  IDS d 504      23.573  26.978 108.900  0.00  0.00     0.094 C 
ATOM    126  H   IDS d 504      24.097  28.338 107.573  0.00  0.00     0.210 HD
ATOM    127  H   IDS d 504      25.014  23.916 109.704  0.00  0.00     0.133 H 
ATOM    128  H   IDS d 504      24.201  25.665 106.705  0.00  0.00     0.104 H 
ATOM    129  H   IDS d 504      22.283  27.028 107.192  0.00  0.00     0.092 H 
ATOM    130  H   IDS d 504      25.127  26.424 110.264  0.00  0.00     0.097 H 
ATOM    131  H   IDS d 504      23.019  27.630 109.543  0.00  0.00     0.091 H 
ENDROOT
TORSDOF 40
ENDMDL
MODEL 47
REMARK VINA RESULT:      -9.5      4.908     10.620
REMARK  0 active torsions:
REMARK  status: ('A' for Active; 'I' for Inactive)
REMARK       I    between atoms: C6_1  and  C5_82 
REMARK       I    between atoms: O2_4  and  C2_65 
REMARK       I    between atoms: O2_4  and  S_6 
REMARK       I    between atoms: S2_5  and  O6_13 
REMARK       I    between atoms: C6_7  and  C5_66 
REMARK       I    between atoms: C6_7  and  O6_11 
REMARK       I    between atoms: S_8  and  O2_37 
REMARK       I    between atoms: O6_11  and  S2_34 
REMARK       I    between atoms: O6_13  and  C6_16 
REMARK       I    between atoms: C6_16  and  C5_76 
REMARK       I    between atoms: O2S_17  and  S1_21 
REMARK       I    between atoms: O4_18  and  C4_33 
REMARK       I    between atoms: C4_19  and  O4_25 
REMARK       I    between atoms: O3_20  and  C3_57 
REMARK       I    between atoms: S1_21  and  N_56 
REMARK       I    between atoms: S1_21  and  O1S_55 
REMARK       I    between atoms: S1_21  and  O3S_68 
REMARK       I    between atoms: O3_24  and  C3_80 
REMARK       I    between atoms: O4_25  and  C1_53 
REMARK       I    between atoms: S1_26  and  N_59 
REMARK       I    between atoms: S1_26  and  O1S_42 
REMARK       I    between atoms: S1_26  and  O2S_29 
REMARK       I    between atoms: S1_26  and  O3S_87 
REMARK       I    between atoms: S_30  and  O2_54 
REMARK       I    between atoms: C3_31  and  O3_61 
REMARK       I    between atoms: O4_36  and  C4_70 
REMARK       I    between atoms: O4_36  and  C1_52 
REMARK       I    between atoms: O2_37  and  C2_45 
REMARK       I    between atoms: C4_38  and  O4_71 
REMARK       I    between atoms: C1_39  and  O1_51 
REMARK       I    between atoms: C1_40  and  O4_71 
REMARK       I    between atoms: C6_46  and  C5_84 
REMARK       I    between atoms: C6_47  and  C5_64 
REMARK       I    between atoms: C1_48  and  O4_77 
REMARK       I    between atoms: O3_50  and  C3_86 
REMARK       I    between atoms: O2_54  and  C2_79 
REMARK       I    between atoms: N_56  and  C2_67 
REMARK       I    between atoms: C2_58  and  N_59 
REMARK       I    between atoms: C3_62  and  O3_81 
REMARK       I    between atoms: C4_69  and  O4_77 
ROOT
ATOM      1  C6  IDS d 506      17.588  33.288 111.604  0.00  0.00     0.206 C 
ATOM      2  O62 IDS d 506      17.740  34.437 111.982  0.00  0.00    -0.646 OA
ATOM      3  S   IDS d 506      17.327  28.344 115.456  0.00  0.00     0.252 S 
ATOM      4  O1S IDS d 506      17.969  29.169 116.433  0.00  0.00    -0.572 OA
ATOM      5  O3S IDS d 506      17.960  27.052 115.297  0.00  0.00    -0.572 OA
ATOM      6  O4  IDS d 506      17.102  32.153 114.339  0.00  0.00    -0.390 OA
ATOM      7  O3  IDS d 506      20.518  31.083 114.225  0.00  0.00    -0.390 OA
ATOM      8  C4  IDS d 506      18.397  32.145 113.787  0.00  0.00     0.097 C 
ATOM      9  O2  IDS d 506      17.543  29.097 114.074  0.00  0.00    -0.244 OA
ATOM     10  C2  IDS d 506      18.750  29.589 113.523  0.00  0.00     0.134 C 
ATOM     11  C1  IDS d 506      18.585  29.822 112.015  0.00  0.00     0.161 C 
ATOM     12  O2S IDS d 506      15.915  28.257 115.701  0.00  0.00    -0.572 OA
ATOM     13  O5  IDS d 506      17.741  30.930 111.828  0.00  0.00    -0.340 OA
ATOM     14  O61 IDS d 506      16.838  33.090 110.658  0.00  0.00    -0.646 OA
ATOM     15  C3  IDS d 506      19.110  30.879 114.310  0.00  0.00     0.094 C 
ATOM     16  C5  IDS d 506      18.309  32.124 112.258  0.00  0.00     0.152 C 
ATOM     17  H   IDS d 506      17.162  32.166 115.307  0.00  0.00     0.210 HD
ATOM     18  H   IDS d 506      20.758  31.887 114.712  0.00  0.00     0.210 HD
ATOM     19  H   IDS d 506      18.944  33.020 114.070  0.00  0.00     0.091 H 
ATOM     20  H   IDS d 506      19.553  28.888 113.619  0.00  0.00     0.097 H 
ATOM     21  H   IDS d 506      19.539  29.989 111.561  0.00  0.00     0.133 H 
ATOM     22  H   IDS d 506      18.782  30.732 115.318  0.00  0.00     0.091 H 
ATOM     23  H   IDS d 506      19.326  32.220 111.939  0.00  0.00     0.104 H 
ATOM     24  O62 IDS d 502      30.963  25.148 107.239  0.00  0.00    -0.646 OA
ATOM     25  O2  IDS d 502      27.478  21.090 105.419  0.00  0.00    -0.244 OA
ATOM     26  S   IDS d 502      26.424  20.102 106.019  0.00  0.00     0.252 S 
ATOM     27  O3  IDS d 502      30.883  20.504 106.372  0.00  0.00    -0.390 OA
ATOM     28  O2S IDS d 502      25.438  20.929 106.677  0.00  0.00    -0.572 OA
ATOM     29  C4  IDS d 502      29.577  22.406 107.052  0.00  0.00     0.103 C 
ATOM     30  C1  IDS d 502      29.344  21.908 104.208  0.00  0.00     0.158 C 
ATOM     31  O61 IDS d 502      29.516  25.639 105.837  0.00  0.00    -0.646 OA
ATOM     32  C6  IDS d 502      30.197  24.793 106.364  0.00  0.00     0.206 C 
ATOM     33  O1  IDS d 502      30.626  21.526 103.784  0.00  0.00    -0.368 OA
ATOM     34  C3  IDS d 502      29.553  20.952 106.543  0.00  0.00     0.094 C 
ATOM     35  O3S IDS d 502      25.911  19.379 104.884  0.00  0.00    -0.572 OA
ATOM     36  O5  IDS d 502      29.324  23.192 104.779  0.00  0.00    -0.340 OA
ATOM     37  C2  IDS d 502      28.842  20.856 105.191  0.00  0.00     0.134 C 
ATOM     38  O4  IDS d 502      28.278  22.799 107.416  0.00  0.00    -0.348 OA
ATOM     39  O1S IDS d 502      27.119  19.244 106.938  0.00  0.00    -0.572 OA
ATOM     40  C5  IDS d 502      30.098  23.331 105.954  0.00  0.00     0.152 C 
ATOM     41  H   IDS d 502      31.354  20.557 107.219  0.00  0.00     0.210 HD
ATOM     42  H   IDS d 502      30.222  22.470 107.903  0.00  0.00     0.092 H 
ATOM     43  H   IDS d 502      28.698  21.964 103.357  0.00  0.00     0.133 H 
ATOM     44  H   IDS d 502      31.218  21.475 104.552  0.00  0.00     0.212 HD
ATOM     45  H   IDS d 502      29.031  20.353 107.260  0.00  0.00     0.091 H 
ATOM     46  H   IDS d 502      29.029  19.891 104.769  0.00  0.00     0.097 H 
ATOM     47  H   IDS d 502      31.102  23.017 105.762  0.00  0.00     0.104 H 
ATOM     48  S2  SGN d 505      15.287  25.283 110.786  0.00  0.00     0.251 S 
ATOM     49  O6  SGN d 505      16.445  26.184 110.383  0.00  0.00    -0.254 OA
ATOM     50  O5S SGN d 505      14.862  24.666 109.554  0.00  0.00    -0.572 OA
ATOM     51  C6  SGN d 505      17.776  26.056 110.752  0.00  0.00     0.067 C 
ATOM     52  O2S SGN d 505      17.692  30.344 105.212  0.00  0.00    -0.296 OA
ATOM     53  S1  SGN d 505      18.908  29.566 105.166  0.00  0.00     0.156 S 
ATOM     54  O6S SGN d 505      15.813  24.317 111.741  0.00  0.00    -0.572 OA
ATOM     55  O4  SGN d 505      17.971  28.713 111.453  0.00  0.00    -0.348 OA
ATOM     56  O5  SGN d 505      18.396  26.628 108.599  0.00  0.00    -0.349 OA
ATOM     57  O4S SGN d 505      14.315  26.176 111.375  0.00  0.00    -0.572 OA
ATOM     58  C1  SGN d 505      19.167  27.371 107.697  0.00  0.00     0.150 C 
ATOM     59  O1S SGN d 505      18.666  28.183 104.813  0.00  0.00    -0.296 OA
ATOM     60  N   SGN d 505      19.498  29.593 106.734  0.00  0.00    -0.210 NA
ATOM     61  C3  SGN d 505      18.866  29.368 109.198  0.00  0.00     0.083 C 
ATOM     62  C2  SGN d 505      18.752  28.828 107.759  0.00  0.00     0.081 C 
ATOM     63  O3S SGN d 505      19.887  30.185 104.344  0.00  0.00    -0.296 OA
ATOM     64  C4  SGN d 505      17.966  28.442 110.067  0.00  0.00     0.095 C 
ATOM     65  C5  SGN d 505      18.510  27.058 109.921  0.00  0.00     0.091 C 
ATOM     66  O3  SGN d 505      18.377  30.702 109.220  0.00  0.00    -0.391 OA
ATOM     67  H   SGN d 505      18.128  25.067 110.546  0.00  0.00     0.080 H 
ATOM     68  H   SGN d 505      17.918  26.223 111.799  0.00  0.00     0.080 H 
ATOM     69  H   SGN d 505      17.045  29.897 105.780  0.00  0.00     0.231 HD
ATOM     70  H   SGN d 505      18.998  27.014 106.702  0.00  0.00     0.131 H 
ATOM     71  H   SGN d 505      17.991  27.812 105.404  0.00  0.00     0.231 HD
ATOM     72  H   SGN d 505      19.520  30.568 107.035  0.00  0.00     0.140 HD
ATOM     73  H   SGN d 505      19.873  29.374 109.562  0.00  0.00     0.089 H 
ATOM     74  H   SGN d 505      17.717  28.942 107.515  0.00  0.00     0.076 H 
ATOM     75  H   SGN d 505      20.008  31.106 104.624  0.00  0.00     0.231 HD
ATOM     76  H   SGN d 505      16.964  28.590 109.722  0.00  0.00     0.091 H 
ATOM     77  H   SGN d 505      19.529  27.115 110.242  0.00  0.00     0.090 H 
ATOM     78  H   SGN d 505      17.464  30.717 108.892  0.00  0.00     0.210 HD
ATOM     79  C6  SGN d 503      27.161  26.747 107.283  0.00  0.00     0.067 C 
ATOM     80  O6  SGN d 503      27.212  27.437 108.512  0.00  0.00    -0.254 OA
ATOM     81  C4  SGN d 503      25.704  24.955 108.385  0.00  0.00     0.095 C 
ATOM     82  O5  SGN d 503      28.121  24.934 108.310  0.00  0.00    -0.349 OA
ATOM     83  O4  SGN d 503      24.599  25.224 107.584  0.00  0.00    -0.348 OA
ATOM     84  S1  SGN d 503      27.927  21.301 111.088  0.00  0.00     0.156 S 
ATOM     85  O4S SGN d 503      27.990  29.527 107.592  0.00  0.00    -0.572 OA
ATOM     86  O2S SGN d 503      27.450  22.102 112.215  0.00  0.00    -0.296 OA
ATOM     87  C3  SGN d 503      25.684  23.475 108.757  0.00  0.00     0.083 C 
ATOM     88  S2  SGN d 503      28.002  28.745 108.781  0.00  0.00     0.251 S 
ATOM     89  O5S SGN d 503      27.337  29.426 109.889  0.00  0.00    -0.572 OA
ATOM     90  C1  SGN d 503      28.203  23.559 108.591  0.00  0.00     0.150 C 
ATOM     91  O1S SGN d 503      29.317  21.574 110.775  0.00  0.00    -0.296 OA
ATOM     92  O6S SGN d 503      29.311  28.297 109.053  0.00  0.00    -0.572 OA
ATOM     93  C2  SGN d 503      26.996  23.136 109.441  0.00  0.00     0.081 C 
ATOM     94  N   SGN d 503      27.073  21.723 109.768  0.00  0.00    -0.210 NA
ATOM     95  O3  SGN d 503      24.606  23.260 109.649  0.00  0.00    -0.391 OA
ATOM     96  C5  SGN d 503      26.980  25.285 107.591  0.00  0.00     0.091 C 
ATOM     97  O3S SGN d 503      27.657  19.887 111.219  0.00  0.00    -0.296 OA
ATOM     98  H   SGN d 503      26.338  27.101 106.699  0.00  0.00     0.080 H 
ATOM     99  H   SGN d 503      28.060  26.905 106.725  0.00  0.00     0.080 H 
ATOM    100  H   SGN d 503      25.681  25.546 109.276  0.00  0.00     0.091 H 
ATOM    101  H   SGN d 503      27.664  23.035 112.061  0.00  0.00     0.231 HD
ATOM    102  H   SGN d 503      25.564  22.859 107.891  0.00  0.00     0.089 H 
ATOM    103  H   SGN d 503      29.102  23.375 109.142  0.00  0.00     0.131 H 
ATOM    104  H   SGN d 503      29.448  22.532 110.698  0.00  0.00     0.231 HD
ATOM    105  H   SGN d 503      27.025  23.693 110.354  0.00  0.00     0.076 H 
ATOM    106  H   SGN d 503      26.120  21.389 109.901  0.00  0.00     0.140 HD
ATOM    107  H   SGN d 503      24.718  23.819 110.433  0.00  0.00     0.210 HD
ATOM    108  H   SGN d 503      26.860  24.731 106.684  0.00  0.00     0.090 H 
ATOM    109  H   SGN d 503      27.998  19.420 110.440  0.00  0.00     0.231 HD
ATOM    110  O61 IDS d 504      21.136  25.693 110.913  0.00  0.00    -0.646 OA
ATOM    111  O62 IDS d 504      20.525  23.899 109.995  0.00  0.00    -0.646 OA
ATOM    112  O3S IDS d 504      24.830  29.084 105.634  0.00  0.00    -0.572 OA
ATOM    113  S   IDS d 504      23.522  29.491 105.987  0.00  0.00     0.252 S 
ATOM    114  C6  IDS d 504      21.154  24.958 109.934  0.00  0.00     0.206 C 
ATOM    115  O3  IDS d 504      22.237  24.887 105.801  0.00  0.00    -0.390 OA
ATOM    116  C1  IDS d 504      23.929  26.405 107.916  0.00  0.00     0.161 C 
ATOM    117  O2  IDS d 504      23.003  28.331 106.856  0.00  0.00    -0.244 OA
ATOM    118  C5  IDS d 504      21.919  25.355 108.660  0.00  0.00     0.152 C 
ATOM    119  C4  IDS d 504      21.062  25.963 107.552  0.00  0.00     0.103 C 
ATOM    120  O5  IDS d 504      22.985  26.221 108.976  0.00  0.00    -0.340 OA
ATOM    121  O4  IDS d 504      20.532  27.212 107.974  0.00  0.00    -0.348 OA
ATOM    122  C2  IDS d 504      23.261  26.941 106.665  0.00  0.00     0.134 C 
ATOM    123  O1S IDS d 504      22.667  29.559 104.859  0.00  0.00    -0.572 OA
ATOM    124  O2S IDS d 504      23.454  30.687 106.774  0.00  0.00    -0.572 OA
ATOM    125  C3  IDS d 504      21.927  26.175 106.319  0.00  0.00     0.094 C 
ATOM    126  H   IDS d 504      21.415  24.418 105.589  0.00  0.00     0.210 HD
ATOM    127  H   IDS d 504      24.640  27.115 108.284  0.00  0.00     0.133 H 
ATOM    128  H   IDS d 504      22.288  24.434 108.261  0.00  0.00     0.104 H 
ATOM    129  H   IDS d 504      20.252  25.301 107.326  0.00  0.00     0.092 H 
ATOM    130  H   IDS d 504      23.919  26.790 105.835  0.00  0.00     0.097 H 
ATOM    131  H   IDS d 504      21.396  26.772 105.607  0.00  0.00     0.091 H 
ENDROOT
TORSDOF 40
ENDMDL
MODEL 48
REMARK VINA RESULT:      -9.5      3.917     11.925
REMARK  0 active torsions:
REMARK  status: ('A' for Active; 'I' for Inactive)
REMARK       I    between atoms: C6_1  and  C5_82 
REMARK       I    between atoms: O2_4  and  C2_65 
REMARK       I    between atoms: O2_4  and  S_6 
REMARK       I    between atoms: S2_5  and  O6_13 
REMARK       I    between atoms: C6_7  and  C5_66 
REMARK       I    between atoms: C6_7  and  O6_11 
REMARK       I    between atoms: S_8  and  O2_37 
REMARK       I    between atoms: O6_11  and  S2_34 
REMARK       I    between atoms: O6_13  and  C6_16 
REMARK       I    between atoms: C6_16  and  C5_76 
REMARK       I    between atoms: O2S_17  and  S1_21 
REMARK       I    between atoms: O4_18  and  C4_33 
REMARK       I    between atoms: C4_19  and  O4_25 
REMARK       I    between atoms: O3_20  and  C3_57 
REMARK       I    between atoms: S1_21  and  N_56 
REMARK       I    between atoms: S1_21  and  O1S_55 
REMARK       I    between atoms: S1_21  and  O3S_68 
REMARK       I    between atoms: O3_24  and  C3_80 
REMARK       I    between atoms: O4_25  and  C1_53 
REMARK       I    between atoms: S1_26  and  N_59 
REMARK       I    between atoms: S1_26  and  O1S_42 
REMARK       I    between atoms: S1_26  and  O2S_29 
REMARK       I    between atoms: S1_26  and  O3S_87 
REMARK       I    between atoms: S_30  and  O2_54 
REMARK       I    between atoms: C3_31  and  O3_61 
REMARK       I    between atoms: O4_36  and  C4_70 
REMARK       I    between atoms: O4_36  and  C1_52 
REMARK       I    between atoms: O2_37  and  C2_45 
REMARK       I    between atoms: C4_38  and  O4_71 
REMARK       I    between atoms: C1_39  and  O1_51 
REMARK       I    between atoms: C1_40  and  O4_71 
REMARK       I    between atoms: C6_46  and  C5_84 
REMARK       I    between atoms: C6_47  and  C5_64 
REMARK       I    between atoms: C1_48  and  O4_77 
REMARK       I    between atoms: O3_50  and  C3_86 
REMARK       I    between atoms: O2_54  and  C2_79 
REMARK       I    between atoms: N_56  and  C2_67 
REMARK       I    between atoms: C2_58  and  N_59 
REMARK       I    between atoms: C3_62  and  O3_81 
REMARK       I    between atoms: C4_69  and  O4_77 
ROOT
ATOM      1  C6  IDS d 506      34.671  21.242 108.659  0.00  0.00     0.206 C 
ATOM      2  O62 IDS d 506      35.467  20.608 109.331  0.00  0.00    -0.646 OA
ATOM      3  S   IDS d 506      34.110  27.487 108.863  0.00  0.00     0.252 S 
ATOM      4  O1S IDS d 506      34.771  27.427 110.130  0.00  0.00    -0.572 OA
ATOM      5  O3S IDS d 506      32.897  28.275 108.889  0.00  0.00    -0.572 OA
ATOM      6  O4  IDS d 506      35.836  23.931 109.301  0.00  0.00    -0.390 OA
ATOM      7  O3  IDS d 506      33.156  24.248 111.656  0.00  0.00    -0.390 OA
ATOM      8  C4  IDS d 506      34.764  23.423 110.060  0.00  0.00     0.097 C 
ATOM      9  O2  IDS d 506      33.643  25.996 108.570  0.00  0.00    -0.244 OA
ATOM     10  C2  IDS d 506      32.917  25.124 109.414  0.00  0.00     0.134 C 
ATOM     11  C1  IDS d 506      32.297  23.987 108.590  0.00  0.00     0.161 C 
ATOM     12  O2S IDS d 506      35.020  27.881 107.825  0.00  0.00    -0.572 OA
ATOM     13  O5  IDS d 506      33.330  23.136 108.162  0.00  0.00    -0.340 OA
ATOM     14  O61 IDS d 506      34.457  20.864 107.515  0.00  0.00    -0.646 OA
ATOM     15  C3  IDS d 506      33.905  24.626 110.504  0.00  0.00     0.094 C 
ATOM     16  C5  IDS d 506      33.940  22.453 109.208  0.00  0.00     0.152 C 
ATOM     17  H   IDS d 506      36.355  24.545 109.845  0.00  0.00     0.210 HD
ATOM     18  H   IDS d 506      33.761  23.935 112.346  0.00  0.00     0.210 HD
ATOM     19  H   IDS d 506      35.117  22.885 110.916  0.00  0.00     0.091 H 
ATOM     20  H   IDS d 506      32.093  25.615 109.890  0.00  0.00     0.097 H 
ATOM     21  H   IDS d 506      31.582  23.452 109.179  0.00  0.00     0.133 H 
ATOM     22  H   IDS d 506      34.580  25.433 110.705  0.00  0.00     0.091 H 
ATOM     23  H   IDS d 506      33.224  22.051 109.894  0.00  0.00     0.104 H 
ATOM     24  O62 IDS d 502      19.656  22.893 114.663  0.00  0.00    -0.646 OA
ATOM     25  O2  IDS d 502      18.287  25.168 109.676  0.00  0.00    -0.244 OA
ATOM     26  S   IDS d 502      18.663  26.425 108.825  0.00  0.00     0.252 S 
ATOM     27  O3  IDS d 502      16.499  25.819 112.714  0.00  0.00    -0.390 OA
ATOM     28  O2S IDS d 502      20.092  26.353 108.624  0.00  0.00    -0.572 OA
ATOM     29  C4  IDS d 502      18.756  24.993 112.600  0.00  0.00     0.103 C 
ATOM     30  C1  IDS d 502      16.993  23.542 110.817  0.00  0.00     0.158 C 
ATOM     31  O61 IDS d 502      19.994  21.786 112.943  0.00  0.00    -0.646 OA
ATOM     32  C6  IDS d 502      19.401  22.681 113.494  0.00  0.00     0.206 C 
ATOM     33  O1  IDS d 502      15.784  23.398 111.514  0.00  0.00    -0.368 OA
ATOM     34  C3  IDS d 502      17.633  25.754 111.871  0.00  0.00     0.094 C 
ATOM     35  O3S IDS d 502      17.898  26.290 107.613  0.00  0.00    -0.572 OA
ATOM     36  O5  IDS d 502      18.078  22.954 111.490  0.00  0.00    -0.340 OA
ATOM     37  C2  IDS d 502      17.227  25.031 110.584  0.00  0.00     0.134 C 
ATOM     38  O4  IDS d 502      19.948  25.091 111.864  0.00  0.00    -0.348 OA
ATOM     39  O1S IDS d 502      18.276  27.583 109.582  0.00  0.00    -0.572 OA
ATOM     40  C5  IDS d 502      18.372  23.522 112.751  0.00  0.00     0.152 C 
ATOM     41  H   IDS d 502      16.734  26.274 113.538  0.00  0.00     0.210 HD
ATOM     42  H   IDS d 502      18.899  25.422 113.570  0.00  0.00     0.092 H 
ATOM     43  H   IDS d 502      16.922  23.024 109.884  0.00  0.00     0.133 H 
ATOM     44  H   IDS d 502      15.843  23.865 112.363  0.00  0.00     0.212 HD
ATOM     45  H   IDS d 502      17.992  26.732 111.627  0.00  0.00     0.091 H 
ATOM     46  H   IDS d 502      16.316  25.457 110.220  0.00  0.00     0.097 H 
ATOM     47  H   IDS d 502      17.495  23.512 113.363  0.00  0.00     0.104 H 
ATOM     48  S2  SGN d 505      30.872  26.985 103.902  0.00  0.00     0.251 S 
ATOM     49  O6  SGN d 505      30.495  25.908 104.909  0.00  0.00    -0.254 OA
ATOM     50  O5S SGN d 505      30.063  26.697 102.744  0.00  0.00    -0.572 OA
ATOM     51  C6  SGN d 505      29.854  26.084 106.126  0.00  0.00     0.067 C 
ATOM     52  O2S SGN d 505      29.278  19.274 104.587  0.00  0.00    -0.296 OA
ATOM     53  S1  SGN d 505      28.089  19.680 105.298  0.00  0.00     0.156 S 
ATOM     54  O6S SGN d 505      30.540  28.267 104.509  0.00  0.00    -0.572 OA
ATOM     55  O4  SGN d 505      31.689  24.526 107.466  0.00  0.00    -0.348 OA
ATOM     56  O5  SGN d 505      28.610  24.179 105.712  0.00  0.00    -0.349 OA
ATOM     57  O4S SGN d 505      32.293  26.816 103.697  0.00  0.00    -0.572 OA
ATOM     58  C1  SGN d 505      28.086  22.943 106.106  0.00  0.00     0.150 C 
ATOM     59  O1S SGN d 505      27.223  20.517 104.494  0.00  0.00    -0.296 OA
ATOM     60  N   SGN d 505      28.647  20.610 106.576  0.00  0.00    -0.210 NA
ATOM     61  C3  SGN d 505      30.276  22.460 107.247  0.00  0.00     0.083 C 
ATOM     62  C2  SGN d 505      29.214  21.941 106.257  0.00  0.00     0.081 C 
ATOM     63  O3S SGN d 505      27.416  18.564 105.861  0.00  0.00    -0.296 OA
ATOM     64  C4  SGN d 505      30.750  23.827 106.675  0.00  0.00     0.095 C 
ATOM     65  C5  SGN d 505      29.542  24.704 106.607  0.00  0.00     0.091 C 
ATOM     66  O3  SGN d 505      31.353  21.532 107.280  0.00  0.00    -0.391 OA
ATOM     67  H   SGN d 505      28.954  26.649 105.997  0.00  0.00     0.080 H 
ATOM     68  H   SGN d 505      30.460  26.624 106.824  0.00  0.00     0.080 H 
ATOM     69  H   SGN d 505      29.715  20.056 104.215  0.00  0.00     0.231 HD
ATOM     70  H   SGN d 505      27.413  22.583 105.355  0.00  0.00     0.131 H 
ATOM     71  H   SGN d 505      27.733  21.260 104.136  0.00  0.00     0.231 HD
ATOM     72  H   SGN d 505      29.375  20.073 107.050  0.00  0.00     0.140 HD
ATOM     73  H   SGN d 505      29.898  22.571 108.242  0.00  0.00     0.089 H 
ATOM     74  H   SGN d 505      29.746  21.821 105.337  0.00  0.00     0.076 H 
ATOM     75  H   SGN d 505      28.041  18.042 106.388  0.00  0.00     0.231 HD
ATOM     76  H   SGN d 505      31.225  23.612 105.741  0.00  0.00     0.091 H 
ATOM     77  H   SGN d 505      29.163  24.748 107.607  0.00  0.00     0.090 H 
ATOM     78  H   SGN d 505      31.708  21.418 106.385  0.00  0.00     0.210 HD
ATOM     79  C6  SGN d 503      22.830  22.180 112.128  0.00  0.00     0.067 C 
ATOM     80  O6  SGN d 503      23.899  22.457 113.007  0.00  0.00    -0.254 OA
ATOM     81  C4  SGN d 503      23.255  24.415 110.957  0.00  0.00     0.095 C 
ATOM     82  O5  SGN d 503      21.792  24.092 112.856  0.00  0.00    -0.349 OA
ATOM     83  O4  SGN d 503      23.603  23.826 109.747  0.00  0.00    -0.348 OA
ATOM     84  S1  SGN d 503      21.352  28.646 112.976  0.00  0.00     0.156 S 
ATOM     85  O4S SGN d 503      24.147  20.198 113.816  0.00  0.00    -0.572 OA
ATOM     86  O2S SGN d 503      22.734  28.838 113.413  0.00  0.00    -0.296 OA
ATOM     87  C3  SGN d 503      22.612  25.770 110.668  0.00  0.00     0.083 C 
ATOM     88  S2  SGN d 503      24.355  21.557 114.185  0.00  0.00     0.251 S 
ATOM     89  O5S SGN d 503      25.765  21.847 114.424  0.00  0.00    -0.572 OA
ATOM     90  C1  SGN d 503      21.100  25.296 112.635  0.00  0.00     0.150 C 
ATOM     91  O1S SGN d 503      20.525  28.071 114.020  0.00  0.00    -0.296 OA
ATOM     92  O6S SGN d 503      23.483  21.913 115.236  0.00  0.00    -0.572 OA
ATOM     93  C2  SGN d 503      22.036  26.311 111.964  0.00  0.00     0.081 C 
ATOM     94  N   SGN d 503      21.350  27.573 111.752  0.00  0.00    -0.210 NA
ATOM     95  O3  SGN d 503      23.618  26.641 110.187  0.00  0.00    -0.391 OA
ATOM     96  C5  SGN d 503      22.255  23.498 111.683  0.00  0.00     0.091 C 
ATOM     97  O3S SGN d 503      20.757  29.824 112.385  0.00  0.00    -0.296 OA
ATOM     98  H   SGN d 503      23.187  21.633 111.280  0.00  0.00     0.080 H 
ATOM     99  H   SGN d 503      22.083  21.590 112.617  0.00  0.00     0.080 H 
ATOM    100  H   SGN d 503      24.117  24.555 111.574  0.00  0.00     0.091 H 
ATOM    101  H   SGN d 503      23.068  28.012 113.798  0.00  0.00     0.231 HD
ATOM    102  H   SGN d 503      21.832  25.682 109.941  0.00  0.00     0.089 H 
ATOM    103  H   SGN d 503      20.780  25.684 113.580  0.00  0.00     0.131 H 
ATOM    104  H   SGN d 503      20.965  27.287 114.385  0.00  0.00     0.231 HD
ATOM    105  H   SGN d 503      22.860  26.485 112.624  0.00  0.00     0.076 H 
ATOM    106  H   SGN d 503      21.785  28.026 110.949  0.00  0.00     0.140 HD
ATOM    107  H   SGN d 503      24.322  26.719 110.849  0.00  0.00     0.210 HD
ATOM    108  H   SGN d 503      21.489  23.337 110.954  0.00  0.00     0.090 H 
ATOM    109  H   SGN d 503      19.845  29.627 112.119  0.00  0.00     0.231 HD
ATOM    110  O61 IDS d 504      27.775  26.057 108.796  0.00  0.00    -0.646 OA
ATOM    111  O62 IDS d 504      26.564  26.878 107.281  0.00  0.00    -0.646 OA
ATOM    112  O3S IDS d 504      24.622  19.636 110.146  0.00  0.00    -0.572 OA
ATOM    113  S   IDS d 504      25.821  19.717 109.400  0.00  0.00     0.252 S 
ATOM    114  C6  IDS d 504      26.782  25.969 108.085  0.00  0.00     0.206 C 
ATOM    115  O3  IDS d 504      23.775  23.200 106.839  0.00  0.00    -0.390 OA
ATOM    116  C1  IDS d 504      24.871  23.237 109.744  0.00  0.00     0.161 C 
ATOM    117  O2  IDS d 504      25.937  21.215 109.062  0.00  0.00    -0.244 OA
ATOM    118  C5  IDS d 504      25.849  24.750 108.178  0.00  0.00     0.152 C 
ATOM    119  C4  IDS d 504      26.078  23.676 107.117  0.00  0.00     0.103 C 
ATOM    120  O5  IDS d 504      25.912  24.179 109.466  0.00  0.00    -0.340 OA
ATOM    121  O4  IDS d 504      27.354  23.078 107.294  0.00  0.00    -0.348 OA
ATOM    122  C2  IDS d 504      24.867  22.101 108.740  0.00  0.00     0.134 C 
ATOM    123  O1S IDS d 504      25.721  19.034 108.162  0.00  0.00    -0.572 OA
ATOM    124  O2S IDS d 504      27.004  19.342 110.117  0.00  0.00    -0.572 OA
ATOM    125  C3  IDS d 504      25.001  22.610 107.253  0.00  0.00     0.094 C 
ATOM    126  H   IDS d 504      23.860  23.513 105.925  0.00  0.00     0.210 HD
ATOM    127  H   IDS d 504      25.080  22.859 110.723  0.00  0.00     0.133 H 
ATOM    128  H   IDS d 504      24.870  25.136 107.986  0.00  0.00     0.104 H 
ATOM    129  H   IDS d 504      26.034  24.122 106.146  0.00  0.00     0.092 H 
ATOM    130  H   IDS d 504      23.926  21.595 108.801  0.00  0.00     0.097 H 
ATOM    131  H   IDS d 504      25.256  21.763 106.652  0.00  0.00     0.091 H 
ENDROOT
TORSDOF 40
ENDMDL
MODEL 49
REMARK VINA RESULT:      -9.5      4.752     11.511
REMARK  0 active torsions:
REMARK  status: ('A' for Active; 'I' for Inactive)
REMARK       I    between atoms: C6_1  and  C5_82 
REMARK       I    between atoms: O2_4  and  C2_65 
REMARK       I    between atoms: O2_4  and  S_6 
REMARK       I    between atoms: S2_5  and  O6_13 
REMARK       I    between atoms: C6_7  and  C5_66 
REMARK       I    between atoms: C6_7  and  O6_11 
REMARK       I    between atoms: S_8  and  O2_37 
REMARK       I    between atoms: O6_11  and  S2_34 
REMARK       I    between atoms: O6_13  and  C6_16 
REMARK       I    between atoms: C6_16  and  C5_76 
REMARK       I    between atoms: O2S_17  and  S1_21 
REMARK       I    between atoms: O4_18  and  C4_33 
REMARK       I    between atoms: C4_19  and  O4_25 
REMARK       I    between atoms: O3_20  and  C3_57 
REMARK       I    between atoms: S1_21  and  N_56 
REMARK       I    between atoms: S1_21  and  O1S_55 
REMARK       I    between atoms: S1_21  and  O3S_68 
REMARK       I    between atoms: O3_24  and  C3_80 
REMARK       I    between atoms: O4_25  and  C1_53 
REMARK       I    between atoms: S1_26  and  N_59 
REMARK       I    between atoms: S1_26  and  O1S_42 
REMARK       I    between atoms: S1_26  and  O2S_29 
REMARK       I    between atoms: S1_26  and  O3S_87 
REMARK       I    between atoms: S_30  and  O2_54 
REMARK       I    between atoms: C3_31  and  O3_61 
REMARK       I    between atoms: O4_36  and  C4_70 
REMARK       I    between atoms: O4_36  and  C1_52 
REMARK       I    between atoms: O2_37  and  C2_45 
REMARK       I    between atoms: C4_38  and  O4_71 
REMARK       I    between atoms: C1_39  and  O1_51 
REMARK       I    between atoms: C1_40  and  O4_71 
REMARK       I    between atoms: C6_46  and  C5_84 
REMARK       I    between atoms: C6_47  and  C5_64 
REMARK       I    between atoms: C1_48  and  O4_77 
REMARK       I    between atoms: O3_50  and  C3_86 
REMARK       I    between atoms: O2_54  and  C2_79 
REMARK       I    between atoms: N_56  and  C2_67 
REMARK       I    between atoms: C2_58  and  N_59 
REMARK       I    between atoms: C3_62  and  O3_81 
REMARK       I    between atoms: C4_69  and  O4_77 
ROOT
ATOM      1  C6  IDS d 506      29.577  22.768 104.707  0.00  0.00     0.206 C 
ATOM      2  O62 IDS d 506      29.573  22.098 103.689  0.00  0.00    -0.646 OA
ATOM      3  S   IDS d 506      29.190  20.352 110.484  0.00  0.00     0.252 S 
ATOM      4  O1S IDS d 506      28.659  19.174 109.872  0.00  0.00    -0.572 OA
ATOM      5  O3S IDS d 506      28.397  20.823 111.599  0.00  0.00    -0.572 OA
ATOM      6  O4  IDS d 506      29.908  20.442 106.574  0.00  0.00    -0.390 OA
ATOM      7  O3  IDS d 506      26.382  20.721 107.141  0.00  0.00    -0.390 OA
ATOM      8  C4  IDS d 506      28.622  20.934 106.275  0.00  0.00     0.097 C 
ATOM      9  O2  IDS d 506      29.076  21.482 109.373  0.00  0.00    -0.244 OA
ATOM     10  C2  IDS d 506      27.944  21.846 108.607  0.00  0.00     0.134 C 
ATOM     11  C1  IDS d 506      28.140  23.245 108.006  0.00  0.00     0.161 C 
ATOM     12  O2S IDS d 506      30.579  20.184 110.808  0.00  0.00    -0.572 OA
ATOM     13  O5  IDS d 506      29.120  23.163 107.002  0.00  0.00    -0.340 OA
ATOM     14  O61 IDS d 506      30.296  23.757 104.741  0.00  0.00    -0.646 OA
ATOM     15  C3  IDS d 506      27.752  20.737 107.535  0.00  0.00     0.094 C 
ATOM     16  C5  IDS d 506      28.710  22.418 105.903  0.00  0.00     0.152 C 
ATOM     17  H   IDS d 506      29.847  19.502 106.809  0.00  0.00     0.210 HD
ATOM     18  H   IDS d 506      26.247  20.033 106.471  0.00  0.00     0.210 HD
ATOM     19  H   IDS d 506      28.193  20.414 105.444  0.00  0.00     0.091 H 
ATOM     20  H   IDS d 506      27.056  21.910 109.202  0.00  0.00     0.097 H 
ATOM     21  H   IDS d 506      27.216  23.608 107.608  0.00  0.00     0.133 H 
ATOM     22  H   IDS d 506      28.057  19.814 107.982  0.00  0.00     0.091 H 
ATOM     23  H   IDS d 506      27.715  22.667 105.600  0.00  0.00     0.104 H 
ATOM     24  O62 IDS d 502      15.271  28.673 109.674  0.00  0.00    -0.646 OA
ATOM     25  O2  IDS d 502      18.206  31.603 113.511  0.00  0.00    -0.244 OA
ATOM     26  S   IDS d 502      19.123  31.317 114.745  0.00  0.00     0.252 S 
ATOM     27  O3  IDS d 502      14.751  30.727 113.897  0.00  0.00    -0.390 OA
ATOM     28  O2S IDS d 502      20.205  30.498 114.251  0.00  0.00    -0.572 OA
ATOM     29  C4  IDS d 502      16.292  29.616 112.420  0.00  0.00     0.103 C 
ATOM     30  C1  IDS d 502      16.463  32.498 112.176  0.00  0.00     0.158 C 
ATOM     31  O61 IDS d 502      16.771  29.944 109.015  0.00  0.00    -0.646 OA
ATOM     32  C6  IDS d 502      15.986  29.635 109.878  0.00  0.00     0.206 C 
ATOM     33  O1  IDS d 502      15.143  32.964 112.270  0.00  0.00    -0.368 OA
ATOM     34  C3  IDS d 502      16.128  30.487 113.680  0.00  0.00     0.094 C 
ATOM     35  O3S IDS d 502      19.540  32.617 115.202  0.00  0.00    -0.572 OA
ATOM     36  O5  IDS d 502      16.647  31.611 111.101  0.00  0.00    -0.340 OA
ATOM     37  C2  IDS d 502      16.823  31.841 113.505  0.00  0.00     0.134 C 
ATOM     38  O4  IDS d 502      17.629  29.204 112.302  0.00  0.00    -0.348 OA
ATOM     39  O1S IDS d 502      18.321  30.632 115.722  0.00  0.00    -0.572 OA
ATOM     40  C5  IDS d 502      15.896  30.416 111.181  0.00  0.00     0.152 C 
ATOM     41  H   IDS d 502      14.290  29.881 114.011  0.00  0.00     0.210 HD
ATOM     42  H   IDS d 502      15.659  28.757 112.503  0.00  0.00     0.092 H 
ATOM     43  H   IDS d 502      17.112  33.324 111.980  0.00  0.00     0.133 H 
ATOM     44  H   IDS d 502      14.548  32.218 112.447  0.00  0.00     0.212 HD
ATOM     45  H   IDS d 502      16.568  29.970 114.507  0.00  0.00     0.091 H 
ATOM     46  H   IDS d 502      16.514  32.494 114.293  0.00  0.00     0.097 H 
ATOM     47  H   IDS d 502      14.860  30.652 111.306  0.00  0.00     0.104 H 
ATOM     48  S2  SGN d 505      30.827  25.724 112.437  0.00  0.00     0.251 S 
ATOM     49  O6  SGN d 505      29.795  25.840 111.324  0.00  0.00    -0.254 OA
ATOM     50  O5S SGN d 505      31.170  27.087 112.756  0.00  0.00    -0.572 OA
ATOM     51  C6  SGN d 505      28.458  25.475 111.378  0.00  0.00     0.067 C 
ATOM     52  O2S SGN d 505      29.104  29.700 105.826  0.00  0.00    -0.296 OA
ATOM     53  S1  SGN d 505      27.798  29.909 106.406  0.00  0.00     0.156 S 
ATOM     54  O6S SGN d 505      30.178  25.038 113.546  0.00  0.00    -0.572 OA
ATOM     55  O4  SGN d 505      28.606  24.097 108.996  0.00  0.00    -0.348 OA
ATOM     56  O5  SGN d 505      27.920  27.381 110.185  0.00  0.00    -0.349 OA
ATOM     57  O4S SGN d 505      31.905  24.954 111.859  0.00  0.00    -0.572 OA
ATOM     58  C1  SGN d 505      27.254  28.032 109.141  0.00  0.00     0.150 C 
ATOM     59  O1S SGN d 505      27.860  30.618 107.667  0.00  0.00    -0.296 OA
ATOM     60  N   SGN d 505      27.213  28.370 106.720  0.00  0.00    -0.210 NA
ATOM     61  C3  SGN d 505      27.807  26.072 107.664  0.00  0.00     0.083 C 
ATOM     62  C2  SGN d 505      27.853  27.605 107.816  0.00  0.00     0.081 C 
ATOM     63  O3S SGN d 505      26.909  30.508 105.476  0.00  0.00    -0.296 OA
ATOM     64  C4  SGN d 505      28.579  25.505 108.891  0.00  0.00     0.095 C 
ATOM     65  C5  SGN d 505      27.861  25.990 110.109  0.00  0.00     0.091 C 
ATOM     66  O3  SGN d 505      28.464  25.718 106.454  0.00  0.00    -0.391 OA
ATOM     67  H   SGN d 505      27.982  25.920 112.226  0.00  0.00     0.080 H 
ATOM     68  H   SGN d 505      28.337  24.416 111.476  0.00  0.00     0.080 H 
ATOM     69  H   SGN d 505      29.688  29.290 106.484  0.00  0.00     0.231 HD
ATOM     70  H   SGN d 505      27.377  29.091 109.241  0.00  0.00     0.131 H 
ATOM     71  H   SGN d 505      28.480  30.167 108.262  0.00  0.00     0.231 HD
ATOM     72  H   SGN d 505      27.318  27.823 105.864  0.00  0.00     0.140 HD
ATOM     73  H   SGN d 505      26.809  25.687 107.629  0.00  0.00     0.089 H 
ATOM     74  H   SGN d 505      28.895  27.844 107.771  0.00  0.00     0.076 H 
ATOM     75  H   SGN d 505      26.906  29.993 104.654  0.00  0.00     0.231 HD
ATOM     76  H   SGN d 505      29.592  25.832 108.784  0.00  0.00     0.091 H 
ATOM     77  H   SGN d 505      26.857  25.633 110.011  0.00  0.00     0.090 H 
ATOM     78  H   SGN d 505      29.372  26.060 106.468  0.00  0.00     0.210 HD
ATOM     79  C6  SGN d 503      19.247  28.336 108.631  0.00  0.00     0.067 C 
ATOM     80  O6  SGN d 503      19.283  26.968 108.288  0.00  0.00    -0.254 OA
ATOM     81  C4  SGN d 503      20.459  27.789 110.816  0.00  0.00     0.095 C 
ATOM     82  O5  SGN d 503      18.059  27.788 110.515  0.00  0.00    -0.349 OA
ATOM     83  O4  SGN d 503      21.590  28.527 110.487  0.00  0.00    -0.348 OA
ATOM     84  S1  SGN d 503      17.778  26.065 114.746  0.00  0.00     0.156 S 
ATOM     85  O4S SGN d 503      18.783  27.285 105.949  0.00  0.00    -0.572 OA
ATOM     86  O2S SGN d 503      18.353  24.784 114.337  0.00  0.00    -0.296 OA
ATOM     87  C3  SGN d 503      20.287  27.817 112.333  0.00  0.00     0.083 C 
ATOM     88  S2  SGN d 503      18.668  26.341 107.008  0.00  0.00     0.251 S 
ATOM     89  O5S SGN d 503      19.413  25.117 106.732  0.00  0.00    -0.572 OA
ATOM     90  C1  SGN d 503      17.800  27.874 111.895  0.00  0.00     0.150 C 
ATOM     91  O1S SGN d 503      16.436  26.250 114.229  0.00  0.00    -0.296 OA
ATOM     92  O6S SGN d 503      17.311  26.154 107.346  0.00  0.00    -0.572 OA
ATOM     93  C2  SGN d 503      18.941  27.204 112.673  0.00  0.00     0.081 C 
ATOM     94  N   SGN d 503      18.681  27.255 114.101  0.00  0.00    -0.210 NA
ATOM     95  O3  SGN d 503      21.326  27.049 112.909  0.00  0.00    -0.391 OA
ATOM     96  C5  SGN d 503      19.237  28.427 110.133  0.00  0.00     0.091 C 
ATOM     97  O3S SGN d 503      17.864  26.317 116.167  0.00  0.00    -0.296 OA
ATOM     98  H   SGN d 503      20.110  28.834 108.240  0.00  0.00     0.080 H 
ATOM     99  H   SGN d 503      18.376  28.804 108.220  0.00  0.00     0.080 H 
ATOM    100  H   SGN d 503      20.556  26.775 110.489  0.00  0.00     0.091 H 
ATOM    101  H   SGN d 503      18.261  24.681 113.377  0.00  0.00     0.231 HD
ATOM    102  H   SGN d 503      20.328  28.818 112.709  0.00  0.00     0.089 H 
ATOM    103  H   SGN d 503      16.884  27.361 112.103  0.00  0.00     0.131 H 
ATOM    104  H   SGN d 503      16.429  26.070 113.276  0.00  0.00     0.231 HD
ATOM    105  H   SGN d 503      18.983  26.176 112.378  0.00  0.00     0.076 H 
ATOM    106  H   SGN d 503      19.584  27.245 114.576  0.00  0.00     0.140 HD
ATOM    107  H   SGN d 503      21.286  26.142 112.566  0.00  0.00     0.210 HD
ATOM    108  H   SGN d 503      19.286  29.451 110.439  0.00  0.00     0.090 H 
ATOM    109  H   SGN d 503      17.466  27.179 116.367  0.00  0.00     0.231 HD
ATOM    110  O61 IDS d 504      25.080  25.306 111.347  0.00  0.00    -0.646 OA
ATOM    111  O62 IDS d 504      25.455  26.679 112.898  0.00  0.00    -0.646 OA
ATOM    112  O3S IDS d 504      21.862  29.391 106.252  0.00  0.00    -0.572 OA
ATOM    113  S   IDS d 504      23.212  28.987 106.119  0.00  0.00     0.252 S 
ATOM    114  C6  IDS d 504      24.968  26.441 111.790  0.00  0.00     0.206 C 
ATOM    115  O3  IDS d 504      23.892  30.412 110.634  0.00  0.00    -0.390 OA
ATOM    116  C1  IDS d 504      22.407  27.920 109.528  0.00  0.00     0.161 C 
ATOM    117  O2  IDS d 504      23.575  28.469 107.522  0.00  0.00    -0.244 OA
ATOM    118  C5  IDS d 504      24.263  27.541 110.979  0.00  0.00     0.152 C 
ATOM    119  C4  IDS d 504      25.193  28.479 110.213  0.00  0.00     0.103 C 
ATOM    120  O5  IDS d 504      23.317  26.975 110.101  0.00  0.00    -0.340 OA
ATOM    121  O4  IDS d 504      25.879  27.763 109.196  0.00  0.00    -0.348 OA
ATOM    122  C2  IDS d 504      23.140  29.007 108.769  0.00  0.00     0.134 C 
ATOM    123  O1S IDS d 504      24.070  30.085 105.863  0.00  0.00    -0.572 OA
ATOM    124  O2S IDS d 504      23.432  27.917 105.191  0.00  0.00    -0.572 OA
ATOM    125  C3  IDS d 504      24.365  29.585 109.577  0.00  0.00     0.094 C 
ATOM    126  H   IDS d 504      24.647  30.766 111.130  0.00  0.00     0.210 HD
ATOM    127  H   IDS d 504      21.793  27.356 108.857  0.00  0.00     0.133 H 
ATOM    128  H   IDS d 504      23.779  28.155 111.710  0.00  0.00     0.104 H 
ATOM    129  H   IDS d 504      25.911  28.897 110.888  0.00  0.00     0.092 H 
ATOM    130  H   IDS d 504      22.470  29.826 108.613  0.00  0.00     0.097 H 
ATOM    131  H   IDS d 504      24.969  30.133 108.885  0.00  0.00     0.091 H 
ENDROOT
TORSDOF 40
ENDMDL
MODEL 50
REMARK VINA RESULT:      -9.4      6.013     10.465
REMARK  0 active torsions:
REMARK  status: ('A' for Active; 'I' for Inactive)
REMARK       I    between atoms: C6_1  and  C5_82 
REMARK       I    between atoms: O2_4  and  C2_65 
REMARK       I    between atoms: O2_4  and  S_6 
REMARK       I    between atoms: S2_5  and  O6_13 
REMARK       I    between atoms: C6_7  and  C5_66 
REMARK       I    between atoms: C6_7  and  O6_11 
REMARK       I    between atoms: S_8  and  O2_37 
REMARK       I    between atoms: O6_11  and  S2_34 
REMARK       I    between atoms: O6_13  and  C6_16 
REMARK       I    between atoms: C6_16  and  C5_76 
REMARK       I    between atoms: O2S_17  and  S1_21 
REMARK       I    between atoms: O4_18  and  C4_33 
REMARK       I    between atoms: C4_19  and  O4_25 
REMARK       I    between atoms: O3_20  and  C3_57 
REMARK       I    between atoms: S1_21  and  N_56 
REMARK       I    between atoms: S1_21  and  O1S_55 
REMARK       I    between atoms: S1_21  and  O3S_68 
REMARK       I    between atoms: O3_24  and  C3_80 
REMARK       I    between atoms: O4_25  and  C1_53 
REMARK       I    between atoms: S1_26  and  N_59 
REMARK       I    between atoms: S1_26  and  O1S_42 
REMARK       I    between atoms: S1_26  and  O2S_29 
REMARK       I    between atoms: S1_26  and  O3S_87 
REMARK       I    between atoms: S_30  and  O2_54 
REMARK       I    between atoms: C3_31  and  O3_61 
REMARK       I    between atoms: O4_36  and  C4_70 
REMARK       I    between atoms: O4_36  and  C1_52 
REMARK       I    between atoms: O2_37  and  C2_45 
REMARK       I    between atoms: C4_38  and  O4_71 
REMARK       I    between atoms: C1_39  and  O1_51 
REMARK       I    between atoms: C1_40  and  O4_71 
REMARK       I    between atoms: C6_46  and  C5_84 
REMARK       I    between atoms: C6_47  and  C5_64 
REMARK       I    between atoms: C1_48  and  O4_77 
REMARK       I    between atoms: O3_50  and  C3_86 
REMARK       I    between atoms: O2_54  and  C2_79 
REMARK       I    between atoms: N_56  and  C2_67 
REMARK       I    between atoms: C2_58  and  N_59 
REMARK       I    between atoms: C3_62  and  O3_81 
REMARK       I    between atoms: C4_69  and  O4_77 
ROOT
ATOM      1  C6  IDS d 506      14.832  27.486 108.764  0.00  0.00     0.206 C 
ATOM      2  O62 IDS d 506      13.875  27.484 108.009  0.00  0.00    -0.646 OA
ATOM      3  S   IDS d 506      19.670  31.449 108.269  0.00  0.00     0.252 S 
ATOM      4  O1S IDS d 506      19.259  31.659 106.915  0.00  0.00    -0.572 OA
ATOM      5  O3S IDS d 506      21.082  31.157 108.398  0.00  0.00    -0.572 OA
ATOM      6  O4  IDS d 506      15.971  30.078 107.770  0.00  0.00    -0.390 OA
ATOM      7  O3  IDS d 506      18.250  28.060 105.882  0.00  0.00    -0.390 OA
ATOM      8  C4  IDS d 506      16.418  28.855 107.234  0.00  0.00     0.097 C 
ATOM      9  O2  IDS d 506      18.919  30.126 108.728  0.00  0.00    -0.244 OA
ATOM     10  C2  IDS d 506      18.872  28.873 108.074  0.00  0.00     0.134 C 
ATOM     11  C1  IDS d 506      18.438  27.779 109.059  0.00  0.00     0.161 C 
ATOM     12  O2S IDS d 506      19.235  32.525 109.114  0.00  0.00    -0.572 OA
ATOM     13  O5  IDS d 506      17.079  27.967 109.359  0.00  0.00    -0.340 OA
ATOM     14  O61 IDS d 506      14.629  27.258 109.948  0.00  0.00    -0.646 OA
ATOM     15  C3  IDS d 506      17.907  29.032 106.866  0.00  0.00     0.094 C 
ATOM     16  C5  IDS d 506      16.245  27.741 108.271  0.00  0.00     0.152 C 
ATOM     17  H   IDS d 506      16.083  30.781 107.110  0.00  0.00     0.210 HD
ATOM     18  H   IDS d 506      17.655  28.147 105.121  0.00  0.00     0.210 HD
ATOM     19  H   IDS d 506      15.853  28.583 106.366  0.00  0.00     0.091 H 
ATOM     20  H   IDS d 506      19.833  28.570 107.712  0.00  0.00     0.097 H 
ATOM     21  H   IDS d 506      18.604  26.812 108.632  0.00  0.00     0.133 H 
ATOM     22  H   IDS d 506      18.021  30.033 106.505  0.00  0.00     0.091 H 
ATOM     23  H   IDS d 506      16.513  26.851 107.741  0.00  0.00     0.104 H 
ATOM     24  O62 IDS d 502      26.975  17.261 105.268  0.00  0.00    -0.646 OA
ATOM     25  O2  IDS d 502      29.176  18.718 110.262  0.00  0.00    -0.244 OA
ATOM     26  S   IDS d 502      29.741  20.000 110.959  0.00  0.00     0.252 S 
ATOM     27  O3  IDS d 502      31.117  17.442 107.532  0.00  0.00    -0.390 OA
ATOM     28  O2S IDS d 502      28.674  20.972 110.922  0.00  0.00    -0.572 OA
ATOM     29  C4  IDS d 502      28.941  18.446 107.318  0.00  0.00     0.103 C 
ATOM     30  C1  IDS d 502      29.014  16.494 109.458  0.00  0.00     0.158 C 
ATOM     31  O61 IDS d 502      25.824  16.997 106.972  0.00  0.00    -0.646 OA
ATOM     32  C6  IDS d 502      26.916  17.125 106.474  0.00  0.00     0.206 C 
ATOM     33  O1  IDS d 502      29.812  15.442 108.983  0.00  0.00    -0.368 OA
ATOM     34  C3  IDS d 502      30.214  18.320 108.176  0.00  0.00     0.094 C 
ATOM     35  O3S IDS d 502      30.091  19.572 112.288  0.00  0.00    -0.572 OA
ATOM     36  O5  IDS d 502      27.887  16.724 108.650  0.00  0.00    -0.340 OA
ATOM     37  C2  IDS d 502      29.890  17.739 109.556  0.00  0.00     0.134 C 
ATOM     38  O4  IDS d 502      28.121  19.461 107.837  0.00  0.00    -0.348 OA
ATOM     39  O1S IDS d 502      30.890  20.422 110.207  0.00  0.00    -0.572 OA
ATOM     40  C5  IDS d 502      28.178  17.123 107.325  0.00  0.00     0.152 C 
ATOM     41  H   IDS d 502      31.337  17.791 106.654  0.00  0.00     0.210 HD
ATOM     42  H   IDS d 502      29.218  18.688 106.313  0.00  0.00     0.092 H 
ATOM     43  H   IDS d 502      28.628  16.233 110.420  0.00  0.00     0.133 H 
ATOM     44  H   IDS d 502      30.165  15.673 108.109  0.00  0.00     0.212 HD
ATOM     45  H   IDS d 502      30.638  19.295 108.295  0.00  0.00     0.091 H 
ATOM     46  H   IDS d 502      30.804  17.466 110.040  0.00  0.00     0.097 H 
ATOM     47  H   IDS d 502      28.831  16.408 106.870  0.00  0.00     0.104 H 
ATOM     48  S2  SGN d 505      21.215  29.657 113.723  0.00  0.00     0.251 S 
ATOM     49  O6  SGN d 505      20.790  28.476 112.862  0.00  0.00    -0.254 OA
ATOM     50  O5S SGN d 505      21.491  29.081 115.016  0.00  0.00    -0.572 OA
ATOM     51  C6  SGN d 505      21.455  27.957 111.762  0.00  0.00     0.067 C 
ATOM     52  O2S SGN d 505      16.912  23.027 113.795  0.00  0.00    -0.296 OA
ATOM     53  S1  SGN d 505      18.087  22.372 113.269  0.00  0.00     0.156 S 
ATOM     54  O6S SGN d 505      22.402  30.229 113.103  0.00  0.00    -0.572 OA
ATOM     55  O4  SGN d 505      19.163  27.918 110.233  0.00  0.00    -0.348 OA
ATOM     56  O5  SGN d 505      20.944  25.825 112.495  0.00  0.00    -0.349 OA
ATOM     57  O4S SGN d 505      20.083  30.556 113.698  0.00  0.00    -0.572 OA
ATOM     58  C1  SGN d 505      20.464  24.529 112.273  0.00  0.00     0.150 C 
ATOM     59  O1S SGN d 505      19.228  22.489 114.154  0.00  0.00    -0.296 OA
ATOM     60  N   SGN d 505      18.451  23.204 111.861  0.00  0.00    -0.210 NA
ATOM     61  C3  SGN d 505      18.672  25.524 110.814  0.00  0.00     0.083 C 
ATOM     62  C2  SGN d 505      18.974  24.584 111.997  0.00  0.00     0.081 C 
ATOM     63  O3S SGN d 505      17.809  21.031 112.898  0.00  0.00    -0.296 OA
ATOM     64  C4  SGN d 505      19.267  26.905 111.212  0.00  0.00     0.095 C 
ATOM     65  C5  SGN d 505      20.730  26.695 111.426  0.00  0.00     0.091 C 
ATOM     66  O3  SGN d 505      17.261  25.614 110.658  0.00  0.00    -0.391 OA
ATOM     67  H   SGN d 505      22.477  27.752 112.004  0.00  0.00     0.080 H 
ATOM     68  H   SGN d 505      21.465  28.643 110.940  0.00  0.00     0.080 H 
ATOM     69  H   SGN d 505      17.133  23.939 114.040  0.00  0.00     0.231 HD
ATOM     70  H   SGN d 505      20.624  23.932 113.147  0.00  0.00     0.131 H 
ATOM     71  H   SGN d 505      19.371  23.423 114.374  0.00  0.00     0.231 HD
ATOM     72  H   SGN d 505      17.596  23.255 111.307  0.00  0.00     0.140 HD
ATOM     73  H   SGN d 505      19.089  25.178 109.891  0.00  0.00     0.089 H 
ATOM     74  H   SGN d 505      18.448  25.018 112.821  0.00  0.00     0.076 H 
ATOM     75  H   SGN d 505      17.040  21.012 112.308  0.00  0.00     0.231 HD
ATOM     76  H   SGN d 505      18.712  27.235 112.065  0.00  0.00     0.091 H 
ATOM     77  H   SGN d 505      21.101  26.300 110.503  0.00  0.00     0.090 H 
ATOM     78  H   SGN d 505      16.864  25.925 111.487  0.00  0.00     0.210 HD
ATOM     79  C6  SGN d 503      24.056  19.372 107.275  0.00  0.00     0.067 C 
ATOM     80  O6  SGN d 503      23.569  20.165 106.214  0.00  0.00    -0.254 OA
ATOM     81  C4  SGN d 503      25.256  21.426 108.218  0.00  0.00     0.095 C 
ATOM     82  O5  SGN d 503      26.194  19.877 106.614  0.00  0.00    -0.349 OA
ATOM     83  O4  SGN d 503      24.504  21.450 109.387  0.00  0.00    -0.348 OA
ATOM     84  S1  SGN d 503      29.741  22.750 106.287  0.00  0.00     0.156 S 
ATOM     85  O4S SGN d 503      21.852  18.619 105.517  0.00  0.00    -0.572 OA
ATOM     86  O2S SGN d 503      28.941  23.772 105.613  0.00  0.00    -0.296 OA
ATOM     87  C3  SGN d 503      26.646  21.978 108.525  0.00  0.00     0.083 C 
ATOM     88  S2  SGN d 503      22.698  19.658 105.035  0.00  0.00     0.251 S 
ATOM     89  O5S SGN d 503      21.933  20.801 104.545  0.00  0.00    -0.572 OA
ATOM     90  C1  SGN d 503      27.516  20.278 106.872  0.00  0.00     0.150 C 
ATOM     91  O1S SGN d 503      29.991  21.603 105.434  0.00  0.00    -0.296 OA
ATOM     92  O6S SGN d 503      23.639  19.133 104.124  0.00  0.00    -0.572 OA
ATOM     93  C2  SGN d 503      27.530  21.749 107.312  0.00  0.00     0.081 C 
ATOM     94  N   SGN d 503      28.890  22.194 107.558  0.00  0.00    -0.210 NA
ATOM     95  O3  SGN d 503      26.523  23.365 108.776  0.00  0.00    -0.391 OA
ATOM     96  C5  SGN d 503      25.360  19.971 107.727  0.00  0.00     0.091 C 
ATOM     97  O3S SGN d 503      30.949  23.260 106.895  0.00  0.00    -0.296 OA
ATOM     98  H   SGN d 503      23.354  19.373 108.084  0.00  0.00     0.080 H 
ATOM     99  H   SGN d 503      24.197  18.361 106.956  0.00  0.00     0.080 H 
ATOM    100  H   SGN d 503      24.797  22.022 107.457  0.00  0.00     0.091 H 
ATOM    101  H   SGN d 503      28.150  23.361 105.230  0.00  0.00     0.231 HD
ATOM    102  H   SGN d 503      27.076  21.494 109.376  0.00  0.00     0.089 H 
ATOM    103  H   SGN d 503      28.086  20.176 105.972  0.00  0.00     0.131 H 
ATOM    104  H   SGN d 503      29.154  21.298 105.050  0.00  0.00     0.231 HD
ATOM    105  H   SGN d 503      27.125  22.335 106.515  0.00  0.00     0.076 H 
ATOM    106  H   SGN d 503      28.846  22.943 108.247  0.00  0.00     0.140 HD
ATOM    107  H   SGN d 503      26.134  23.801 108.002  0.00  0.00     0.210 HD
ATOM    108  H   SGN d 503      25.729  19.446 108.583  0.00  0.00     0.090 H 
ATOM    109  H   SGN d 503      31.429  22.532 107.321  0.00  0.00     0.231 HD
ATOM    110  O61 IDS d 504      23.091  26.064 109.485  0.00  0.00    -0.646 OA
ATOM    111  O62 IDS d 504      24.409  26.046 111.127  0.00  0.00    -0.646 OA
ATOM    112  O3S IDS d 504      20.847  19.150 109.083  0.00  0.00    -0.572 OA
ATOM    113  S   IDS d 504      20.009  20.160 109.612  0.00  0.00     0.252 S 
ATOM    114  C6  IDS d 504      23.672  25.429 110.356  0.00  0.00     0.206 C 
ATOM    115  O3  IDS d 504      23.723  21.602 112.257  0.00  0.00    -0.390 OA
ATOM    116  C1  IDS d 504      23.197  21.916 109.214  0.00  0.00     0.161 C 
ATOM    117  O2  IDS d 504      20.965  21.346 109.832  0.00  0.00    -0.244 OA
ATOM    118  C5  IDS d 504      23.468  23.911 110.496  0.00  0.00     0.152 C 
ATOM    119  C4  IDS d 504      22.467  23.487 111.568  0.00  0.00     0.103 C 
ATOM    120  O5  IDS d 504      23.115  23.345 109.254  0.00  0.00    -0.340 OA
ATOM    121  O4  IDS d 504      21.161  23.924 111.218  0.00  0.00    -0.348 OA
ATOM    122  C2  IDS d 504      22.319  21.279 110.272  0.00  0.00     0.134 C 
ATOM    123  O1S IDS d 504      19.502  19.812 110.889  0.00  0.00    -0.572 OA
ATOM    124  O2S IDS d 504      18.966  20.600 108.732  0.00  0.00    -0.572 OA
ATOM    125  C3  IDS d 504      22.476  21.971 111.681  0.00  0.00     0.094 C 
ATOM    126  H   IDS d 504      23.817  22.029 113.124  0.00  0.00     0.210 HD
ATOM    127  H   IDS d 504      22.856  21.637 108.239  0.00  0.00     0.133 H 
ATOM    128  H   IDS d 504      24.414  23.535 110.825  0.00  0.00     0.104 H 
ATOM    129  H   IDS d 504      22.741  23.928 112.504  0.00  0.00     0.092 H 
ATOM    130  H   IDS d 504      22.624  20.261 110.401  0.00  0.00     0.097 H 
ATOM    131  H   IDS d 504      21.651  21.651 112.283  0.00  0.00     0.091 H 
ENDROOT
TORSDOF 40
ENDMDL
MODEL 51
REMARK VINA RESULT:      -9.3      4.605      8.141
REMARK  0 active torsions:
REMARK  status: ('A' for Active; 'I' for Inactive)
REMARK       I    between atoms: C6_1  and  C5_82 
REMARK       I    between atoms: O2_4  and  C2_65 
REMARK       I    between atoms: O2_4  and  S_6 
REMARK       I    between atoms: S2_5  and  O6_13 
REMARK       I    between atoms: C6_7  and  C5_66 
REMARK       I    between atoms: C6_7  and  O6_11 
REMARK       I    between atoms: S_8  and  O2_37 
REMARK       I    between atoms: O6_11  and  S2_34 
REMARK       I    between atoms: O6_13  and  C6_16 
REMARK       I    between atoms: C6_16  and  C5_76 
REMARK       I    between atoms: O2S_17  and  S1_21 
REMARK       I    between atoms: O4_18  and  C4_33 
REMARK       I    between atoms: C4_19  and  O4_25 
REMARK       I    between atoms: O3_20  and  C3_57 
REMARK       I    between atoms: S1_21  and  N_56 
REMARK       I    between atoms: S1_21  and  O1S_55 
REMARK       I    between atoms: S1_21  and  O3S_68 
REMARK       I    between atoms: O3_24  and  C3_80 
REMARK       I    between atoms: O4_25  and  C1_53 
REMARK       I    between atoms: S1_26  and  N_59 
REMARK       I    between atoms: S1_26  and  O1S_42 
REMARK       I    between atoms: S1_26  and  O2S_29 
REMARK       I    between atoms: S1_26  and  O3S_87 
REMARK       I    between atoms: S_30  and  O2_54 
REMARK       I    between atoms: C3_31  and  O3_61 
REMARK       I    between atoms: O4_36  and  C4_70 
REMARK       I    between atoms: O4_36  and  C1_52 
REMARK       I    between atoms: O2_37  and  C2_45 
REMARK       I    between atoms: C4_38  and  O4_71 
REMARK       I    between atoms: C1_39  and  O1_51 
REMARK       I    between atoms: C1_40  and  O4_71 
REMARK       I    between atoms: C6_46  and  C5_84 
REMARK       I    between atoms: C6_47  and  C5_64 
REMARK       I    between atoms: C1_48  and  O4_77 
REMARK       I    between atoms: O3_50  and  C3_86 
REMARK       I    between atoms: O2_54  and  C2_79 
REMARK       I    between atoms: N_56  and  C2_67 
REMARK       I    between atoms: C2_58  and  N_59 
REMARK       I    between atoms: C3_62  and  O3_81 
REMARK       I    between atoms: C4_69  and  O4_77 
ROOT
ATOM      1  C6  IDS d 506      16.108  28.530 107.518  0.00  0.00     0.206 C 
ATOM      2  O62 IDS d 506      15.228  28.164 106.759  0.00  0.00    -0.646 OA
ATOM      3  S   IDS d 506      19.754  33.532 106.497  0.00  0.00     0.252 S 
ATOM      4  O1S IDS d 506      19.377  33.428 105.121  0.00  0.00    -0.572 OA
ATOM      5  O3S IDS d 506      21.183  33.651 106.690  0.00  0.00    -0.572 OA
ATOM      6  O4  IDS d 506      16.579  31.163 106.158  0.00  0.00    -0.390 OA
ATOM      7  O3  IDS d 506      19.408  29.582 104.634  0.00  0.00    -0.390 OA
ATOM      8  C4  IDS d 506      17.360  30.041 105.821  0.00  0.00     0.097 C 
ATOM      9  O2  IDS d 506      19.352  32.136 107.141  0.00  0.00    -0.244 OA
ATOM     10  C2  IDS d 506      19.673  30.837 106.685  0.00  0.00     0.134 C 
ATOM     11  C1  IDS d 506      19.488  29.818 107.819  0.00  0.00     0.161 C 
ATOM     12  O2S IDS d 506      19.005  34.562 107.161  0.00  0.00    -0.572 OA
ATOM     13  O5  IDS d 506      18.112  29.677 108.067  0.00  0.00    -0.340 OA
ATOM     14  O61 IDS d 506      15.907  28.429 108.721  0.00  0.00    -0.646 OA
ATOM     15  C3  IDS d 506      18.768  30.556 105.453  0.00  0.00     0.094 C 
ATOM     16  C5  IDS d 506      17.429  29.081 107.014  0.00  0.00     0.152 C 
ATOM     17  H   IDS d 506      16.538  31.768 105.400  0.00  0.00     0.210 HD
ATOM     18  H   IDS d 506      18.854  29.396 103.860  0.00  0.00     0.210 HD
ATOM     19  H   IDS d 506      16.935  29.507 104.997  0.00  0.00     0.091 H 
ATOM     20  H   IDS d 506      20.698  30.753 106.388  0.00  0.00     0.097 H 
ATOM     21  H   IDS d 506      19.925  28.880 107.547  0.00  0.00     0.133 H 
ATOM     22  H   IDS d 506      18.634  31.489 104.945  0.00  0.00     0.091 H 
ATOM     23  H   IDS d 506      17.950  28.229 106.630  0.00  0.00     0.104 H 
ATOM     24  O62 IDS d 502      30.684  21.545 105.804  0.00  0.00    -0.646 OA
ATOM     25  O2  IDS d 502      32.147  24.238 110.550  0.00  0.00    -0.244 OA
ATOM     26  S   IDS d 502      32.316  25.710 111.051  0.00  0.00     0.252 S 
ATOM     27  O3  IDS d 502      34.502  23.152 108.076  0.00  0.00    -0.390 OA
ATOM     28  O2S IDS d 502      31.034  26.345 110.851  0.00  0.00    -0.572 OA
ATOM     29  C4  IDS d 502      32.154  23.493 107.679  0.00  0.00     0.103 C 
ATOM     30  C1  IDS d 502      32.620  21.960 110.092  0.00  0.00     0.158 C 
ATOM     31  O61 IDS d 502      29.551  21.228 107.512  0.00  0.00    -0.646 OA
ATOM     32  C6  IDS d 502      30.597  21.572 107.017  0.00  0.00     0.206 C 
ATOM     33  O1  IDS d 502      33.691  21.104 109.795  0.00  0.00    -0.368 OA
ATOM     34  C3  IDS d 502      33.366  23.838 108.565  0.00  0.00     0.094 C 
ATOM     35  O3S IDS d 502      32.692  25.586 112.436  0.00  0.00    -0.572 OA
ATOM     36  O5  IDS d 502      31.518  21.762 109.242  0.00  0.00    -0.340 OA
ATOM     37  C2  IDS d 502      33.130  23.395 110.012  0.00  0.00     0.134 C 
ATOM     38  O4  IDS d 502      31.069  24.315 108.025  0.00  0.00    -0.348 OA
ATOM     39  O1S IDS d 502      33.353  26.312 110.261  0.00  0.00    -0.572 OA
ATOM     40  C5  IDS d 502      31.766  22.030 107.877  0.00  0.00     0.152 C 
ATOM     41  H   IDS d 502      34.670  23.417 107.159  0.00  0.00     0.210 HD
ATOM     42  H   IDS d 502      32.412  23.655 106.653  0.00  0.00     0.092 H 
ATOM     43  H   IDS d 502      32.263  21.746 111.077  0.00  0.00     0.133 H 
ATOM     44  H   IDS d 502      34.019  21.294 108.902  0.00  0.00     0.212 HD
ATOM     45  H   IDS d 502      33.512  24.898 108.540  0.00  0.00     0.091 H 
ATOM     46  H   IDS d 502      34.056  23.449 110.546  0.00  0.00     0.097 H 
ATOM     47  H   IDS d 502      32.609  21.459 107.546  0.00  0.00     0.104 H 
ATOM     48  S2  SGN d 505      21.412  33.019 112.183  0.00  0.00     0.251 S 
ATOM     49  O6  SGN d 505      21.361  31.658 111.506  0.00  0.00    -0.254 OA
ATOM     50  O5S SGN d 505      21.758  32.730 113.552  0.00  0.00    -0.572 OA
ATOM     51  C6  SGN d 505      22.198  31.184 110.508  0.00  0.00     0.067 C 
ATOM     52  O2S SGN d 505      19.006  25.560 113.202  0.00  0.00    -0.296 OA
ATOM     53  S1  SGN d 505      20.339  25.176 112.800  0.00  0.00     0.156 S 
ATOM     54  O6S SGN d 505      22.440  33.794 111.500  0.00  0.00    -0.572 OA
ATOM     55  O4  SGN d 505      20.085  30.313 108.968  0.00  0.00    -0.348 OA
ATOM     56  O5  SGN d 505      22.226  29.121 111.550  0.00  0.00    -0.349 OA
ATOM     57  O4S SGN d 505      20.087  33.569 112.004  0.00  0.00    -0.572 OA
ATOM     58  C1  SGN d 505      22.117  27.726 111.521  0.00  0.00     0.150 C 
ATOM     59  O1S SGN d 505      21.358  25.720 113.673  0.00  0.00    -0.296 OA
ATOM     60  N   SGN d 505      20.548  25.865 111.286  0.00  0.00    -0.210 NA
ATOM     61  C3  SGN d 505      20.209  27.983 109.901  0.00  0.00     0.083 C 
ATOM     62  C2  SGN d 505      20.682  27.338 111.218  0.00  0.00     0.081 C 
ATOM     63  O3S SGN d 505      20.444  23.770 112.633  0.00  0.00    -0.296 OA
ATOM     64  C4  SGN d 505      20.397  29.516 110.092  0.00  0.00     0.095 C 
ATOM     65  C5  SGN d 505      21.851  29.739 110.358  0.00  0.00     0.091 C 
ATOM     66  O3  SGN d 505      18.835  27.669 109.712  0.00  0.00    -0.391 OA
ATOM     67  H   SGN d 505      23.223  31.297 110.793  0.00  0.00     0.080 H 
ATOM     68  H   SGN d 505      22.073  31.723 109.591  0.00  0.00     0.080 H 
ATOM     69  H   SGN d 505      18.966  26.523 113.308  0.00  0.00     0.231 HD
ATOM     70  H   SGN d 505      22.379  27.325 112.478  0.00  0.00     0.131 H 
ATOM     71  H   SGN d 505      21.239  26.680 113.750  0.00  0.00     0.231 HD
ATOM     72  H   SGN d 505      19.742  25.604 110.718  0.00  0.00     0.140 HD
ATOM     73  H   SGN d 505      20.753  27.635 109.047  0.00  0.00     0.089 H 
ATOM     74  H   SGN d 505      20.016  27.729 111.958  0.00  0.00     0.076 H 
ATOM     75  H   SGN d 505      19.740  23.461 112.041  0.00  0.00     0.231 HD
ATOM     76  H   SGN d 505      19.729  29.804 110.876  0.00  0.00     0.091 H 
ATOM     77  H   SGN d 505      22.363  29.330 109.512  0.00  0.00     0.090 H 
ATOM     78  H   SGN d 505      18.325  27.977 110.478  0.00  0.00     0.210 HD
ATOM     79  C6  SGN d 503      27.207  23.061 107.423  0.00  0.00     0.067 C 
ATOM     80  O6  SGN d 503      26.588  23.533 106.246  0.00  0.00    -0.254 OA
ATOM     81  C4  SGN d 503      27.771  25.474 108.058  0.00  0.00     0.095 C 
ATOM     82  O5  SGN d 503      29.170  24.020 106.724  0.00  0.00    -0.349 OA
ATOM     83  O4  SGN d 503      26.976  25.462 109.199  0.00  0.00    -0.348 OA
ATOM     84  S1  SGN d 503      31.851  27.661 106.015  0.00  0.00     0.156 S 
ATOM     85  O4S SGN d 503      25.379  21.501 105.767  0.00  0.00    -0.572 OA
ATOM     86  O2S SGN d 503      30.848  28.324 105.182  0.00  0.00    -0.296 OA
ATOM     87  C3  SGN d 503      28.948  26.416 108.298  0.00  0.00     0.083 C 
ATOM     88  S2  SGN d 503      25.947  22.648 105.145  0.00  0.00     0.251 S 
ATOM     89  O5S SGN d 503      24.937  23.462 104.475  0.00  0.00    -0.572 OA
ATOM     90  C1  SGN d 503      30.325  24.793 106.938  0.00  0.00     0.150 C 
ATOM     91  O1S SGN d 503      32.439  26.514 105.351  0.00  0.00    -0.296 OA
ATOM     92  O6S SGN d 503      27.042  22.270 104.339  0.00  0.00    -0.572 OA
ATOM     93  C2  SGN d 503      29.927  26.261 107.148  0.00  0.00     0.081 C 
ATOM     94  N   SGN d 503      31.107  27.085 107.343  0.00  0.00    -0.210 NA
ATOM     95  O3  SGN d 503      28.452  27.741 108.333  0.00  0.00    -0.391 OA
ATOM     96  C5  SGN d 503      28.281  24.046 107.797  0.00  0.00     0.091 C 
ATOM     97  O3S SGN d 503      32.847  28.558 106.556  0.00  0.00    -0.296 OA
ATOM     98  H   SGN d 503      26.486  22.989 108.211  0.00  0.00     0.080 H 
ATOM     99  H   SGN d 503      27.626  22.089 107.263  0.00  0.00     0.080 H 
ATOM    100  H   SGN d 503      27.214  25.810 107.209  0.00  0.00     0.091 H 
ATOM    101  H   SGN d 503      30.215  27.666 104.854  0.00  0.00     0.231 HD
ATOM    102  H   SGN d 503      29.443  26.192 109.220  0.00  0.00     0.089 H 
ATOM    103  H   SGN d 503      30.950  24.720 106.072  0.00  0.00     0.131 H 
ATOM    104  H   SGN d 503      31.734  25.944 105.005  0.00  0.00     0.231 HD
ATOM    105  H   SGN d 503      29.426  26.598 106.265  0.00  0.00     0.076 H 
ATOM    106  H   SGN d 503      30.830  27.886 107.909  0.00  0.00     0.140 HD
ATOM    107  H   SGN d 503      28.005  27.941 107.496  0.00  0.00     0.210 HD
ATOM    108  H   SGN d 503      28.727  23.766 108.728  0.00  0.00     0.090 H 
ATOM    109  H   SGN d 503      33.477  28.054 107.095  0.00  0.00     0.231 HD
ATOM    110  O61 IDS d 504      24.397  29.493 108.571  0.00  0.00    -0.646 OA
ATOM    111  O62 IDS d 504      25.581  30.065 110.216  0.00  0.00    -0.646 OA
ATOM    112  O3S IDS d 504      24.075  22.247 109.195  0.00  0.00    -0.572 OA
ATOM    113  S   IDS d 504      22.973  23.060 109.551  0.00  0.00     0.252 S 
ATOM    114  C6  IDS d 504      25.076  29.168 109.537  0.00  0.00     0.206 C 
ATOM    115  O3  IDS d 504      26.026  25.808 112.001  0.00  0.00    -0.390 OA
ATOM    116  C1  IDS d 504      25.604  25.531 108.937  0.00  0.00     0.161 C 
ATOM    117  O2  IDS d 504      23.570  24.478 109.602  0.00  0.00    -0.244 OA
ATOM    118  C5  IDS d 504      25.271  27.688 109.904  0.00  0.00     0.152 C 
ATOM    119  C4  IDS d 504      24.358  27.169 111.013  0.00  0.00     0.103 C 
ATOM    120  O5  IDS d 504      25.147  26.876 108.758  0.00  0.00    -0.340 OA
ATOM    121  O4  IDS d 504      23.006  27.185 110.581  0.00  0.00    -0.348 OA
ATOM    122  C2  IDS d 504      24.868  24.840 110.068  0.00  0.00     0.134 C 
ATOM    123  O1S IDS d 504      22.506  22.776 110.859  0.00  0.00    -0.572 OA
ATOM    124  O2S IDS d 504      21.902  23.074 108.599  0.00  0.00    -0.572 OA
ATOM    125  C3  IDS d 504      24.760  25.743 111.356  0.00  0.00     0.094 C 
ATOM    126  H   IDS d 504      25.957  26.364 112.793  0.00  0.00     0.210 HD
ATOM    127  H   IDS d 504      25.403  25.034 108.011  0.00  0.00     0.133 H 
ATOM    128  H   IDS d 504      26.262  27.630 110.301  0.00  0.00     0.104 H 
ATOM    129  H   IDS d 504      24.455  27.797 111.875  0.00  0.00     0.092 H 
ATOM    130  H   IDS d 504      25.422  23.971 110.354  0.00  0.00     0.097 H 
ATOM    131  H   IDS d 504      24.016  25.303 111.988  0.00  0.00     0.091 H 
ENDROOT
TORSDOF 40
ENDMDL
MODEL 52
REMARK VINA RESULT:      -9.3      4.503     11.218
REMARK  0 active torsions:
REMARK  status: ('A' for Active; 'I' for Inactive)
REMARK       I    between atoms: C6_1  and  C5_82 
REMARK       I    between atoms: O2_4  and  C2_65 
REMARK       I    between atoms: O2_4  and  S_6 
REMARK       I    between atoms: S2_5  and  O6_13 
REMARK       I    between atoms: C6_7  and  C5_66 
REMARK       I    between atoms: C6_7  and  O6_11 
REMARK       I    between atoms: S_8  and  O2_37 
REMARK       I    between atoms: O6_11  and  S2_34 
REMARK       I    between atoms: O6_13  and  C6_16 
REMARK       I    between atoms: C6_16  and  C5_76 
REMARK       I    between atoms: O2S_17  and  S1_21 
REMARK       I    between atoms: O4_18  and  C4_33 
REMARK       I    between atoms: C4_19  and  O4_25 
REMARK       I    between atoms: O3_20  and  C3_57 
REMARK       I    between atoms: S1_21  and  N_56 
REMARK       I    between atoms: S1_21  and  O1S_55 
REMARK       I    between atoms: S1_21  and  O3S_68 
REMARK       I    between atoms: O3_24  and  C3_80 
REMARK       I    between atoms: O4_25  and  C1_53 
REMARK       I    between atoms: S1_26  and  N_59 
REMARK       I    between atoms: S1_26  and  O1S_42 
REMARK       I    between atoms: S1_26  and  O2S_29 
REMARK       I    between atoms: S1_26  and  O3S_87 
REMARK       I    between atoms: S_30  and  O2_54 
REMARK       I    between atoms: C3_31  and  O3_61 
REMARK       I    between atoms: O4_36  and  C4_70 
REMARK       I    between atoms: O4_36  and  C1_52 
REMARK       I    between atoms: O2_37  and  C2_45 
REMARK       I    between atoms: C4_38  and  O4_71 
REMARK       I    between atoms: C1_39  and  O1_51 
REMARK       I    between atoms: C1_40  and  O4_71 
REMARK       I    between atoms: C6_46  and  C5_84 
REMARK       I    between atoms: C6_47  and  C5_64 
REMARK       I    between atoms: C1_48  and  O4_77 
REMARK       I    between atoms: O3_50  and  C3_86 
REMARK       I    between atoms: O2_54  and  C2_79 
REMARK       I    between atoms: N_56  and  C2_67 
REMARK       I    between atoms: C2_58  and  N_59 
REMARK       I    between atoms: C3_62  and  O3_81 
REMARK       I    between atoms: C4_69  and  O4_77 
ROOT
ATOM      1  C6  IDS d 506      30.668  23.577 104.151  0.00  0.00     0.206 C 
ATOM      2  O62 IDS d 506      30.714  23.031 103.062  0.00  0.00    -0.646 OA
ATOM      3  S   IDS d 506      29.934  20.509 109.574  0.00  0.00     0.252 S 
ATOM      4  O1S IDS d 506      29.424  19.419 108.799  0.00  0.00    -0.572 OA
ATOM      5  O3S IDS d 506      29.084  20.859 110.691  0.00  0.00    -0.572 OA
ATOM      6  O4  IDS d 506      30.868  21.043 105.746  0.00  0.00    -0.390 OA
ATOM      7  O3  IDS d 506      27.320  21.316 106.151  0.00  0.00    -0.390 OA
ATOM      8  C4  IDS d 506      29.607  21.590 105.438  0.00  0.00     0.097 C 
ATOM      9  O2  IDS d 506      29.893  21.763 108.599  0.00  0.00    -0.244 OA
ATOM     10  C2  IDS d 506      28.810  22.233 107.821  0.00  0.00     0.134 C 
ATOM     11  C1  IDS d 506      29.055  23.690 107.401  0.00  0.00     0.161 C 
ATOM     12  O2S IDS d 506      31.300  20.280 109.950  0.00  0.00    -0.572 OA
ATOM     13  O5  IDS d 506      30.088  23.708 106.449  0.00  0.00    -0.340 OA
ATOM     14  O61 IDS d 506      31.395  24.542 104.341  0.00  0.00    -0.646 OA
ATOM     15  C3  IDS d 506      28.666  21.262 106.617  0.00  0.00     0.094 C 
ATOM     16  C5  IDS d 506      29.732  23.105 105.249  0.00  0.00     0.152 C 
ATOM     17  H   IDS d 506      30.785  20.083 105.865  0.00  0.00     0.210 HD
ATOM     18  H   IDS d 506      27.214  20.714 105.398  0.00  0.00     0.210 HD
ATOM     19  H   IDS d 506      29.219  21.178 104.530  0.00  0.00     0.091 H 
ATOM     20  H   IDS d 506      27.892  22.243 108.371  0.00  0.00     0.097 H 
ATOM     21  H   IDS d 506      28.159  24.113 106.999  0.00  0.00     0.133 H 
ATOM     22  H   IDS d 506      28.935  20.287 106.968  0.00  0.00     0.091 H 
ATOM     23  H   IDS d 506      28.758  23.405 104.924  0.00  0.00     0.104 H 
ATOM     24  O62 IDS d 502      16.174  29.112 109.000  0.00  0.00    -0.646 OA
ATOM     25  O2  IDS d 502      18.924  31.519 113.309  0.00  0.00    -0.244 OA
ATOM     26  S   IDS d 502      19.767  31.074 114.549  0.00  0.00     0.252 S 
ATOM     27  O3  IDS d 502      15.444  30.665 113.402  0.00  0.00    -0.390 OA
ATOM     28  O2S IDS d 502      20.867  30.300 114.021  0.00  0.00    -0.572 OA
ATOM     29  C4  IDS d 502      17.052  29.708 111.889  0.00  0.00     0.103 C 
ATOM     30  C1  IDS d 502      17.268  32.595 111.996  0.00  0.00     0.158 C 
ATOM     31  O61 IDS d 502      17.723  30.424 108.577  0.00  0.00    -0.646 OA
ATOM     32  C6  IDS d 502      16.888  30.030 109.355  0.00  0.00     0.206 C 
ATOM     33  O1  IDS d 502      15.950  33.070 112.073  0.00  0.00    -0.368 OA
ATOM     34  C3  IDS d 502      16.828  30.429 113.233  0.00  0.00     0.094 C 
ATOM     35  O3S IDS d 502      20.173  32.305 115.178  0.00  0.00    -0.572 OA
ATOM     36  O5  IDS d 502      17.502  31.838 110.836  0.00  0.00    -0.340 OA
ATOM     37  C2  IDS d 502      17.547  31.781 113.256  0.00  0.00     0.134 C 
ATOM     38  O4  IDS d 502      18.389  29.289 111.796  0.00  0.00    -0.348 OA
ATOM     39  O1S IDS d 502      18.905  30.294 115.392  0.00  0.00    -0.572 OA
ATOM     40  C5  IDS d 502      16.734  30.655 110.734  0.00  0.00     0.152 C 
ATOM     41  H   IDS d 502      14.967  29.820 113.390  0.00  0.00     0.210 HD
ATOM     42  H   IDS d 502      16.405  28.857 111.836  0.00  0.00     0.092 H 
ATOM     43  H   IDS d 502      17.937  33.427 111.935  0.00  0.00     0.133 H 
ATOM     44  H   IDS d 502      15.338  32.319 112.129  0.00  0.00     0.212 HD
ATOM     45  H   IDS d 502      17.215  29.810 114.016  0.00  0.00     0.091 H 
ATOM     46  H   IDS d 502      17.202  32.342 114.098  0.00  0.00     0.097 H 
ATOM     47  H   IDS d 502      15.695  30.892 110.829  0.00  0.00     0.104 H 
ATOM     48  S2  SGN d 505      31.519  25.585 112.231  0.00  0.00     0.251 S 
ATOM     49  O6  SGN d 505      30.552  25.849 111.087  0.00  0.00    -0.254 OA
ATOM     50  O5S SGN d 505      31.859  26.895 112.727  0.00  0.00    -0.572 OA
ATOM     51  C6  SGN d 505      29.210  25.503 111.024  0.00  0.00     0.067 C 
ATOM     52  O2S SGN d 505      30.211  30.337 106.053  0.00  0.00    -0.296 OA
ATOM     53  S1  SGN d 505      28.877  30.500 106.582  0.00  0.00     0.156 S 
ATOM     54  O6S SGN d 505      30.802  24.786 113.216  0.00  0.00    -0.572 OA
ATOM     55  O4  SGN d 505      29.475  24.412 108.508  0.00  0.00    -0.348 OA
ATOM     56  O5  SGN d 505      28.761  27.546 110.038  0.00  0.00    -0.349 OA
ATOM     57  O4S SGN d 505      32.619  24.869 111.626  0.00  0.00    -0.572 OA
ATOM     58  C1  SGN d 505      28.161  28.326 109.043  0.00  0.00     0.150 C 
ATOM     59  O1S SGN d 505      28.877  31.056 107.919  0.00  0.00    -0.296 OA
ATOM     60  N   SGN d 505      28.259  28.945 106.680  0.00  0.00    -0.210 NA
ATOM     61  C3  SGN d 505      28.773  26.543 107.377  0.00  0.00     0.083 C 
ATOM     62  C2  SGN d 505      28.828  28.047 107.711  0.00  0.00     0.081 C 
ATOM     63  O3S SGN d 505      28.048  31.220 105.682  0.00  0.00    -0.296 OA
ATOM     64  C4  SGN d 505      29.469  25.823 108.569  0.00  0.00     0.095 C 
ATOM     65  C5  SGN d 505      28.690  26.174 109.794  0.00  0.00     0.091 C 
ATOM     66  O3  SGN d 505      29.493  26.322 106.171  0.00  0.00    -0.391 OA
ATOM     67  H   SGN d 505      28.692  25.855 111.892  0.00  0.00     0.080 H 
ATOM     68  H   SGN d 505      29.072  24.443 110.990  0.00  0.00     0.080 H 
ATOM     69  H   SGN d 505      30.753  29.843 106.689  0.00  0.00     0.231 HD
ATOM     70  H   SGN d 505      28.290  29.363 109.274  0.00  0.00     0.131 H 
ATOM     71  H   SGN d 505      29.458  30.527 108.489  0.00  0.00     0.231 HD
ATOM     72  H   SGN d 505      28.405  28.501 105.773  0.00  0.00     0.140 HD
ATOM     73  H   SGN d 505      27.775  26.182 107.243  0.00  0.00     0.089 H 
ATOM     74  H   SGN d 505      29.873  28.270 107.751  0.00  0.00     0.076 H 
ATOM     75  H   SGN d 505      28.086  30.805 104.806  0.00  0.00     0.231 HD
ATOM     76  H   SGN d 505      30.490  26.142 108.556  0.00  0.00     0.091 H 
ATOM     77  H   SGN d 505      27.689  25.849 109.601  0.00  0.00     0.090 H 
ATOM     78  H   SGN d 505      30.402  26.643 106.274  0.00  0.00     0.210 HD
ATOM     79  C6  SGN d 503      20.198  28.829 108.141  0.00  0.00     0.067 C 
ATOM     80  O6  SGN d 503      20.239  27.510 107.641  0.00  0.00    -0.254 OA
ATOM     81  C4  SGN d 503      21.281  28.008 110.309  0.00  0.00     0.095 C 
ATOM     82  O5  SGN d 503      18.901  28.085 109.881  0.00  0.00    -0.349 OA
ATOM     83  O4  SGN d 503      22.437  28.760 110.130  0.00  0.00    -0.348 OA
ATOM     84  S1  SGN d 503      18.367  25.883 113.857  0.00  0.00     0.156 S 
ATOM     85  O4S SGN d 503      19.873  28.107 105.332  0.00  0.00    -0.572 OA
ATOM     86  O2S SGN d 503      18.948  24.649 113.332  0.00  0.00    -0.296 OA
ATOM     87  C3  SGN d 503      21.025  27.862 111.807  0.00  0.00     0.083 C 
ATOM     88  S2  SGN d 503      19.689  27.048 106.266  0.00  0.00     0.251 S 
ATOM     89  O5S SGN d 503      20.434  25.851 105.887  0.00  0.00    -0.572 OA
ATOM     90  C1  SGN d 503      18.567  28.013 111.244  0.00  0.00     0.150 C 
ATOM     91  O1S SGN d 503      17.057  26.151 113.294  0.00  0.00    -0.296 OA
ATOM     92  O6S SGN d 503      18.313  26.846 106.504  0.00  0.00    -0.572 OA
ATOM     93  C2  SGN d 503      19.656  27.236 111.999  0.00  0.00     0.081 C 
ATOM     94  N   SGN d 503      19.317  27.125 113.407  0.00  0.00    -0.210 NA
ATOM     95  O3  SGN d 503      22.022  27.013 112.343  0.00  0.00    -0.391 OA
ATOM     96  C5  SGN d 503      20.106  28.743 109.640  0.00  0.00     0.091 C 
ATOM     97  O3S SGN d 503      18.375  25.966 115.300  0.00  0.00    -0.296 OA
ATOM     98  H   SGN d 503      21.087  29.354 107.859  0.00  0.00     0.080 H 
ATOM     99  H   SGN d 503      19.357  29.357 107.741  0.00  0.00     0.080 H 
ATOM    100  H   SGN d 503      21.385  27.038 109.870  0.00  0.00     0.091 H 
ATOM    101  H   SGN d 503      18.909  24.661 112.362  0.00  0.00     0.231 HD
ATOM    102  H   SGN d 503      21.056  28.811 112.300  0.00  0.00     0.089 H 
ATOM    103  H   SGN d 503      17.636  27.496 111.341  0.00  0.00     0.131 H 
ATOM    104  H   SGN d 503      17.101  26.084 112.327  0.00  0.00     0.231 HD
ATOM    105  H   SGN d 503      19.702  26.250 111.587  0.00  0.00     0.076 H 
ATOM    106  H   SGN d 503      20.192  27.044 113.925  0.00  0.00     0.140 HD
ATOM    107  H   SGN d 503      21.991  26.153 111.894  0.00  0.00     0.210 HD
ATOM    108  H   SGN d 503      20.150  29.724 110.067  0.00  0.00     0.090 H 
ATOM    109  H   SGN d 503      17.977  26.805 115.579  0.00  0.00     0.231 HD
ATOM    110  O61 IDS d 504      25.837  25.399 110.792  0.00  0.00    -0.646 OA
ATOM    111  O62 IDS d 504      26.141  26.574 112.512  0.00  0.00    -0.646 OA
ATOM    112  O3S IDS d 504      22.954  30.109 106.048  0.00  0.00    -0.572 OA
ATOM    113  S   IDS d 504      24.304  29.700 105.941  0.00  0.00     0.252 S 
ATOM    114  C6  IDS d 504      25.714  26.476 111.359  0.00  0.00     0.206 C 
ATOM    115  O3  IDS d 504      24.748  30.573 110.622  0.00  0.00    -0.390 OA
ATOM    116  C1  IDS d 504      23.299  28.255 109.152  0.00  0.00     0.161 C 
ATOM    117  O2  IDS d 504      24.583  29.014 107.291  0.00  0.00    -0.244 OA
ATOM    118  C5  IDS d 504      25.067  27.676 110.647  0.00  0.00     0.152 C 
ATOM    119  C4  IDS d 504      26.049  28.680 110.047  0.00  0.00     0.103 C 
ATOM    120  O5  IDS d 504      24.165  27.234 109.658  0.00  0.00    -0.340 OA
ATOM    121  O4  IDS d 504      26.782  28.076 108.991  0.00  0.00    -0.348 OA
ATOM    122  C2  IDS d 504      24.085  29.411 108.567  0.00  0.00     0.134 C 
ATOM    123  O1S IDS d 504      25.188  30.805 105.863  0.00  0.00    -0.572 OA
ATOM    124  O2S IDS d 504      24.564  28.742 104.906  0.00  0.00    -0.572 OA
ATOM    125  C3  IDS d 504      25.270  29.868 109.503  0.00  0.00     0.094 C 
ATOM    126  H   IDS d 504      25.478  30.853 111.197  0.00  0.00     0.210 HD
ATOM    127  H   IDS d 504      22.717  27.784 108.387  0.00  0.00     0.133 H 
ATOM    128  H   IDS d 504      24.550  28.208 111.417  0.00  0.00     0.104 H 
ATOM    129  H   IDS d 504      26.733  29.003 110.804  0.00  0.00     0.092 H 
ATOM    130  H   IDS d 504      23.434  30.254 108.473  0.00  0.00     0.097 H 
ATOM    131  H   IDS d 504      25.918  30.482 108.914  0.00  0.00     0.091 H 
ENDROOT
TORSDOF 40
ENDMDL
MODEL 53
REMARK VINA RESULT:      -9.2      6.199      9.751
REMARK  0 active torsions:
REMARK  status: ('A' for Active; 'I' for Inactive)
REMARK       I    between atoms: C6_1  and  C5_82 
REMARK       I    between atoms: O2_4  and  C2_65 
REMARK       I    between atoms: O2_4  and  S_6 
REMARK       I    between atoms: S2_5  and  O6_13 
REMARK       I    between atoms: C6_7  and  C5_66 
REMARK       I    between atoms: C6_7  and  O6_11 
REMARK       I    between atoms: S_8  and  O2_37 
REMARK       I    between atoms: O6_11  and  S2_34 
REMARK       I    between atoms: O6_13  and  C6_16 
REMARK       I    between atoms: C6_16  and  C5_76 
REMARK       I    between atoms: O2S_17  and  S1_21 
REMARK       I    between atoms: O4_18  and  C4_33 
REMARK       I    between atoms: C4_19  and  O4_25 
REMARK       I    between atoms: O3_20  and  C3_57 
REMARK       I    between atoms: S1_21  and  N_56 
REMARK       I    between atoms: S1_21  and  O1S_55 
REMARK       I    between atoms: S1_21  and  O3S_68 
REMARK       I    between atoms: O3_24  and  C3_80 
REMARK       I    between atoms: O4_25  and  C1_53 
REMARK       I    between atoms: S1_26  and  N_59 
REMARK       I    between atoms: S1_26  and  O1S_42 
REMARK       I    between atoms: S1_26  and  O2S_29 
REMARK       I    between atoms: S1_26  and  O3S_87 
REMARK       I    between atoms: S_30  and  O2_54 
REMARK       I    between atoms: C3_31  and  O3_61 
REMARK       I    between atoms: O4_36  and  C4_70 
REMARK       I    between atoms: O4_36  and  C1_52 
REMARK       I    between atoms: O2_37  and  C2_45 
REMARK       I    between atoms: C4_38  and  O4_71 
REMARK       I    between atoms: C1_39  and  O1_51 
REMARK       I    between atoms: C1_40  and  O4_71 
REMARK       I    between atoms: C6_46  and  C5_84 
REMARK       I    between atoms: C6_47  and  C5_64 
REMARK       I    between atoms: C1_48  and  O4_77 
REMARK       I    between atoms: O3_50  and  C3_86 
REMARK       I    between atoms: O2_54  and  C2_79 
REMARK       I    between atoms: N_56  and  C2_67 
REMARK       I    between atoms: C2_58  and  N_59 
REMARK       I    between atoms: C3_62  and  O3_81 
REMARK       I    between atoms: C4_69  and  O4_77 
ROOT
ATOM      1  C6  IDS d 506      14.947  24.611 108.976  0.00  0.00     0.206 C 
ATOM      2  O62 IDS d 506      13.891  24.140 108.590  0.00  0.00    -0.646 OA
ATOM      3  S   IDS d 506      18.368  28.702 105.672  0.00  0.00     0.252 S 
ATOM      4  O1S IDS d 506      17.649  28.253 104.519  0.00  0.00    -0.572 OA
ATOM      5  O3S IDS d 506      19.802  28.718 105.479  0.00  0.00    -0.572 OA
ATOM      6  O4  IDS d 506      15.138  26.685 106.816  0.00  0.00    -0.390 OA
ATOM      7  O3  IDS d 506      17.433  24.446 105.219  0.00  0.00    -0.390 OA
ATOM      8  C4  IDS d 506      15.772  25.437 106.659  0.00  0.00     0.097 C 
ATOM      9  O2  IDS d 506      18.100  27.597 106.781  0.00  0.00    -0.244 OA
ATOM     10  C2  IDS d 506      18.252  26.195 106.676  0.00  0.00     0.134 C 
ATOM     11  C1  IDS d 506      18.331  25.565 108.074  0.00  0.00     0.161 C 
ATOM     12  O2S IDS d 506      17.846  29.951 106.151  0.00  0.00    -0.572 OA
ATOM     13  O5  IDS d 506      17.061  25.646 108.668  0.00  0.00    -0.340 OA
ATOM     14  O61 IDS d 506      15.057  24.876 110.165  0.00  0.00    -0.646 OA
ATOM     15  C3  IDS d 506      17.054  25.675 105.833  0.00  0.00     0.094 C 
ATOM     16  C5  IDS d 506      16.112  24.853 108.034  0.00  0.00     0.152 C 
ATOM     17  H   IDS d 506      14.924  27.051 105.943  0.00  0.00     0.210 HD
ATOM     18  H   IDS d 506      16.694  24.108 104.689  0.00  0.00     0.210 HD
ATOM     19  H   IDS d 506      15.133  24.740 106.157  0.00  0.00     0.091 H 
ATOM     20  H   IDS d 506      19.164  25.923 106.186  0.00  0.00     0.097 H 
ATOM     21  H   IDS d 506      18.654  24.548 108.002  0.00  0.00     0.133 H 
ATOM     22  H   IDS d 506      16.825  26.434 105.115  0.00  0.00     0.091 H 
ATOM     23  H   IDS d 506      16.491  23.877 107.813  0.00  0.00     0.104 H 
ATOM     24  O62 IDS d 502      28.373  15.920 106.076  0.00  0.00    -0.646 OA
ATOM     25  O2  IDS d 502      31.084  19.676 109.310  0.00  0.00    -0.244 OA
ATOM     26  S   IDS d 502      31.422  21.203 109.290  0.00  0.00     0.252 S 
ATOM     27  O3  IDS d 502      32.694  17.690 106.797  0.00  0.00    -0.390 OA
ATOM     28  O2S IDS d 502      30.152  21.888 109.215  0.00  0.00    -0.572 OA
ATOM     29  C4  IDS d 502      30.334  18.153 106.878  0.00  0.00     0.103 C 
ATOM     30  C1  IDS d 502      31.352  17.325 109.461  0.00  0.00     0.158 C 
ATOM     31  O61 IDS d 502      27.705  16.222 108.015  0.00  0.00    -0.646 OA
ATOM     32  C6  IDS d 502      28.599  16.299 107.209  0.00  0.00     0.206 C 
ATOM     33  O1  IDS d 502      32.284  16.312 109.193  0.00  0.00    -0.368 OA
ATOM     34  C3  IDS d 502      31.743  18.603 107.309  0.00  0.00     0.094 C 
ATOM     35  O3S IDS d 502      32.136  21.437 110.519  0.00  0.00    -0.572 OA
ATOM     36  O5  IDS d 502      30.064  17.012 108.993  0.00  0.00    -0.340 OA
ATOM     37  C2  IDS d 502      31.870  18.616 108.835  0.00  0.00     0.134 C 
ATOM     38  O4  IDS d 502      29.400  19.149 107.205  0.00  0.00    -0.348 OA
ATOM     39  O1S IDS d 502      32.242  21.444 108.135  0.00  0.00    -0.572 OA
ATOM     40  C5  IDS d 502      29.964  16.854 107.592  0.00  0.00     0.152 C 
ATOM     41  H   IDS d 502      32.631  17.665 105.830  0.00  0.00     0.210 HD
ATOM     42  H   IDS d 502      30.327  17.988 105.820  0.00  0.00     0.092 H 
ATOM     43  H   IDS d 502      31.252  17.438 110.520  0.00  0.00     0.133 H 
ATOM     44  H   IDS d 502      32.379  16.205 108.233  0.00  0.00     0.212 HD
ATOM     45  H   IDS d 502      31.911  19.591 106.933  0.00  0.00     0.091 H 
ATOM     46  H   IDS d 502      32.903  18.721 109.095  0.00  0.00     0.097 H 
ATOM     47  H   IDS d 502      30.675  16.127 107.261  0.00  0.00     0.104 H 
ATOM     48  S2  SGN d 505      21.406  29.648 110.694  0.00  0.00     0.251 S 
ATOM     49  O6  SGN d 505      21.140  28.164 110.490  0.00  0.00    -0.254 OA
ATOM     50  O5S SGN d 505      22.082  29.724 111.965  0.00  0.00    -0.572 OA
ATOM     51  C6  SGN d 505      21.680  27.341 109.513  0.00  0.00     0.067 C 
ATOM     52  O2S SGN d 505      19.105  23.082 114.444  0.00  0.00    -0.296 OA
ATOM     53  S1  SGN d 505      20.278  22.461 113.875  0.00  0.00     0.156 S 
ATOM     54  O6S SGN d 505      22.249  30.084 109.588  0.00  0.00    -0.572 OA
ATOM     55  O4  SGN d 505      19.217  26.299 108.847  0.00  0.00    -0.348 OA
ATOM     56  O5  SGN d 505      21.908  25.667 111.091  0.00  0.00    -0.349 OA
ATOM     57  O4S SGN d 505      20.098  30.262 110.673  0.00  0.00    -0.572 OA
ATOM     58  C1  SGN d 505      21.750  24.340 111.509  0.00  0.00     0.150 C 
ATOM     59  O1S SGN d 505      21.503  23.118 114.279  0.00  0.00    -0.296 OA
ATOM     60  N   SGN d 505      20.116  22.667 112.220  0.00  0.00    -0.210 NA
ATOM     61  C3  SGN d 505      19.501  24.329 110.381  0.00  0.00     0.083 C 
ATOM     62  C2  SGN d 505      20.274  24.038 111.682  0.00  0.00     0.081 C 
ATOM     63  O3S SGN d 505      20.293  21.063 114.119  0.00  0.00    -0.296 OA
ATOM     64  C4  SGN d 505      19.780  25.825 110.052  0.00  0.00     0.095 C 
ATOM     65  C5  SGN d 505      21.260  25.958 109.891  0.00  0.00     0.091 C 
ATOM     66  O3  SGN d 505      18.116  24.122 110.624  0.00  0.00    -0.391 OA
ATOM     67  H   SGN d 505      22.747  27.420 109.503  0.00  0.00     0.080 H 
ATOM     68  H   SGN d 505      21.342  27.608 108.533  0.00  0.00     0.080 H 
ATOM     69  H   SGN d 505      19.124  24.035 114.261  0.00  0.00     0.231 HD
ATOM     70  H   SGN d 505      22.236  24.201 112.453  0.00  0.00     0.131 H 
ATOM     71  H   SGN d 505      21.438  24.068 114.090  0.00  0.00     0.231 HD
ATOM     72  H   SGN d 505      19.183  22.343 111.962  0.00  0.00     0.140 HD
ATOM     73  H   SGN d 505      19.798  23.697 109.570  0.00  0.00     0.089 H 
ATOM     74  H   SGN d 505      19.832  24.690 112.405  0.00  0.00     0.076 H 
ATOM     75  H   SGN d 505      19.452  20.676 113.830  0.00  0.00     0.231 HD
ATOM     76  H   SGN d 505      19.344  26.392 110.848  0.00  0.00     0.091 H 
ATOM     77  H   SGN d 505      21.526  25.274 109.111  0.00  0.00     0.090 H 
ATOM     78  H   SGN d 505      17.828  24.687 111.358  0.00  0.00     0.210 HD
ATOM     79  C6  SGN d 503      25.474  18.193 107.931  0.00  0.00     0.067 C 
ATOM     80  O6  SGN d 503      24.591  18.375 106.846  0.00  0.00    -0.254 OA
ATOM     81  C4  SGN d 503      26.259  20.613 107.660  0.00  0.00     0.095 C 
ATOM     82  O5  SGN d 503      27.224  18.701 106.537  0.00  0.00    -0.349 OA
ATOM     83  O4  SGN d 503      25.781  21.009 108.904  0.00  0.00    -0.348 OA
ATOM     84  S1  SGN d 503      29.748  21.686 104.157  0.00  0.00     0.156 S 
ATOM     85  O4S SGN d 503      23.236  16.431 107.299  0.00  0.00    -0.572 OA
ATOM     86  O2S SGN d 503      28.588  22.188 103.422  0.00  0.00    -0.296 OA
ATOM     87  C3  SGN d 503      27.487  21.454 107.322  0.00  0.00     0.083 C 
ATOM     88  S2  SGN d 503      23.662  17.287 106.245  0.00  0.00     0.251 S 
ATOM     89  O5S SGN d 503      22.541  17.981 105.618  0.00  0.00    -0.572 OA
ATOM     90  C1  SGN d 503      28.418  19.376 106.230  0.00  0.00     0.150 C 
ATOM     91  O1S SGN d 503      30.111  20.341 103.750  0.00  0.00    -0.296 OA
ATOM     92  O6S SGN d 503      24.503  16.583 105.357  0.00  0.00    -0.572 OA
ATOM     93  C2  SGN d 503      28.134  20.877 106.077  0.00  0.00     0.081 C 
ATOM     94  N   SGN d 503      29.351  21.592 105.732  0.00  0.00    -0.210 NA
ATOM     95  O3  SGN d 503      27.058  22.779 107.072  0.00  0.00    -0.391 OA
ATOM     96  C5  SGN d 503      26.639  19.123 107.729  0.00  0.00     0.091 C 
ATOM     97  O3S SGN d 503      30.877  22.588 104.153  0.00  0.00    -0.296 OA
ATOM     98  H   SGN d 503      24.977  18.424 108.850  0.00  0.00     0.080 H 
ATOM     99  H   SGN d 503      25.808  17.177 107.978  0.00  0.00     0.080 H 
ATOM    100  H   SGN d 503      25.514  20.752 106.904  0.00  0.00     0.091 H 
ATOM    101  H   SGN d 503      27.871  21.535 103.466  0.00  0.00     0.231 HD
ATOM    102  H   SGN d 503      28.193  21.449 108.126  0.00  0.00     0.089 H 
ATOM    103  H   SGN d 503      28.799  18.994 105.306  0.00  0.00     0.131 H 
ATOM    104  H   SGN d 503      29.323  19.775 103.768  0.00  0.00     0.231 HD
ATOM    105  H   SGN d 503      27.436  21.000 105.276  0.00  0.00     0.076 H 
ATOM    106  H   SGN d 503      29.252  22.545 106.080  0.00  0.00     0.140 HD
ATOM    107  H   SGN d 503      26.419  22.780 106.343  0.00  0.00     0.210 HD
ATOM    108  H   SGN d 503      27.299  19.073 108.569  0.00  0.00     0.090 H 
ATOM    109  H   SGN d 503      31.608  22.194 104.656  0.00  0.00     0.231 HD
ATOM    110  O61 IDS d 504      23.257  24.947 107.716  0.00  0.00    -0.646 OA
ATOM    111  O62 IDS d 504      24.839  25.832 108.786  0.00  0.00    -0.646 OA
ATOM    112  O3S IDS d 504      22.875  18.251 110.549  0.00  0.00    -0.572 OA
ATOM    113  S   IDS d 504      21.927  19.244 110.891  0.00  0.00     0.252 S 
ATOM    114  C6  IDS d 504      24.149  24.839 108.547  0.00  0.00     0.206 C 
ATOM    115  O3  IDS d 504      25.589  22.234 111.613  0.00  0.00    -0.390 OA
ATOM    116  C1  IDS d 504      24.391  21.146 108.963  0.00  0.00     0.161 C 
ATOM    117  O2  IDS d 504      22.561  20.547 110.371  0.00  0.00    -0.244 OA
ATOM    118  C5  IDS d 504      24.384  23.511 109.286  0.00  0.00     0.152 C 
ATOM    119  C4  IDS d 504      23.769  23.428 110.682  0.00  0.00     0.103 C 
ATOM    120  O5  IDS d 504      23.946  22.426 108.501  0.00  0.00    -0.340 OA
ATOM    121  O4  IDS d 504      22.352  23.465 110.595  0.00  0.00    -0.348 OA
ATOM    122  C2  IDS d 504      23.947  20.886 110.389  0.00  0.00     0.134 C 
ATOM    123  O1S IDS d 504      21.800  19.394 112.295  0.00  0.00    -0.572 OA
ATOM    124  O2S IDS d 504      20.649  19.102 110.258  0.00  0.00    -0.572 OA
ATOM    125  C3  IDS d 504      24.199  22.123 111.334  0.00  0.00     0.094 C 
ATOM    126  H   IDS d 504      25.743  22.996 112.194  0.00  0.00     0.210 HD
ATOM    127  H   IDS d 504      23.944  20.431 108.305  0.00  0.00     0.133 H 
ATOM    128  H   IDS d 504      25.442  23.464 109.438  0.00  0.00     0.104 H 
ATOM    129  H   IDS d 504      24.103  24.260 111.267  0.00  0.00     0.092 H 
ATOM    130  H   IDS d 504      24.527  20.080 110.786  0.00  0.00     0.097 H 
ATOM    131  H   IDS d 504      23.628  21.962 112.224  0.00  0.00     0.091 H 
ENDROOT
TORSDOF 40
ENDMDL
MODEL 54
REMARK VINA RESULT:      -9.2      4.501      8.358
REMARK  0 active torsions:
REMARK  status: ('A' for Active; 'I' for Inactive)
REMARK       I    between atoms: C6_1  and  C5_82 
REMARK       I    between atoms: O2_4  and  C2_65 
REMARK       I    between atoms: O2_4  and  S_6 
REMARK       I    between atoms: S2_5  and  O6_13 
REMARK       I    between atoms: C6_7  and  C5_66 
REMARK       I    between atoms: C6_7  and  O6_11 
REMARK       I    between atoms: S_8  and  O2_37 
REMARK       I    between atoms: O6_11  and  S2_34 
REMARK       I    between atoms: O6_13  and  C6_16 
REMARK       I    between atoms: C6_16  and  C5_76 
REMARK       I    between atoms: O2S_17  and  S1_21 
REMARK       I    between atoms: O4_18  and  C4_33 
REMARK       I    between atoms: C4_19  and  O4_25 
REMARK       I    between atoms: O3_20  and  C3_57 
REMARK       I    between atoms: S1_21  and  N_56 
REMARK       I    between atoms: S1_21  and  O1S_55 
REMARK       I    between atoms: S1_21  and  O3S_68 
REMARK       I    between atoms: O3_24  and  C3_80 
REMARK       I    between atoms: O4_25  and  C1_53 
REMARK       I    between atoms: S1_26  and  N_59 
REMARK       I    between atoms: S1_26  and  O1S_42 
REMARK       I    between atoms: S1_26  and  O2S_29 
REMARK       I    between atoms: S1_26  and  O3S_87 
REMARK       I    between atoms: S_30  and  O2_54 
REMARK       I    between atoms: C3_31  and  O3_61 
REMARK       I    between atoms: O4_36  and  C4_70 
REMARK       I    between atoms: O4_36  and  C1_52 
REMARK       I    between atoms: O2_37  and  C2_45 
REMARK       I    between atoms: C4_38  and  O4_71 
REMARK       I    between atoms: C1_39  and  O1_51 
REMARK       I    between atoms: C1_40  and  O4_71 
REMARK       I    between atoms: C6_46  and  C5_84 
REMARK       I    between atoms: C6_47  and  C5_64 
REMARK       I    between atoms: C1_48  and  O4_77 
REMARK       I    between atoms: O3_50  and  C3_86 
REMARK       I    between atoms: O2_54  and  C2_79 
REMARK       I    between atoms: N_56  and  C2_67 
REMARK       I    between atoms: C2_58  and  N_59 
REMARK       I    between atoms: C3_62  and  O3_81 
REMARK       I    between atoms: C4_69  and  O4_77 
ROOT
ATOM      1  C6  IDS d 506      14.987  24.986 109.180  0.00  0.00     0.206 C 
ATOM      2  O62 IDS d 506      14.137  24.185 109.527  0.00  0.00    -0.646 OA
ATOM      3  S   IDS d 506      16.740  25.868 103.221  0.00  0.00     0.252 S 
ATOM      4  O1S IDS d 506      16.175  24.582 102.947  0.00  0.00    -0.572 OA
ATOM      5  O3S IDS d 506      18.080  26.025 102.698  0.00  0.00    -0.572 OA
ATOM      6  O4  IDS d 506      14.406  24.763 106.245  0.00  0.00    -0.390 OA
ATOM      7  O3  IDS d 506      17.262  22.606 106.101  0.00  0.00    -0.390 OA
ATOM      8  C4  IDS d 506      15.414  23.972 106.830  0.00  0.00     0.097 C 
ATOM      9  O2  IDS d 506      16.892  25.922 104.802  0.00  0.00    -0.244 OA
ATOM     10  C2  IDS d 506      17.499  24.973 105.657  0.00  0.00     0.134 C 
ATOM     11  C1  IDS d 506      17.829  25.616 107.011  0.00  0.00     0.161 C 
ATOM     12  O2S IDS d 506      15.848  26.919 102.823  0.00  0.00    -0.572 OA
ATOM     13  O5  IDS d 506      16.624  25.851 107.695  0.00  0.00    -0.340 OA
ATOM     14  O61 IDS d 506      15.041  26.056 109.769  0.00  0.00    -0.646 OA
ATOM     15  C3  IDS d 506      16.516  23.774 105.768  0.00  0.00     0.094 C 
ATOM     16  C5  IDS d 506      15.974  24.681 108.068  0.00  0.00     0.152 C 
ATOM     17  H   IDS d 506      14.054  24.310 105.462  0.00  0.00     0.210 HD
ATOM     18  H   IDS d 506      16.661  21.849 106.174  0.00  0.00     0.210 HD
ATOM     19  H   IDS d 506      15.028  23.024 107.144  0.00  0.00     0.091 H 
ATOM     20  H   IDS d 506      18.433  24.620 105.271  0.00  0.00     0.097 H 
ATOM     21  H   IDS d 506      18.470  24.974 107.578  0.00  0.00     0.133 H 
ATOM     22  H   IDS d 506      16.024  23.686 104.822  0.00  0.00     0.091 H 
ATOM     23  H   IDS d 506      16.649  23.966 108.491  0.00  0.00     0.104 H 
ATOM     24  O62 IDS d 502      30.440  19.964 109.634  0.00  0.00    -0.646 OA
ATOM     25  O2  IDS d 502      31.848  25.316 108.498  0.00  0.00    -0.244 OA
ATOM     26  S   IDS d 502      31.657  26.352 107.341  0.00  0.00     0.252 S 
ATOM     27  O3  IDS d 502      33.945  22.508 107.745  0.00  0.00    -0.390 OA
ATOM     28  O2S IDS d 502      30.230  26.480 107.158  0.00  0.00    -0.572 OA
ATOM     29  C4  IDS d 502      31.570  22.388 108.111  0.00  0.00     0.103 C 
ATOM     30  C1  IDS d 502      32.889  23.970 110.148  0.00  0.00     0.158 C 
ATOM     31  O61 IDS d 502      29.773  21.456 110.909  0.00  0.00    -0.646 OA
ATOM     32  C6  IDS d 502      30.564  21.090 110.075  0.00  0.00     0.206 C 
ATOM     33  O1  IDS d 502      34.096  23.308 110.418  0.00  0.00    -0.368 OA
ATOM     34  C3  IDS d 502      32.761  23.281 107.714  0.00  0.00     0.094 C 
ATOM     35  O3S IDS d 502      32.292  27.555 107.817  0.00  0.00    -0.572 OA
ATOM     36  O5  IDS d 502      31.764  23.163 110.393  0.00  0.00    -0.340 OA
ATOM     37  C2  IDS d 502      32.927  24.443 108.699  0.00  0.00     0.134 C 
ATOM     38  O4  IDS d 502      30.368  23.082 107.894  0.00  0.00    -0.348 OA
ATOM     39  O1S IDS d 502      32.312  25.819 106.179  0.00  0.00    -0.572 OA
ATOM     40  C5  IDS d 502      31.677  22.006 109.585  0.00  0.00     0.152 C 
ATOM     41  H   IDS d 502      33.862  21.765 107.128  0.00  0.00     0.210 HD
ATOM     42  H   IDS d 502      31.583  21.500 107.514  0.00  0.00     0.092 H 
ATOM     43  H   IDS d 502      32.792  24.804 110.811  0.00  0.00     0.133 H 
ATOM     44  H   IDS d 502      34.190  22.550 109.820  0.00  0.00     0.212 HD
ATOM     45  H   IDS d 502      32.578  23.673 106.735  0.00  0.00     0.091 H 
ATOM     46  H   IDS d 502      33.873  24.911 108.526  0.00  0.00     0.097 H 
ATOM     47  H   IDS d 502      32.579  21.437 109.674  0.00  0.00     0.104 H 
ATOM     48  S2  SGN d 505      19.451  30.799 105.139  0.00  0.00     0.251 S 
ATOM     49  O6  SGN d 505      19.689  29.639 106.096  0.00  0.00    -0.254 OA
ATOM     50  O5S SGN d 505      20.104  31.923 105.763  0.00  0.00    -0.572 OA
ATOM     51  C6  SGN d 505      20.440  28.497 105.862  0.00  0.00     0.067 C 
ATOM     52  O2S SGN d 505      19.593  28.880 112.806  0.00  0.00    -0.296 OA
ATOM     53  S1  SGN d 505      20.887  28.297 112.538  0.00  0.00     0.156 S 
ATOM     54  O6S SGN d 505      20.065  30.432 103.870  0.00  0.00    -0.572 OA
ATOM     55  O4  SGN d 505      18.444  26.839 106.789  0.00  0.00    -0.348 OA
ATOM     56  O5  SGN d 505      21.264  28.632 108.018  0.00  0.00    -0.349 OA
ATOM     57  O4S SGN d 505      18.013  30.914 105.052  0.00  0.00    -0.572 OA
ATOM     58  C1  SGN d 505      21.571  28.056 109.256  0.00  0.00     0.150 C 
ATOM     59  O1S SGN d 505      21.835  29.266 112.030  0.00  0.00    -0.296 OA
ATOM     60  N   SGN d 505      20.611  27.174 111.325  0.00  0.00    -0.210 NA
ATOM     61  C3  SGN d 505      19.418  26.762 109.104  0.00  0.00     0.083 C 
ATOM     62  C2  SGN d 505      20.287  27.691 109.975  0.00  0.00     0.081 C 
ATOM     63  O3S SGN d 505      21.375  27.581 113.662  0.00  0.00    -0.296 OA
ATOM     64  C4  SGN d 505      19.172  27.537 107.778  0.00  0.00     0.095 C 
ATOM     65  C5  SGN d 505      20.517  27.802 107.182  0.00  0.00     0.091 C 
ATOM     66  O3  SGN d 505      18.190  26.528 109.781  0.00  0.00    -0.391 OA
ATOM     67  H   SGN d 505      21.418  28.757 105.515  0.00  0.00     0.080 H 
ATOM     68  H   SGN d 505      20.000  27.877 105.108  0.00  0.00     0.080 H 
ATOM     69  H   SGN d 505      19.287  29.362 112.021  0.00  0.00     0.231 HD
ATOM     70  H   SGN d 505      22.105  28.762 109.857  0.00  0.00     0.131 H 
ATOM     71  H   SGN d 505      21.451  29.724 111.265  0.00  0.00     0.231 HD
ATOM     72  H   SGN d 505      19.832  26.587 111.623  0.00  0.00     0.140 HD
ATOM     73  H   SGN d 505      19.882  25.816 108.914  0.00  0.00     0.089 H 
ATOM     74  H   SGN d 505      19.675  28.555 110.130  0.00  0.00     0.076 H 
ATOM     75  H   SGN d 505      20.702  26.949 113.959  0.00  0.00     0.231 HD
ATOM     76  H   SGN d 505      18.598  28.401 108.038  0.00  0.00     0.091 H 
ATOM     77  H   SGN d 505      20.970  26.840 107.058  0.00  0.00     0.090 H 
ATOM     78  H   SGN d 505      17.755  27.375 109.962  0.00  0.00     0.210 HD
ATOM     79  C6  SGN d 503      27.012  22.211 110.090  0.00  0.00     0.067 C 
ATOM     80  O6  SGN d 503      26.083  21.349 109.470  0.00  0.00    -0.254 OA
ATOM     81  C4  SGN d 503      26.936  23.726 108.030  0.00  0.00     0.095 C 
ATOM     82  O5  SGN d 503      28.445  21.861 108.334  0.00  0.00    -0.349 OA
ATOM     83  O4  SGN d 503      26.394  24.803 108.722  0.00  0.00    -0.348 OA
ATOM     84  S1  SGN d 503      29.752  22.533 103.999  0.00  0.00     0.156 S 
ATOM     85  O4S SGN d 503      25.469  20.159 111.477  0.00  0.00    -0.572 OA
ATOM     86  O2S SGN d 503      28.467  22.079 103.469  0.00  0.00    -0.296 OA
ATOM     87  C3  SGN d 503      27.802  24.266 106.894  0.00  0.00     0.083 C 
ATOM     88  S2  SGN d 503      25.551  20.017 110.063  0.00  0.00     0.251 S 
ATOM     89  O5S SGN d 503      24.243  19.774 109.462  0.00  0.00    -0.572 OA
ATOM     90  C1  SGN d 503      29.336  22.310 107.343  0.00  0.00     0.150 C 
ATOM     91  O1S SGN d 503      30.528  21.441 104.555  0.00  0.00    -0.296 OA
ATOM     92  O6S SGN d 503      26.549  19.078 109.726  0.00  0.00    -0.572 OA
ATOM     93  C2  SGN d 503      28.563  23.105 106.281  0.00  0.00     0.081 C 
ATOM     94  N   SGN d 503      29.460  23.556 105.231  0.00  0.00    -0.210 NA
ATOM     95  O3  SGN d 503      26.948  24.847 105.927  0.00  0.00    -0.391 OA
ATOM     96  C5  SGN d 503      27.793  22.896 109.001  0.00  0.00     0.091 C 
ATOM     97  O3S SGN d 503      30.515  23.339 103.073  0.00  0.00    -0.296 OA
ATOM     98  H   SGN d 503      26.496  22.938 110.682  0.00  0.00     0.080 H 
ATOM     99  H   SGN d 503      27.666  21.659 110.733  0.00  0.00     0.080 H 
ATOM    100  H   SGN d 503      26.163  23.107 107.624  0.00  0.00     0.091 H 
ATOM    101  H   SGN d 503      28.011  21.546 104.139  0.00  0.00     0.231 HD
ATOM    102  H   SGN d 503      28.495  24.999 107.250  0.00  0.00     0.089 H 
ATOM    103  H   SGN d 503      29.792  21.459 106.882  0.00  0.00     0.131 H 
ATOM    104  H   SGN d 503      29.976  20.931 105.168  0.00  0.00     0.231 HD
ATOM    105  H   SGN d 503      27.838  22.452 105.843  0.00  0.00     0.076 H 
ATOM    106  H   SGN d 503      29.061  24.406 104.834  0.00  0.00     0.140 HD
ATOM    107  H   SGN d 503      26.321  24.180 105.606  0.00  0.00     0.210 HD
ATOM    108  H   SGN d 503      28.459  23.618 109.425  0.00  0.00     0.090 H 
ATOM    109  H   SGN d 503      31.351  23.604 103.488  0.00  0.00     0.231 HD
ATOM    110  O61 IDS d 504      22.665  25.949 105.881  0.00  0.00    -0.646 OA
ATOM    111  O62 IDS d 504      23.895  27.628 105.569  0.00  0.00    -0.646 OA
ATOM    112  O3S IDS d 504      24.628  23.657 112.506  0.00  0.00    -0.572 OA
ATOM    113  S   IDS d 504      23.415  24.358 112.306  0.00  0.00     0.252 S 
ATOM    114  C6  IDS d 504      23.568  26.674 106.277  0.00  0.00     0.206 C 
ATOM    115  O3  IDS d 504      25.894  27.553 109.753  0.00  0.00    -0.390 OA
ATOM    116  C1  IDS d 504      25.040  24.655 109.038  0.00  0.00     0.161 C 
ATOM    117  O2  IDS d 504      23.562  24.940 110.888  0.00  0.00    -0.244 OA
ATOM    118  C5  IDS d 504      24.256  26.413 107.627  0.00  0.00     0.152 C 
ATOM    119  C4  IDS d 504      23.750  27.266 108.789  0.00  0.00     0.103 C 
ATOM    120  O5  IDS d 504      24.180  25.046 107.963  0.00  0.00    -0.340 OA
ATOM    121  O4  IDS d 504      22.400  26.939 109.083  0.00  0.00    -0.348 OA
ATOM    122  C2  IDS d 504      24.755  25.450 110.296  0.00  0.00     0.134 C 
ATOM    123  O1S IDS d 504      23.292  25.465 113.182  0.00  0.00    -0.572 OA
ATOM    124  O2S IDS d 504      22.238  23.540 112.319  0.00  0.00    -0.572 OA
ATOM    125  C3  IDS d 504      24.612  26.995 110.012  0.00  0.00     0.094 C 
ATOM    126  H   IDS d 504      25.803  28.503 109.578  0.00  0.00     0.210 HD
ATOM    127  H   IDS d 504      24.836  23.618 109.207  0.00  0.00     0.133 H 
ATOM    128  H   IDS d 504      25.274  26.708 107.480  0.00  0.00     0.104 H 
ATOM    129  H   IDS d 504      23.806  28.300 108.520  0.00  0.00     0.092 H 
ATOM    130  H   IDS d 504      25.584  25.342 110.964  0.00  0.00     0.097 H 
ATOM    131  H   IDS d 504      24.156  27.433 110.876  0.00  0.00     0.091 H 
ENDROOT
TORSDOF 40
ENDMDL
MODEL 55
REMARK VINA RESULT:      -9.2      5.755     10.999
REMARK  0 active torsions:
REMARK  status: ('A' for Active; 'I' for Inactive)
REMARK       I    between atoms: C6_1  and  C5_82 
REMARK       I    between atoms: O2_4  and  C2_65 
REMARK       I    between atoms: O2_4  and  S_6 
REMARK       I    between atoms: S2_5  and  O6_13 
REMARK       I    between atoms: C6_7  and  C5_66 
REMARK       I    between atoms: C6_7  and  O6_11 
REMARK       I    between atoms: S_8  and  O2_37 
REMARK       I    between atoms: O6_11  and  S2_34 
REMARK       I    between atoms: O6_13  and  C6_16 
REMARK       I    between atoms: C6_16  and  C5_76 
REMARK       I    between atoms: O2S_17  and  S1_21 
REMARK       I    between atoms: O4_18  and  C4_33 
REMARK       I    between atoms: C4_19  and  O4_25 
REMARK       I    between atoms: O3_20  and  C3_57 
REMARK       I    between atoms: S1_21  and  N_56 
REMARK       I    between atoms: S1_21  and  O1S_55 
REMARK       I    between atoms: S1_21  and  O3S_68 
REMARK       I    between atoms: O3_24  and  C3_80 
REMARK       I    between atoms: O4_25  and  C1_53 
REMARK       I    between atoms: S1_26  and  N_59 
REMARK       I    between atoms: S1_26  and  O1S_42 
REMARK       I    between atoms: S1_26  and  O2S_29 
REMARK       I    between atoms: S1_26  and  O3S_87 
REMARK       I    between atoms: S_30  and  O2_54 
REMARK       I    between atoms: C3_31  and  O3_61 
REMARK       I    between atoms: O4_36  and  C4_70 
REMARK       I    between atoms: O4_36  and  C1_52 
REMARK       I    between atoms: O2_37  and  C2_45 
REMARK       I    between atoms: C4_38  and  O4_71 
REMARK       I    between atoms: C1_39  and  O1_51 
REMARK       I    between atoms: C1_40  and  O4_71 
REMARK       I    between atoms: C6_46  and  C5_84 
REMARK       I    between atoms: C6_47  and  C5_64 
REMARK       I    between atoms: C1_48  and  O4_77 
REMARK       I    between atoms: O3_50  and  C3_86 
REMARK       I    between atoms: O2_54  and  C2_79 
REMARK       I    between atoms: N_56  and  C2_67 
REMARK       I    between atoms: C2_58  and  N_59 
REMARK       I    between atoms: C3_62  and  O3_81 
REMARK       I    between atoms: C4_69  and  O4_77 
ROOT
ATOM      1  C6  IDS d 506      29.338  20.206 111.008  0.00  0.00     0.206 C 
ATOM      2  O62 IDS d 506      30.378  20.378 111.619  0.00  0.00    -0.646 OA
ATOM      3  S   IDS d 506      28.715  21.120 104.833  0.00  0.00     0.252 S 
ATOM      4  O1S IDS d 506      29.895  21.924 104.911  0.00  0.00    -0.572 OA
ATOM      5  O3S IDS d 506      27.629  21.769 104.130  0.00  0.00    -0.572 OA
ATOM      6  O4  IDS d 506      30.570  20.431 108.281  0.00  0.00    -0.390 OA
ATOM      7  O3  IDS d 506      29.304  23.781 108.263  0.00  0.00    -0.390 OA
ATOM      8  C4  IDS d 506      30.001  21.562 108.898  0.00  0.00     0.097 C 
ATOM      9  O2  IDS d 506      28.218  20.967 106.335  0.00  0.00    -0.244 OA
ATOM     10  C2  IDS d 506      28.006  21.984 107.295  0.00  0.00     0.134 C 
ATOM     11  C1  IDS d 506      27.113  21.461 108.429  0.00  0.00     0.161 C 
ATOM     12  O2S IDS d 506      29.015  19.810 104.327  0.00  0.00    -0.572 OA
ATOM     13  O5  IDS d 506      27.854  20.538 109.185  0.00  0.00    -0.340 OA
ATOM     14  O61 IDS d 506      28.625  19.270 111.341  0.00  0.00    -0.646 OA
ATOM     15  C3  IDS d 506      29.409  22.445 107.779  0.00  0.00     0.094 C 
ATOM     16  C5  IDS d 506      28.908  21.122 109.877  0.00  0.00     0.152 C 
ATOM     17  H   IDS d 506      31.262  20.714 107.662  0.00  0.00     0.210 HD
ATOM     18  H   IDS d 506      30.173  24.083 108.570  0.00  0.00     0.210 HD
ATOM     19  H   IDS d 506      30.734  22.110 109.452  0.00  0.00     0.091 H 
ATOM     20  H   IDS d 506      27.487  22.825 106.885  0.00  0.00     0.097 H 
ATOM     21  H   IDS d 506      26.779  22.274 109.039  0.00  0.00     0.133 H 
ATOM     22  H   IDS d 506      30.069  22.368 106.940  0.00  0.00     0.091 H 
ATOM     23  H   IDS d 506      28.614  22.031 110.360  0.00  0.00     0.104 H 
ATOM     24  O62 IDS d 502      18.864  32.632 110.672  0.00  0.00    -0.646 OA
ATOM     25  O2  IDS d 502      15.229  29.049 108.249  0.00  0.00    -0.244 OA
ATOM     26  S   IDS d 502      15.115  28.219 106.928  0.00  0.00     0.252 S 
ATOM     27  O3  IDS d 502      15.058  32.610 107.873  0.00  0.00    -0.390 OA
ATOM     28  O2S IDS d 502      16.283  27.369 106.894  0.00  0.00    -0.572 OA
ATOM     29  C4  IDS d 502      17.024  31.393 108.538  0.00  0.00     0.103 C 
ATOM     30  C1  IDS d 502      14.684  30.536 110.014  0.00  0.00     0.158 C 
ATOM     31  O61 IDS d 502      18.393  30.875 111.667  0.00  0.00    -0.646 OA
ATOM     32  C6  IDS d 502      18.097  31.704 110.842  0.00  0.00     0.206 C 
ATOM     33  O1  IDS d 502      13.951  31.703 110.273  0.00  0.00    -0.368 OA
ATOM     34  C3  IDS d 502      15.664  31.333 107.819  0.00  0.00     0.094 C 
ATOM     35  O3S IDS d 502      13.875  27.498 107.054  0.00  0.00    -0.572 OA
ATOM     36  O5  IDS d 502      15.978  30.577 110.560  0.00  0.00    -0.340 OA
ATOM     37  C2  IDS d 502      14.726  30.334 108.502  0.00  0.00     0.134 C 
ATOM     38  O4  IDS d 502      17.725  30.195 108.323  0.00  0.00    -0.348 OA
ATOM     39  O1S IDS d 502      15.088  29.154 105.838  0.00  0.00    -0.572 OA
ATOM     40  C5  IDS d 502      16.810  31.594 110.037  0.00  0.00     0.152 C 
ATOM     41  H   IDS d 502      15.636  33.260 107.445  0.00  0.00     0.210 HD
ATOM     42  H   IDS d 502      17.591  32.214 108.150  0.00  0.00     0.092 H 
ATOM     43  H   IDS d 502      14.200  29.707 110.487  0.00  0.00     0.133 H 
ATOM     44  H   IDS d 502      14.385  32.459 109.845  0.00  0.00     0.212 HD
ATOM     45  H   IDS d 502      15.830  31.025 106.807  0.00  0.00     0.091 H 
ATOM     46  H   IDS d 502      13.736  30.471 108.121  0.00  0.00     0.097 H 
ATOM     47  H   IDS d 502      16.324  32.542 110.137  0.00  0.00     0.104 H 
ATOM     48  S2  SGN d 505      23.544  18.223 105.303  0.00  0.00     0.251 S 
ATOM     49  O6  SGN d 505      23.724  19.205 106.451  0.00  0.00    -0.254 OA
ATOM     50  O5S SGN d 505      22.296  17.559 105.587  0.00  0.00    -0.572 OA
ATOM     51  C6  SGN d 505      23.725  20.590 106.380  0.00  0.00     0.067 C 
ATOM     52  O2S SGN d 505      22.739  18.987 113.129  0.00  0.00    -0.296 OA
ATOM     53  S1  SGN d 505      22.010  20.200 112.839  0.00  0.00     0.156 S 
ATOM     54  O6S SGN d 505      23.491  19.010 104.078  0.00  0.00    -0.572 OA
ATOM     55  O4  SGN d 505      26.029  20.796 107.876  0.00  0.00    -0.348 OA
ATOM     56  O5  SGN d 505      22.502  20.662 108.341  0.00  0.00    -0.349 OA
ATOM     57  O4S SGN d 505      24.706  17.367 105.366  0.00  0.00    -0.572 OA
ATOM     58  C1  SGN d 505      22.269  21.160 109.629  0.00  0.00     0.150 C 
ATOM     59  O1S SGN d 505      20.838  19.959 112.024  0.00  0.00    -0.296 OA
ATOM     60  N   SGN d 505      23.070  21.136 111.939  0.00  0.00    -0.210 NA
ATOM     61  C3  SGN d 505      24.754  21.106 110.019  0.00  0.00     0.083 C 
ATOM     62  C2  SGN d 505      23.372  20.691 110.558  0.00  0.00     0.081 C 
ATOM     63  O3S SGN d 505      21.722  20.926 114.024  0.00  0.00    -0.296 OA
ATOM     64  C4  SGN d 505      24.855  20.484 108.596  0.00  0.00     0.095 C 
ATOM     65  C5  SGN d 505      23.726  21.055 107.800  0.00  0.00     0.091 C 
ATOM     66  O3  SGN d 505      25.753  20.562 110.873  0.00  0.00    -0.391 OA
ATOM     67  H   SGN d 505      22.851  20.939 105.871  0.00  0.00     0.080 H 
ATOM     68  H   SGN d 505      24.568  20.962 105.837  0.00  0.00     0.080 H 
ATOM     69  H   SGN d 505      22.921  18.515 112.301  0.00  0.00     0.231 HD
ATOM     70  H   SGN d 505      21.336  20.785 109.995  0.00  0.00     0.131 H 
ATOM     71  H   SGN d 505      21.093  19.462 111.230  0.00  0.00     0.231 HD
ATOM     72  H   SGN d 505      23.953  21.173 112.448  0.00  0.00     0.140 HD
ATOM     73  H   SGN d 505      24.886  22.168 109.983  0.00  0.00     0.089 H 
ATOM     74  H   SGN d 505      23.412  19.623 110.596  0.00  0.00     0.076 H 
ATOM     75  H   SGN d 505      22.539  21.058 114.529  0.00  0.00     0.231 HD
ATOM     76  H   SGN d 505      24.842  19.423 108.732  0.00  0.00     0.091 H 
ATOM     77  H   SGN d 505      23.860  22.116 107.832  0.00  0.00     0.090 H 
ATOM     78  H   SGN d 505      25.649  19.599 110.918  0.00  0.00     0.210 HD
ATOM     79  C6  SGN d 503      20.495  28.862 111.043  0.00  0.00     0.067 C 
ATOM     80  O6  SGN d 503      21.841  29.158 110.739  0.00  0.00    -0.254 OA
ATOM     81  C4  SGN d 503      20.238  27.801 108.729  0.00  0.00     0.095 C 
ATOM     82  O5  SGN d 503      19.854  30.133 109.244  0.00  0.00    -0.349 OA
ATOM     83  O4  SGN d 503      19.997  26.528 109.232  0.00  0.00    -0.348 OA
ATOM     84  S1  SGN d 503      19.358  30.788 104.741  0.00  0.00     0.156 S 
ATOM     85  O4S SGN d 503      22.522  29.585 113.014  0.00  0.00    -0.572 OA
ATOM     86  O2S SGN d 503      20.776  30.543 104.479  0.00  0.00    -0.296 OA
ATOM     87  C3  SGN d 503      19.487  27.950 107.408  0.00  0.00     0.083 C 
ATOM     88  S2  SGN d 503      22.830  29.915 111.664  0.00  0.00     0.251 S 
ATOM     89  O5S SGN d 503      24.175  29.490 111.291  0.00  0.00    -0.572 OA
ATOM     90  C1  SGN d 503      19.096  30.353 108.080  0.00  0.00     0.150 C 
ATOM     91  O1S SGN d 503      19.141  32.051 105.422  0.00  0.00    -0.296 OA
ATOM     92  O6S SGN d 503      22.543  31.275 111.420  0.00  0.00    -0.572 OA
ATOM     93  C2  SGN d 503      19.570  29.401 106.972  0.00  0.00     0.081 C 
ATOM     94  N   SGN d 503      18.820  29.630 105.750  0.00  0.00    -0.210 NA
ATOM     95  O3  SGN d 503      20.116  27.122 106.448  0.00  0.00    -0.391 OA
ATOM     96  C5  SGN d 503      19.732  28.838 109.746  0.00  0.00     0.091 C 
ATOM     97  O3S SGN d 503      18.513  30.634 103.578  0.00  0.00    -0.296 OA
ATOM     98  H   SGN d 503      20.431  27.907 111.522  0.00  0.00     0.080 H 
ATOM     99  H   SGN d 503      20.088  29.597 111.705  0.00  0.00     0.080 H 
ATOM    100  H   SGN d 503      21.284  27.953 108.562  0.00  0.00     0.091 H 
ATOM    101  H   SGN d 503      21.281  30.663 105.299  0.00  0.00     0.231 HD
ATOM    102  H   SGN d 503      18.461  27.666 107.512  0.00  0.00     0.089 H 
ATOM    103  H   SGN d 503      19.245  31.364 107.762  0.00  0.00     0.131 H 
ATOM    104  H   SGN d 503      19.728  32.108 106.192  0.00  0.00     0.231 HD
ATOM    105  H   SGN d 503      20.600  29.610 106.776  0.00  0.00     0.076 H 
ATOM    106  H   SGN d 503      18.809  28.753 105.229  0.00  0.00     0.140 HD
ATOM    107  H   SGN d 503      21.046  27.382 106.356  0.00  0.00     0.210 HD
ATOM    108  H   SGN d 503      18.719  28.541 109.921  0.00  0.00     0.090 H 
ATOM    109  H   SGN d 503      17.591  30.812 103.823  0.00  0.00     0.231 HD
ATOM    110  O61 IDS d 504      23.149  23.910 106.680  0.00  0.00    -0.646 OA
ATOM    111  O62 IDS d 504      21.339  23.204 105.869  0.00  0.00    -0.646 OA
ATOM    112  O3S IDS d 504      21.235  26.087 113.359  0.00  0.00    -0.572 OA
ATOM    113  S   IDS d 504      21.938  24.875 113.160  0.00  0.00     0.252 S 
ATOM    114  C6  IDS d 504      21.942  23.741 106.800  0.00  0.00     0.206 C 
ATOM    115  O3  IDS d 504      18.804  23.838 109.699  0.00  0.00    -0.390 OA
ATOM    116  C1  IDS d 504      21.136  25.888 109.734  0.00  0.00     0.161 C 
ATOM    117  O2  IDS d 504      21.827  24.637 111.643  0.00  0.00    -0.244 OA
ATOM    118  C5  IDS d 504      21.207  24.167 108.082  0.00  0.00     0.152 C 
ATOM    119  C4  IDS d 504      20.948  23.044 109.084  0.00  0.00     0.103 C 
ATOM    120  O5  IDS d 504      21.889  25.228 108.711  0.00  0.00    -0.340 OA
ATOM    121  O4  IDS d 504      22.178  22.558 109.602  0.00  0.00    -0.348 OA
ATOM    122  C2  IDS d 504      20.701  24.920 110.815  0.00  0.00     0.134 C 
ATOM    123  O1S IDS d 504      21.293  23.780 113.785  0.00  0.00    -0.572 OA
ATOM    124  O2S IDS d 504      23.332  24.926 113.490  0.00  0.00    -0.572 OA
ATOM    125  C3  IDS d 504      20.101  23.586 110.225  0.00  0.00     0.094 C 
ATOM    126  H   IDS d 504      18.437  23.017 109.336  0.00  0.00     0.210 HD
ATOM    127  H   IDS d 504      21.794  26.625 110.145  0.00  0.00     0.133 H 
ATOM    128  H   IDS d 504      20.240  24.484 107.753  0.00  0.00     0.104 H 
ATOM    129  H   IDS d 504      20.437  22.242 108.594  0.00  0.00     0.092 H 
ATOM    130  H   IDS d 504      19.918  25.375 111.386  0.00  0.00     0.097 H 
ATOM    131  H   IDS d 504      20.074  22.873 111.022  0.00  0.00     0.091 H 
ENDROOT
TORSDOF 40
ENDMDL
MODEL 56
REMARK VINA RESULT:      -9.1      4.635     10.506
REMARK  0 active torsions:
REMARK  status: ('A' for Active; 'I' for Inactive)
REMARK       I    between atoms: C6_1  and  C5_82 
REMARK       I    between atoms: O2_4  and  C2_65 
REMARK       I    between atoms: O2_4  and  S_6 
REMARK       I    between atoms: S2_5  and  O6_13 
REMARK       I    between atoms: C6_7  and  C5_66 
REMARK       I    between atoms: C6_7  and  O6_11 
REMARK       I    between atoms: S_8  and  O2_37 
REMARK       I    between atoms: O6_11  and  S2_34 
REMARK       I    between atoms: O6_13  and  C6_16 
REMARK       I    between atoms: C6_16  and  C5_76 
REMARK       I    between atoms: O2S_17  and  S1_21 
REMARK       I    between atoms: O4_18  and  C4_33 
REMARK       I    between atoms: C4_19  and  O4_25 
REMARK       I    between atoms: O3_20  and  C3_57 
REMARK       I    between atoms: S1_21  and  N_56 
REMARK       I    between atoms: S1_21  and  O1S_55 
REMARK       I    between atoms: S1_21  and  O3S_68 
REMARK       I    between atoms: O3_24  and  C3_80 
REMARK       I    between atoms: O4_25  and  C1_53 
REMARK       I    between atoms: S1_26  and  N_59 
REMARK       I    between atoms: S1_26  and  O1S_42 
REMARK       I    between atoms: S1_26  and  O2S_29 
REMARK       I    between atoms: S1_26  and  O3S_87 
REMARK       I    between atoms: S_30  and  O2_54 
REMARK       I    between atoms: C3_31  and  O3_61 
REMARK       I    between atoms: O4_36  and  C4_70 
REMARK       I    between atoms: O4_36  and  C1_52 
REMARK       I    between atoms: O2_37  and  C2_45 
REMARK       I    between atoms: C4_38  and  O4_71 
REMARK       I    between atoms: C1_39  and  O1_51 
REMARK       I    between atoms: C1_40  and  O4_71 
REMARK       I    between atoms: C6_46  and  C5_84 
REMARK       I    between atoms: C6_47  and  C5_64 
REMARK       I    between atoms: C1_48  and  O4_77 
REMARK       I    between atoms: O3_50  and  C3_86 
REMARK       I    between atoms: O2_54  and  C2_79 
REMARK       I    between atoms: N_56  and  C2_67 
REMARK       I    between atoms: C2_58  and  N_59 
REMARK       I    between atoms: C3_62  and  O3_81 
REMARK       I    between atoms: C4_69  and  O4_77 
ROOT
ATOM      1  C6  IDS d 506      15.568  30.578 111.621  0.00  0.00     0.206 C 
ATOM      2  O62 IDS d 506      15.473  31.734 111.994  0.00  0.00    -0.646 OA
ATOM      3  S   IDS d 506      16.351  25.705 115.494  0.00  0.00     0.252 S 
ATOM      4  O1S IDS d 506      16.801  26.652 116.468  0.00  0.00    -0.572 OA
ATOM      5  O3S IDS d 506      17.243  24.576 115.341  0.00  0.00    -0.572 OA
ATOM      6  O4  IDS d 506      15.327  29.376 114.360  0.00  0.00    -0.390 OA
ATOM      7  O3  IDS d 506      18.893  29.053 114.255  0.00  0.00    -0.390 OA
ATOM      8  C4  IDS d 506      16.597  29.640 113.810  0.00  0.00     0.097 C 
ATOM      9  O2  IDS d 506      16.406  26.481 114.108  0.00  0.00    -0.244 OA
ATOM     10  C2  IDS d 506      17.482  27.215 113.558  0.00  0.00     0.134 C 
ATOM     11  C1  IDS d 506      17.276  27.403 112.048  0.00  0.00     0.161 C 
ATOM     12  O2S IDS d 506      14.989  25.323 115.737  0.00  0.00    -0.572 OA
ATOM     13  O5  IDS d 506      16.217  28.307 111.855  0.00  0.00    -0.340 OA
ATOM     14  O61 IDS d 506      14.880  30.222 110.674  0.00  0.00    -0.646 OA
ATOM     15  C3  IDS d 506      17.560  28.556 114.340  0.00  0.00     0.094 C 
ATOM     16  C5  IDS d 506      16.518  29.595 112.280  0.00  0.00     0.152 C 
ATOM     17  H   IDS d 506      15.381  29.405 115.328  0.00  0.00     0.210 HD
ATOM     18  H   IDS d 506      18.956  29.891 114.739  0.00  0.00     0.210 HD
ATOM     19  H   IDS d 506      16.945  30.612 114.090  0.00  0.00     0.091 H 
ATOM     20  H   IDS d 506      18.416  26.701 113.658  0.00  0.00     0.097 H 
ATOM     21  H   IDS d 506      18.174  27.766 111.595  0.00  0.00     0.133 H 
ATOM     22  H   IDS d 506      17.268  28.346 115.348  0.00  0.00     0.091 H 
ATOM     23  H   IDS d 506      17.492  29.903 111.963  0.00  0.00     0.104 H 
ATOM     24  O62 IDS d 502      30.373  25.435 107.311  0.00  0.00    -0.646 OA
ATOM     25  O2  IDS d 502      27.831  20.725 105.503  0.00  0.00    -0.244 OA
ATOM     26  S   IDS d 502      27.008  19.539 106.105  0.00  0.00     0.252 S 
ATOM     27  O3  IDS d 502      31.281  20.876 106.464  0.00  0.00    -0.390 OA
ATOM     28  O2S IDS d 502      25.869  20.141 106.758  0.00  0.00    -0.572 OA
ATOM     29  C4  IDS d 502      29.599  22.462 107.133  0.00  0.00     0.103 C 
ATOM     30  C1  IDS d 502      29.485  21.915 104.291  0.00  0.00     0.158 C 
ATOM     31  O61 IDS d 502      28.859  25.604 105.905  0.00  0.00    -0.646 OA
ATOM     32  C6  IDS d 502      29.702  24.923 106.436  0.00  0.00     0.206 C 
ATOM     33  O1  IDS d 502      30.819  21.811 103.871  0.00  0.00    -0.368 OA
ATOM     34  C3  IDS d 502      29.885  21.034 106.631  0.00  0.00     0.094 C 
ATOM     35  O3S IDS d 502      26.663  18.719 104.973  0.00  0.00    -0.572 OA
ATOM     36  O5  IDS d 502      29.192  23.168 104.856  0.00  0.00    -0.340 OA
ATOM     37  C2  IDS d 502      29.214  20.784 105.277  0.00  0.00     0.134 C 
ATOM     38  O4  IDS d 502      28.247  22.572 107.494  0.00  0.00    -0.348 OA
ATOM     39  O1S IDS d 502      27.866  18.851 107.029  0.00  0.00    -0.572 OA
ATOM     40  C5  IDS d 502      29.916  23.471 106.032  0.00  0.00     0.152 C 
ATOM     41  H   IDS d 502      31.728  21.031 107.310  0.00  0.00     0.210 HD
ATOM     42  H   IDS d 502      30.214  22.664 107.985  0.00  0.00     0.092 H 
ATOM     43  H   IDS d 502      28.843  21.829 103.439  0.00  0.00     0.133 H 
ATOM     44  H   IDS d 502      31.407  21.889 104.639  0.00  0.00     0.212 HD
ATOM     45  H   IDS d 502      29.500  20.340 107.349  0.00  0.00     0.091 H 
ATOM     46  H   IDS d 502      29.602  19.879 104.860  0.00  0.00     0.097 H 
ATOM     47  H   IDS d 502      30.964  23.376 105.843  0.00  0.00     0.104 H 
ATOM     48  S2  SGN d 505      15.015  22.264 110.834  0.00  0.00     0.251 S 
ATOM     49  O6  SGN d 505      15.958  23.388 110.428  0.00  0.00    -0.254 OA
ATOM     50  O5S SGN d 505      14.734  21.566 109.604  0.00  0.00    -0.572 OA
ATOM     51  C6  SGN d 505      17.285  23.546 110.799  0.00  0.00     0.067 C 
ATOM     52  O2S SGN d 505      16.309  27.698 105.242  0.00  0.00    -0.296 OA
ATOM     53  S1  SGN d 505      17.662  27.195 105.200  0.00  0.00     0.156 S 
ATOM     54  O6S SGN d 505      15.732  21.435 111.793  0.00  0.00    -0.572 OA
ATOM     55  O4  SGN d 505      16.912  26.187 111.490  0.00  0.00    -0.348 OA
ATOM     56  O5  SGN d 505      17.775  24.228 108.645  0.00  0.00    -0.349 OA
ATOM     57  O4S SGN d 505      13.875  22.933 111.417  0.00  0.00    -0.572 OA
ATOM     58  C1  SGN d 505      18.373  25.114 107.741  0.00  0.00     0.150 C 
ATOM     59  O1S SGN d 505      17.719  25.790 104.853  0.00  0.00    -0.296 OA
ATOM     60  N   SGN d 505      18.229  27.352 106.769  0.00  0.00    -0.210 NA
ATOM     61  C3  SGN d 505      17.653  27.007 109.234  0.00  0.00     0.083 C 
ATOM     62  C2  SGN d 505      17.659  26.450 107.797  0.00  0.00     0.081 C 
ATOM     63  O3S SGN d 505      18.489  28.003 104.378  0.00  0.00    -0.296 OA
ATOM     64  C4  SGN d 505      16.967  25.915 110.105  0.00  0.00     0.095 C 
ATOM     65  C5  SGN d 505      17.792  24.677 109.966  0.00  0.00     0.091 C 
ATOM     66  O3  SGN d 505      16.893  28.208 109.249  0.00  0.00    -0.391 OA
ATOM     67  H   SGN d 505      17.839  22.653 110.599  0.00  0.00     0.080 H 
ATOM     68  H   SGN d 505      17.386  23.743 111.846  0.00  0.00     0.080 H 
ATOM     69  H   SGN d 505      15.769  27.126 105.810  0.00  0.00     0.231 HD
ATOM     70  H   SGN d 505      18.287  24.725 106.748  0.00  0.00     0.131 H 
ATOM     71  H   SGN d 505      17.137  25.287 105.445  0.00  0.00     0.231 HD
ATOM     72  H   SGN d 505      18.043  28.311 107.067  0.00  0.00     0.140 HD
ATOM     73  H   SGN d 505      18.635  27.227 109.599  0.00  0.00     0.089 H 
ATOM     74  H   SGN d 505      16.624  26.342 107.551  0.00  0.00     0.076 H 
ATOM     75  H   SGN d 505      18.413  28.930 104.654  0.00  0.00     0.231 HD
ATOM     76  H   SGN d 505      15.958  25.846 109.758  0.00  0.00     0.091 H 
ATOM     77  H   SGN d 505      18.776  24.950 110.288  0.00  0.00     0.090 H 
ATOM     78  H   SGN d 505      15.998  28.028 108.920  0.00  0.00     0.210 HD
ATOM     79  C6  SGN d 503      26.320  26.194 107.342  0.00  0.00     0.067 C 
ATOM     80  O6  SGN d 503      26.220  26.884 108.569  0.00  0.00    -0.254 OA
ATOM     81  C4  SGN d 503      25.272  24.139 108.449  0.00  0.00     0.095 C 
ATOM     82  O5  SGN d 503      27.639  24.629 108.378  0.00  0.00    -0.349 OA
ATOM     83  O4  SGN d 503      24.137  24.164 107.646  0.00  0.00    -0.348 OA
ATOM     84  S1  SGN d 503      28.211  21.048 111.171  0.00  0.00     0.156 S 
ATOM     85  O4S SGN d 503      26.540  29.088 107.640  0.00  0.00    -0.572 OA
ATOM     86  O2S SGN d 503      27.573  21.734 112.294  0.00  0.00    -0.296 OA
ATOM     87  C3  SGN d 503      25.565  22.689 108.828  0.00  0.00     0.083 C 
ATOM     88  S2  SGN d 503      26.714  28.331 108.833  0.00  0.00     0.251 S 
ATOM     89  O5S SGN d 503      25.919  28.860 109.936  0.00  0.00    -0.572 OA
ATOM     90  C1  SGN d 503      28.009  23.303 108.665  0.00  0.00     0.150 C 
ATOM     91  O1S SGN d 503      29.513  21.608 110.860  0.00  0.00    -0.296 OA
ATOM     92  O6S SGN d 503      28.089  28.171 109.109  0.00  0.00    -0.572 OA
ATOM     93  C2  SGN d 503      26.917  22.638 109.515  0.00  0.00     0.081 C 
ATOM     94  N   SGN d 503      27.291  21.275 109.848  0.00  0.00    -0.210 NA
ATOM     95  O3  SGN d 503      24.555  22.254 109.719  0.00  0.00    -0.391 OA
ATOM     96  C5  SGN d 503      26.451  24.728 107.656  0.00  0.00     0.091 C 
ATOM     97  O3S SGN d 503      28.246  19.610 111.308  0.00  0.00    -0.296 OA
ATOM     98  H   SGN d 503      25.441  26.364 106.755  0.00  0.00     0.080 H 
ATOM     99  H   SGN d 503      27.166  26.537 106.785  0.00  0.00     0.080 H 
ATOM    100  H   SGN d 503      25.122  24.715 109.338  0.00  0.00     0.091 H 
ATOM    101  H   SGN d 503      27.585  22.691 112.137  0.00  0.00     0.231 HD
ATOM    102  H   SGN d 503      25.580  22.058 107.964  0.00  0.00     0.089 H 
ATOM    103  H   SGN d 503      28.925  23.317 109.219  0.00  0.00     0.131 H 
ATOM    104  H   SGN d 503      29.439  22.572 110.779  0.00  0.00     0.231 HD
ATOM    105  H   SGN d 503      26.825  23.192 110.426  0.00  0.00     0.076 H 
ATOM    106  H   SGN d 503      26.429  20.747 109.981  0.00  0.00     0.140 HD
ATOM    107  H   SGN d 503      24.544  22.828 110.501  0.00  0.00     0.210 HD
ATOM    108  H   SGN d 503      26.453  24.157 106.751  0.00  0.00     0.090 H 
ATOM    109  H   SGN d 503      28.681  19.222 110.532  0.00  0.00     0.231 HD
ATOM    110  O61 IDS d 504      20.645  23.903 110.967  0.00  0.00    -0.646 OA
ATOM    111  O62 IDS d 504      20.430  22.017 110.056  0.00  0.00    -0.646 OA
ATOM    112  O3S IDS d 504      23.551  27.978 105.680  0.00  0.00    -0.572 OA
ATOM    113  S   IDS d 504      22.185  28.100 106.029  0.00  0.00     0.252 S 
ATOM    114  C6  IDS d 504      20.821  23.184 109.991  0.00  0.00     0.206 C 
ATOM    115  O3  IDS d 504      21.904  23.329 105.860  0.00  0.00    -0.390 OA
ATOM    116  C1  IDS d 504      23.231  25.178 107.971  0.00  0.00     0.161 C 
ATOM    117  O2  IDS d 504      21.921  26.860 106.902  0.00  0.00    -0.244 OA
ATOM    118  C5  IDS d 504      21.487  23.730 108.717  0.00  0.00     0.152 C 
ATOM    119  C4  IDS d 504      20.523  24.139 107.606  0.00  0.00     0.103 C 
ATOM    120  O5  IDS d 504      22.346  24.803 109.031  0.00  0.00    -0.340 OA
ATOM    121  O4  IDS d 504      19.741  25.248 108.021  0.00  0.00    -0.348 OA
ATOM    122  C2  IDS d 504      22.468  25.556 106.718  0.00  0.00     0.134 C 
ATOM    123  O1S IDS d 504      21.338  27.982 104.899  0.00  0.00    -0.572 OA
ATOM    124  O2S IDS d 504      21.864  29.258 106.811  0.00  0.00    -0.572 OA
ATOM    125  C3  IDS d 504      21.327  24.523 106.373  0.00  0.00     0.094 C 
ATOM    126  H   IDS d 504      21.200  22.695 105.649  0.00  0.00     0.210 HD
ATOM    127  H   IDS d 504      23.775  26.024 108.338  0.00  0.00     0.133 H 
ATOM    128  H   IDS d 504      22.044  22.906 108.323  0.00  0.00     0.104 H 
ATOM    129  H   IDS d 504      19.873  23.319 107.381  0.00  0.00     0.092 H 
ATOM    130  H   IDS d 504      23.145  25.544 105.890  0.00  0.00     0.097 H 
ATOM    131  H   IDS d 504      20.684  24.992 105.657  0.00  0.00     0.091 H 
ENDROOT
TORSDOF 40
ENDMDL
MODEL 57
REMARK VINA RESULT:      -9.1      4.387      7.306
REMARK  0 active torsions:
REMARK  status: ('A' for Active; 'I' for Inactive)
REMARK       I    between atoms: C6_1  and  C5_82 
REMARK       I    between atoms: O2_4  and  C2_65 
REMARK       I    between atoms: O2_4  and  S_6 
REMARK       I    between atoms: S2_5  and  O6_13 
REMARK       I    between atoms: C6_7  and  C5_66 
REMARK       I    between atoms: C6_7  and  O6_11 
REMARK       I    between atoms: S_8  and  O2_37 
REMARK       I    between atoms: O6_11  and  S2_34 
REMARK       I    between atoms: O6_13  and  C6_16 
REMARK       I    between atoms: C6_16  and  C5_76 
REMARK       I    between atoms: O2S_17  and  S1_21 
REMARK       I    between atoms: O4_18  and  C4_33 
REMARK       I    between atoms: C4_19  and  O4_25 
REMARK       I    between atoms: O3_20  and  C3_57 
REMARK       I    between atoms: S1_21  and  N_56 
REMARK       I    between atoms: S1_21  and  O1S_55 
REMARK       I    between atoms: S1_21  and  O3S_68 
REMARK       I    between atoms: O3_24  and  C3_80 
REMARK       I    between atoms: O4_25  and  C1_53 
REMARK       I    between atoms: S1_26  and  N_59 
REMARK       I    between atoms: S1_26  and  O1S_42 
REMARK       I    between atoms: S1_26  and  O2S_29 
REMARK       I    between atoms: S1_26  and  O3S_87 
REMARK       I    between atoms: S_30  and  O2_54 
REMARK       I    between atoms: C3_31  and  O3_61 
REMARK       I    between atoms: O4_36  and  C4_70 
REMARK       I    between atoms: O4_36  and  C1_52 
REMARK       I    between atoms: O2_37  and  C2_45 
REMARK       I    between atoms: C4_38  and  O4_71 
REMARK       I    between atoms: C1_39  and  O1_51 
REMARK       I    between atoms: C1_40  and  O4_71 
REMARK       I    between atoms: C6_46  and  C5_84 
REMARK       I    between atoms: C6_47  and  C5_64 
REMARK       I    between atoms: C1_48  and  O4_77 
REMARK       I    between atoms: O3_50  and  C3_86 
REMARK       I    between atoms: O2_54  and  C2_79 
REMARK       I    between atoms: N_56  and  C2_67 
REMARK       I    between atoms: C2_58  and  N_59 
REMARK       I    between atoms: C3_62  and  O3_81 
REMARK       I    between atoms: C4_69  and  O4_77 
ROOT
ATOM      1  C6  IDS d 506      15.131  22.079 107.236  0.00  0.00     0.206 C 
ATOM      2  O62 IDS d 506      14.449  21.355 106.531  0.00  0.00    -0.646 OA
ATOM      3  S   IDS d 506      16.862  27.893 105.636  0.00  0.00     0.252 S 
ATOM      4  O1S IDS d 506      16.577  27.522 104.284  0.00  0.00    -0.572 OA
ATOM      5  O3S IDS d 506      18.159  28.515 105.795  0.00  0.00    -0.572 OA
ATOM      6  O4  IDS d 506      14.702  24.555 105.595  0.00  0.00    -0.390 OA
ATOM      7  O3  IDS d 506      17.938  23.891 104.210  0.00  0.00    -0.390 OA
ATOM      8  C4  IDS d 506      15.829  23.741 105.370  0.00  0.00     0.097 C 
ATOM      9  O2  IDS d 506      16.949  26.520 106.431  0.00  0.00    -0.244 OA
ATOM     10  C2  IDS d 506      17.707  25.369 106.112  0.00  0.00     0.134 C 
ATOM     11  C1  IDS d 506      17.856  24.474 107.351  0.00  0.00     0.161 C 
ATOM     12  O2S IDS d 506      15.790  28.665 106.195  0.00  0.00    -0.572 OA
ATOM     13  O5  IDS d 506      16.607  23.895 107.631  0.00  0.00    -0.340 OA
ATOM     14  O61 IDS d 506      14.948  22.041 108.444  0.00  0.00    -0.646 OA
ATOM     15  C3  IDS d 506      16.983  24.667 104.929  0.00  0.00     0.094 C 
ATOM     16  C5  IDS d 506      16.194  22.994 106.657  0.00  0.00     0.152 C 
ATOM     17  H   IDS d 506      14.475  25.025 104.777  0.00  0.00     0.210 HD
ATOM     18  H   IDS d 506      17.500  23.446 103.468  0.00  0.00     0.210 HD
ATOM     19  H   IDS d 506      15.633  23.009 104.613  0.00  0.00     0.091 H 
ATOM     20  H   IDS d 506      18.705  25.613 105.812  0.00  0.00     0.097 H 
ATOM     21  H   IDS d 506      18.594  23.721 107.175  0.00  0.00     0.133 H 
ATOM     22  H   IDS d 506      16.550  25.438 104.327  0.00  0.00     0.091 H 
ATOM     23  H   IDS d 506      16.985  22.338 106.359  0.00  0.00     0.104 H 
ATOM     24  O62 IDS d 502      31.256  20.391 106.079  0.00  0.00    -0.646 OA
ATOM     25  O2  IDS d 502      31.591  23.906 110.490  0.00  0.00    -0.244 OA
ATOM     26  S   IDS d 502      31.233  25.390 110.828  0.00  0.00     0.252 S 
ATOM     27  O3  IDS d 502      34.235  23.443 108.114  0.00  0.00    -0.390 OA
ATOM     28  O2S IDS d 502      29.816  25.521 110.579  0.00  0.00    -0.572 OA
ATOM     29  C4  IDS d 502      31.922  22.912 107.714  0.00  0.00     0.103 C 
ATOM     30  C1  IDS d 502      32.828  21.895 110.271  0.00  0.00     0.158 C 
ATOM     31  O61 IDS d 502      30.260  19.886 107.827  0.00  0.00    -0.646 OA
ATOM     32  C6  IDS d 502      31.136  20.514 107.283  0.00  0.00     0.206 C 
ATOM     33  O1  IDS d 502      34.135  21.433 110.053  0.00  0.00    -0.368 OA
ATOM     34  C3  IDS d 502      32.921  23.743 108.542  0.00  0.00     0.094 C 
ATOM     35  O3S IDS d 502      31.596  25.550 112.213  0.00  0.00    -0.572 OA
ATOM     36  O5  IDS d 502      31.882  21.242 109.463  0.00  0.00    -0.340 OA
ATOM     37  C2  IDS d 502      32.817  23.401 110.031  0.00  0.00     0.134 C 
ATOM     38  O4  IDS d 502      30.613  23.342 107.985  0.00  0.00    -0.348 OA
ATOM     39  O1S IDS d 502      32.019  26.226 109.964  0.00  0.00    -0.572 OA
ATOM     40  C5  IDS d 502      32.056  21.434 108.073  0.00  0.00     0.152 C 
ATOM     41  H   IDS d 502      34.324  23.651 107.171  0.00  0.00     0.210 HD
ATOM     42  H   IDS d 502      32.134  23.044 106.674  0.00  0.00     0.092 H 
ATOM     43  H   IDS d 502      32.543  21.676 111.279  0.00  0.00     0.133 H 
ATOM     44  H   IDS d 502      34.399  21.629 109.141  0.00  0.00     0.212 HD
ATOM     45  H   IDS d 502      32.695  24.780 108.402  0.00  0.00     0.091 H 
ATOM     46  H   IDS d 502      33.654  23.826 110.544  0.00  0.00     0.097 H 
ATOM     47  H   IDS d 502      33.051  21.156 107.794  0.00  0.00     0.104 H 
ATOM     48  S2  SGN d 505      18.459  28.581 111.321  0.00  0.00     0.251 S 
ATOM     49  O6  SGN d 505      18.894  27.222 110.794  0.00  0.00    -0.254 OA
ATOM     50  O5S SGN d 505      18.850  28.574 112.708  0.00  0.00    -0.572 OA
ATOM     51  C6  SGN d 505      19.867  26.963 109.840  0.00  0.00     0.067 C 
ATOM     52  O2S SGN d 505      18.736  20.900 113.164  0.00  0.00    -0.296 OA
ATOM     53  S1  SGN d 505      20.129  20.958 112.787  0.00  0.00     0.156 S 
ATOM     54  O6S SGN d 505      19.174  29.585 110.545  0.00  0.00    -0.572 OA
ATOM     55  O4  SGN d 505      18.219  25.262 108.432  0.00  0.00    -0.348 OA
ATOM     56  O5  SGN d 505      20.576  25.157 111.097  0.00  0.00    -0.349 OA
ATOM     57  O4S SGN d 505      17.030  28.620 111.102  0.00  0.00    -0.572 OA
ATOM     58  C1  SGN d 505      20.953  23.814 111.219  0.00  0.00     0.150 C 
ATOM     59  O1S SGN d 505      20.878  21.908 113.583  0.00  0.00    -0.296 OA
ATOM     60  N   SGN d 505      20.125  21.514 111.206  0.00  0.00    -0.210 NA
ATOM     61  C3  SGN d 505      19.112  23.229 109.606  0.00  0.00     0.083 C 
ATOM     62  C2  SGN d 505      19.746  22.928 110.978  0.00  0.00     0.081 C 
ATOM     63  O3S SGN d 505      20.714  19.665 112.770  0.00  0.00    -0.296 OA
ATOM     64  C4  SGN d 505      18.758  24.744 109.630  0.00  0.00     0.095 C 
ATOM     65  C5  SGN d 505      20.040  25.479 109.851  0.00  0.00     0.091 C 
ATOM     66  O3  SGN d 505      17.935  22.443 109.472  0.00  0.00    -0.391 OA
ATOM     67  H   SGN d 505      20.784  27.450 110.099  0.00  0.00     0.080 H 
ATOM     68  H   SGN d 505      19.586  27.326 108.874  0.00  0.00     0.080 H 
ATOM     69  H   SGN d 505      18.364  21.797 113.167  0.00  0.00     0.231 HD
ATOM     70  H   SGN d 505      21.314  23.631 112.210  0.00  0.00     0.131 H 
ATOM     71  H   SGN d 505      20.434  22.771 113.559  0.00  0.00     0.231 HD
ATOM     72  H   SGN d 505      19.470  20.934 110.680  0.00  0.00     0.140 HD
ATOM     73  H   SGN d 505      19.763  23.001 108.788  0.00  0.00     0.089 H 
ATOM     74  H   SGN d 505      18.969  23.141 111.681  0.00  0.00     0.076 H 
ATOM     75  H   SGN d 505      20.173  19.073 112.224  0.00  0.00     0.231 HD
ATOM     76  H   SGN d 505      18.013  24.865 110.388  0.00  0.00     0.091 H 
ATOM     77  H   SGN d 505      20.682  25.185 109.046  0.00  0.00     0.090 H 
ATOM     78  H   SGN d 505      17.332  22.636 110.206  0.00  0.00     0.210 HD
ATOM     79  C6  SGN d 503      27.432  20.780 107.574  0.00  0.00     0.067 C 
ATOM     80  O6  SGN d 503      26.717  20.885 106.362  0.00  0.00    -0.254 OA
ATOM     81  C4  SGN d 503      27.119  23.293 107.940  0.00  0.00     0.095 C 
ATOM     82  O5  SGN d 503      28.963  22.277 106.750  0.00  0.00    -0.349 OA
ATOM     83  O4  SGN d 503      26.349  23.129 109.086  0.00  0.00    -0.348 OA
ATOM     84  S1  SGN d 503      30.247  26.522 105.619  0.00  0.00     0.156 S 
ATOM     85  O4S SGN d 503      26.291  18.523 106.120  0.00  0.00    -0.572 OA
ATOM     86  O2S SGN d 503      29.098  26.708 104.733  0.00  0.00    -0.296 OA
ATOM     87  C3  SGN d 503      27.894  24.603 108.062  0.00  0.00     0.083 C 
ATOM     88  S2  SGN d 503      26.446  19.723 105.370  0.00  0.00     0.251 S 
ATOM     89  O5S SGN d 503      25.234  20.065 104.631  0.00  0.00    -0.572 OA
ATOM     90  C1  SGN d 503      29.776  23.418 106.864  0.00  0.00     0.150 C 
ATOM     91  O1S SGN d 503      31.209  25.584 105.073  0.00  0.00    -0.296 OA
ATOM     92  O6S SGN d 503      27.623  19.662 104.595  0.00  0.00    -0.572 OA
ATOM     93  C2  SGN d 503      28.894  24.674 106.922  0.00  0.00     0.081 C 
ATOM     94  N   SGN d 503      29.715  25.868 107.011  0.00  0.00    -0.210 NA
ATOM     95  O3  SGN d 503      26.973  25.671 107.961  0.00  0.00    -0.391 OA
ATOM     96  C5  SGN d 503      28.094  22.108 107.826  0.00  0.00     0.091 C 
ATOM     97  O3S SGN d 503      30.861  27.759 106.047  0.00  0.00    -0.296 OA
ATOM     98  H   SGN d 503      26.761  20.549 108.375  0.00  0.00     0.080 H 
ATOM     99  H   SGN d 503      28.163  20.001 107.513  0.00  0.00     0.080 H 
ATOM    100  H   SGN d 503      26.501  23.326 107.067  0.00  0.00     0.091 H 
ATOM    101  H   SGN d 503      28.738  25.842 104.487  0.00  0.00     0.231 HD
ATOM    102  H   SGN d 503      28.413  24.660 108.995  0.00  0.00     0.089 H 
ATOM    103  H   SGN d 503      30.409  23.474 106.003  0.00  0.00     0.131 H 
ATOM    104  H   SGN d 503      30.751  24.774 104.801  0.00  0.00     0.231 HD
ATOM    105  H   SGN d 503      28.330  24.722 106.014  0.00  0.00     0.076 H 
ATOM    106  H   SGN d 503      29.166  26.580 107.492  0.00  0.00     0.140 HD
ATOM    107  H   SGN d 503      26.504  25.617 107.114  0.00  0.00     0.210 HD
ATOM    108  H   SGN d 503      28.586  22.099 108.776  0.00  0.00     0.090 H 
ATOM    109  H   SGN d 503      31.613  27.562 106.629  0.00  0.00     0.231 HD
ATOM    110  O61 IDS d 504      22.559  25.938 108.066  0.00  0.00    -0.646 OA
ATOM    111  O62 IDS d 504      23.435  27.051 109.624  0.00  0.00    -0.646 OA
ATOM    112  O3S IDS d 504      24.728  19.131 109.466  0.00  0.00    -0.572 OA
ATOM    113  S   IDS d 504      23.406  19.548 109.748  0.00  0.00     0.252 S 
ATOM    114  C6  IDS d 504      23.284  25.969 109.052  0.00  0.00     0.206 C 
ATOM    115  O3  IDS d 504      25.270  23.420 111.847  0.00  0.00    -0.390 OA
ATOM    116  C1  IDS d 504      25.043  22.694 108.837  0.00  0.00     0.161 C 
ATOM    117  O2  IDS d 504      23.478  21.082 109.638  0.00  0.00    -0.244 OA
ATOM    118  C5  IDS d 504      23.966  24.693 109.572  0.00  0.00     0.152 C 
ATOM    119  C4  IDS d 504      23.261  24.012 110.743  0.00  0.00     0.103 C 
ATOM    120  O5  IDS d 504      24.157  23.773 108.522  0.00  0.00    -0.340 OA
ATOM    121  O4  IDS d 504      21.996  23.517 110.330  0.00  0.00    -0.348 OA
ATOM    122  C2  IDS d 504      24.562  21.915 110.045  0.00  0.00     0.134 C 
ATOM    123  O1S IDS d 504      23.033  19.259 111.084  0.00  0.00    -0.572 OA
ATOM    124  O2S IDS d 504      22.418  19.092 108.814  0.00  0.00    -0.572 OA
ATOM    125  C3  IDS d 504      24.119  22.855 111.231  0.00  0.00     0.094 C 
ATOM    126  H   IDS d 504      24.995  23.998 112.576  0.00  0.00     0.210 HD
ATOM    127  H   IDS d 504      25.047  22.063 107.973  0.00  0.00     0.133 H 
ATOM    128  H   IDS d 504      24.908  25.022 109.959  0.00  0.00     0.104 H 
ATOM    129  H   IDS d 504      23.116  24.722 111.531  0.00  0.00     0.092 H 
ATOM    130  H   IDS d 504      25.373  21.324 110.415  0.00  0.00     0.097 H 
ATOM    131  H   IDS d 504      23.557  22.255 111.916  0.00  0.00     0.091 H 
ENDROOT
TORSDOF 40
ENDMDL
MODEL 58
REMARK VINA RESULT:      -9.1      3.577      5.808
REMARK  0 active torsions:
REMARK  status: ('A' for Active; 'I' for Inactive)
REMARK       I    between atoms: C6_1  and  C5_82 
REMARK       I    between atoms: O2_4  and  C2_65 
REMARK       I    between atoms: O2_4  and  S_6 
REMARK       I    between atoms: S2_5  and  O6_13 
REMARK       I    between atoms: C6_7  and  C5_66 
REMARK       I    between atoms: C6_7  and  O6_11 
REMARK       I    between atoms: S_8  and  O2_37 
REMARK       I    between atoms: O6_11  and  S2_34 
REMARK       I    between atoms: O6_13  and  C6_16 
REMARK       I    between atoms: C6_16  and  C5_76 
REMARK       I    between atoms: O2S_17  and  S1_21 
REMARK       I    between atoms: O4_18  and  C4_33 
REMARK       I    between atoms: C4_19  and  O4_25 
REMARK       I    between atoms: O3_20  and  C3_57 
REMARK       I    between atoms: S1_21  and  N_56 
REMARK       I    between atoms: S1_21  and  O1S_55 
REMARK       I    between atoms: S1_21  and  O3S_68 
REMARK       I    between atoms: O3_24  and  C3_80 
REMARK       I    between atoms: O4_25  and  C1_53 
REMARK       I    between atoms: S1_26  and  N_59 
REMARK       I    between atoms: S1_26  and  O1S_42 
REMARK       I    between atoms: S1_26  and  O2S_29 
REMARK       I    between atoms: S1_26  and  O3S_87 
REMARK       I    between atoms: S_30  and  O2_54 
REMARK       I    between atoms: C3_31  and  O3_61 
REMARK       I    between atoms: O4_36  and  C4_70 
REMARK       I    between atoms: O4_36  and  C1_52 
REMARK       I    between atoms: O2_37  and  C2_45 
REMARK       I    between atoms: C4_38  and  O4_71 
REMARK       I    between atoms: C1_39  and  O1_51 
REMARK       I    between atoms: C1_40  and  O4_71 
REMARK       I    between atoms: C6_46  and  C5_84 
REMARK       I    between atoms: C6_47  and  C5_64 
REMARK       I    between atoms: C1_48  and  O4_77 
REMARK       I    between atoms: O3_50  and  C3_86 
REMARK       I    between atoms: O2_54  and  C2_79 
REMARK       I    between atoms: N_56  and  C2_67 
REMARK       I    between atoms: C2_58  and  N_59 
REMARK       I    between atoms: C3_62  and  O3_81 
REMARK       I    between atoms: C4_69  and  O4_77 
ROOT
ATOM      1  C6  IDS d 506      17.008  20.737 108.721  0.00  0.00     0.206 C 
ATOM      2  O62 IDS d 506      16.516  19.640 108.518  0.00  0.00    -0.646 OA
ATOM      3  S   IDS d 506      17.577  25.185 104.334  0.00  0.00     0.252 S 
ATOM      4  O1S IDS d 506      17.428  24.141 103.368  0.00  0.00    -0.572 OA
ATOM      5  O3S IDS d 506      18.711  26.045 104.075  0.00  0.00    -0.572 OA
ATOM      6  O4  IDS d 506      16.148  21.923 106.103  0.00  0.00    -0.390 OA
ATOM      7  O3  IDS d 506      19.503  21.308 105.012  0.00  0.00    -0.390 OA
ATOM      8  C4  IDS d 506      17.425  21.345 106.234  0.00  0.00     0.097 C 
ATOM      9  O2  IDS d 506      17.911  24.440 105.698  0.00  0.00    -0.244 OA
ATOM     10  C2  IDS d 506      18.900  23.459 105.940  0.00  0.00     0.134 C 
ATOM     11  C1  IDS d 506      19.179  23.351 107.446  0.00  0.00     0.161 C 
ATOM     12  O2S IDS d 506      16.348  25.906 104.509  0.00  0.00    -0.572 OA
ATOM     13  O5  IDS d 506      18.064  22.757 108.062  0.00  0.00    -0.340 OA
ATOM     14  O61 IDS d 506      16.789  21.272 109.799  0.00  0.00    -0.646 OA
ATOM     15  C3  IDS d 506      18.382  22.134 105.315  0.00  0.00     0.094 C 
ATOM     16  C5  IDS d 506      17.884  21.429 107.694  0.00  0.00     0.152 C 
ATOM     17  H   IDS d 506      15.861  21.867 105.177  0.00  0.00     0.210 HD
ATOM     18  H   IDS d 506      19.195  20.476 104.620  0.00  0.00     0.210 HD
ATOM     19  H   IDS d 506      17.413  20.312 105.955  0.00  0.00     0.091 H 
ATOM     20  H   IDS d 506      19.838  23.711 105.492  0.00  0.00     0.097 H 
ATOM     21  H   IDS d 506      20.062  22.773 107.617  0.00  0.00     0.133 H 
ATOM     22  H   IDS d 506      17.825  22.399 104.440  0.00  0.00     0.091 H 
ATOM     23  H   IDS d 506      18.803  20.882 107.707  0.00  0.00     0.104 H 
ATOM     24  O62 IDS d 502      33.171  21.905 107.454  0.00  0.00    -0.646 OA
ATOM     25  O2  IDS d 502      32.605  27.138 109.506  0.00  0.00    -0.244 OA
ATOM     26  S   IDS d 502      31.937  28.490 109.087  0.00  0.00     0.252 S 
ATOM     27  O3  IDS d 502      35.380  26.081 107.498  0.00  0.00    -0.390 OA
ATOM     28  O2S IDS d 502      30.535  28.197 108.903  0.00  0.00    -0.572 OA
ATOM     29  C4  IDS d 502      33.242  24.980 107.574  0.00  0.00     0.103 C 
ATOM     30  C1  IDS d 502      34.234  25.575 110.230  0.00  0.00     0.158 C 
ATOM     31  O61 IDS d 502      32.230  22.155 109.285  0.00  0.00    -0.646 OA
ATOM     32  C6  IDS d 502      32.980  22.586 108.443  0.00  0.00     0.206 C 
ATOM     33  O1  IDS d 502      35.615  25.334 110.181  0.00  0.00    -0.368 OA
ATOM     34  C3  IDS d 502      34.016  26.291 107.810  0.00  0.00     0.094 C 
ATOM     35  O3S IDS d 502      32.205  29.386 110.182  0.00  0.00    -0.572 OA
ATOM     36  O5  IDS d 502      33.474  24.434 109.919  0.00  0.00    -0.340 OA
ATOM     37  C2  IDS d 502      33.925  26.725 109.275  0.00  0.00     0.134 C 
ATOM     38  O4  IDS d 502      31.863  25.220 107.685  0.00  0.00    -0.348 OA
ATOM     39  O1S IDS d 502      32.570  28.918 107.871  0.00  0.00    -0.572 OA
ATOM     40  C5  IDS d 502      33.661  23.937 108.608  0.00  0.00     0.152 C 
ATOM     41  H   IDS d 502      35.462  25.804 106.573  0.00  0.00     0.210 HD
ATOM     42  H   IDS d 502      33.464  24.613 106.593  0.00  0.00     0.092 H 
ATOM     43  H   IDS d 502      33.960  25.837 111.230  0.00  0.00     0.133 H 
ATOM     44  H   IDS d 502      35.870  25.095 109.275  0.00  0.00     0.212 HD
ATOM     45  H   IDS d 502      33.589  27.051 107.190  0.00  0.00     0.091 H 
ATOM     46  H   IDS d 502      34.637  27.503 109.451  0.00  0.00     0.097 H 
ATOM     47  H   IDS d 502      34.702  23.759 108.437  0.00  0.00     0.104 H 
ATOM     48  S2  SGN d 505      18.771  28.918 108.805  0.00  0.00     0.251 S 
ATOM     49  O6  SGN d 505      19.496  27.593 108.993  0.00  0.00    -0.254 OA
ATOM     50  O5S SGN d 505      19.101  29.681 109.983  0.00  0.00    -0.572 OA
ATOM     51  C6  SGN d 505      20.538  27.090 108.230  0.00  0.00     0.067 C 
ATOM     52  O2S SGN d 505      20.538  23.410 114.191  0.00  0.00    -0.296 OA
ATOM     53  S1  SGN d 505      21.904  23.544 113.741  0.00  0.00     0.156 S 
ATOM     54  O6S SGN d 505      19.297  29.518 107.586  0.00  0.00    -0.572 OA
ATOM     55  O4  SGN d 505      19.330  24.628 107.967  0.00  0.00    -0.348 OA
ATOM     56  O5  SGN d 505      21.551  26.332 110.165  0.00  0.00    -0.349 OA
ATOM     57  O4S SGN d 505      17.375  28.560 108.693  0.00  0.00    -0.572 OA
ATOM     58  C1  SGN d 505      22.189  25.334 110.910  0.00  0.00     0.150 C 
ATOM     59  O1S SGN d 505      22.411  24.890 113.907  0.00  0.00    -0.296 OA
ATOM     60  N   SGN d 505      21.850  23.223 112.097  0.00  0.00    -0.210 NA
ATOM     61  C3  SGN d 505      20.573  23.673 109.931  0.00  0.00     0.083 C 
ATOM     62  C2  SGN d 505      21.200  24.229 111.224  0.00  0.00     0.081 C 
ATOM     63  O3S SGN d 505      22.741  22.559 114.327  0.00  0.00    -0.296 OA
ATOM     64  C4  SGN d 505      19.916  24.894 109.224  0.00  0.00     0.095 C 
ATOM     65  C5  SGN d 505      21.011  25.877 108.963  0.00  0.00     0.091 C 
ATOM     66  O3  SGN d 505      19.587  22.711 110.284  0.00  0.00    -0.391 OA
ATOM     67  H   SGN d 505      21.326  27.810 108.149  0.00  0.00     0.080 H 
ATOM     68  H   SGN d 505      20.228  26.859 107.232  0.00  0.00     0.080 H 
ATOM     69  H   SGN d 505      19.992  24.095 113.774  0.00  0.00     0.231 HD
ATOM     70  H   SGN d 505      22.541  25.745 111.834  0.00  0.00     0.131 H 
ATOM     71  H   SGN d 505      21.802  25.519 113.489  0.00  0.00     0.231 HD
ATOM     72  H   SGN d 505      21.349  22.342 111.974  0.00  0.00     0.140 HD
ATOM     73  H   SGN d 505      21.288  23.200 109.291  0.00  0.00     0.089 H 
ATOM     74  H   SGN d 505      20.368  24.606 111.781  0.00  0.00     0.076 H 
ATOM     75  H   SGN d 505      22.355  21.681 114.186  0.00  0.00     0.231 HD
ATOM     76  H   SGN d 505      19.132  25.228 109.871  0.00  0.00     0.091 H 
ATOM     77  H   SGN d 505      21.730  25.353 108.369  0.00  0.00     0.090 H 
ATOM     78  H   SGN d 505      18.929  23.122 110.866  0.00  0.00     0.210 HD
ATOM     79  C6  SGN d 503      29.291  22.228 108.817  0.00  0.00     0.067 C 
ATOM     80  O6  SGN d 503      28.618  21.571 107.765  0.00  0.00    -0.254 OA
ATOM     81  C4  SGN d 503      28.457  24.470 107.909  0.00  0.00     0.095 C 
ATOM     82  O5  SGN d 503      30.516  23.381 107.256  0.00  0.00    -0.349 OA
ATOM     83  O4  SGN d 503      27.692  24.751 109.035  0.00  0.00    -0.348 OA
ATOM     84  S1  SGN d 503      30.949  26.651 104.084  0.00  0.00     0.156 S 
ATOM     85  O4S SGN d 503      28.694  19.372 108.756  0.00  0.00    -0.572 OA
ATOM     86  O2S SGN d 503      29.823  26.140 103.304  0.00  0.00    -0.296 OA
ATOM     87  C3  SGN d 503      28.943  25.788 107.311  0.00  0.00     0.083 C 
ATOM     88  S2  SGN d 503      28.630  20.042 107.501  0.00  0.00     0.251 S 
ATOM     89  O5S SGN d 503      27.405  19.723 106.775  0.00  0.00    -0.572 OA
ATOM     90  C1  SGN d 503      31.073  24.560 106.733  0.00  0.00     0.150 C 
ATOM     91  O1S SGN d 503      32.104  25.776 104.011  0.00  0.00    -0.296 OA
ATOM     92  O6S SGN d 503      29.825  19.835 106.780  0.00  0.00    -0.572 OA
ATOM     93  C2  SGN d 503      29.952  25.475 106.221  0.00  0.00     0.081 C 
ATOM     94  N   SGN d 503      30.507  26.689 105.650  0.00  0.00    -0.210 NA
ATOM     95  O3  SGN d 503      27.827  26.459 106.757  0.00  0.00    -0.391 OA
ATOM     96  C5  SGN d 503      29.657  23.604 108.331  0.00  0.00     0.091 C 
ATOM     97  O3S SGN d 503      31.280  28.029 103.799  0.00  0.00    -0.296 OA
ATOM     98  H   SGN d 503      28.651  22.300 109.671  0.00  0.00     0.080 H 
ATOM     99  H   SGN d 503      30.168  21.684 109.101  0.00  0.00     0.080 H 
ATOM    100  H   SGN d 503      27.880  23.940 107.179  0.00  0.00     0.091 H 
ATOM    101  H   SGN d 503      29.657  25.215 103.544  0.00  0.00     0.231 HD
ATOM    102  H   SGN d 503      29.402  26.404 108.056  0.00  0.00     0.089 H 
ATOM    103  H   SGN d 503      31.715  24.302 105.917  0.00  0.00     0.131 H 
ATOM    104  H   SGN d 503      31.832  24.866 104.208  0.00  0.00     0.231 HD
ATOM    105  H   SGN d 503      29.426  24.953 105.450  0.00  0.00     0.076 H 
ATOM    106  H   SGN d 503      29.805  27.422 105.751  0.00  0.00     0.140 HD
ATOM    107  H   SGN d 503      27.414  25.897 106.083  0.00  0.00     0.210 HD
ATOM    108  H   SGN d 503      30.103  24.167 109.124  0.00  0.00     0.090 H 
ATOM    109  H   SGN d 503      32.033  28.301 104.349  0.00  0.00     0.231 HD
ATOM    110  O61 IDS d 504      23.451  25.868 107.018  0.00  0.00    -0.646 OA
ATOM    111  O62 IDS d 504      24.019  27.757 107.754  0.00  0.00    -0.646 OA
ATOM    112  O3S IDS d 504      26.908  21.248 111.458  0.00  0.00    -0.572 OA
ATOM    113  S   IDS d 504      25.519  21.481 111.585  0.00  0.00     0.252 S 
ATOM    114  C6  IDS d 504      24.115  26.529 107.806  0.00  0.00     0.206 C 
ATOM    115  O3  IDS d 504      26.467  26.163 111.355  0.00  0.00    -0.390 OA
ATOM    116  C1  IDS d 504      26.513  24.004 109.124  0.00  0.00     0.161 C 
ATOM    117  O2  IDS d 504      25.280  22.735 110.724  0.00  0.00    -0.244 OA
ATOM    118  C5  IDS d 504      25.023  25.846 108.843  0.00  0.00     0.152 C 
ATOM    119  C4  IDS d 504      24.425  25.717 110.242  0.00  0.00     0.103 C 
ATOM    120  O5  IDS d 504      25.438  24.583 108.377  0.00  0.00    -0.340 OA
ATOM    121  O4  IDS d 504      23.305  24.844 110.217  0.00  0.00    -0.348 OA
ATOM    122  C2  IDS d 504      26.154  23.854 110.589  0.00  0.00     0.134 C 
ATOM    123  O1S IDS d 504      25.160  21.832 112.911  0.00  0.00    -0.572 OA
ATOM    124  O2S IDS d 504      24.682  20.437 111.070  0.00  0.00    -0.572 OA
ATOM    125  C3  IDS d 504      25.482  25.153 111.180  0.00  0.00     0.094 C 
ATOM    126  H   IDS d 504      26.052  26.961 111.718  0.00  0.00     0.210 HD
ATOM    127  H   IDS d 504      26.680  23.041 108.689  0.00  0.00     0.133 H 
ATOM    128  H   IDS d 504      25.861  26.502 108.950  0.00  0.00     0.104 H 
ATOM    129  H   IDS d 504      24.107  26.681 110.582  0.00  0.00     0.092 H 
ATOM    130  H   IDS d 504      27.053  23.700 111.147  0.00  0.00     0.097 H 
ATOM    131  H   IDS d 504      25.027  24.878 112.109  0.00  0.00     0.091 H 
ENDROOT
TORSDOF 40
ENDMDL
MODEL 59
REMARK VINA RESULT:      -9.0      3.428      5.016
REMARK  0 active torsions:
REMARK  status: ('A' for Active; 'I' for Inactive)
REMARK       I    between atoms: C6_1  and  C5_82 
REMARK       I    between atoms: O2_4  and  C2_65 
REMARK       I    between atoms: O2_4  and  S_6 
REMARK       I    between atoms: S2_5  and  O6_13 
REMARK       I    between atoms: C6_7  and  C5_66 
REMARK       I    between atoms: C6_7  and  O6_11 
REMARK       I    between atoms: S_8  and  O2_37 
REMARK       I    between atoms: O6_11  and  S2_34 
REMARK       I    between atoms: O6_13  and  C6_16 
REMARK       I    between atoms: C6_16  and  C5_76 
REMARK       I    between atoms: O2S_17  and  S1_21 
REMARK       I    between atoms: O4_18  and  C4_33 
REMARK       I    between atoms: C4_19  and  O4_25 
REMARK       I    between atoms: O3_20  and  C3_57 
REMARK       I    between atoms: S1_21  and  N_56 
REMARK       I    between atoms: S1_21  and  O1S_55 
REMARK       I    between atoms: S1_21  and  O3S_68 
REMARK       I    between atoms: O3_24  and  C3_80 
REMARK       I    between atoms: O4_25  and  C1_53 
REMARK       I    between atoms: S1_26  and  N_59 
REMARK       I    between atoms: S1_26  and  O1S_42 
REMARK       I    between atoms: S1_26  and  O2S_29 
REMARK       I    between atoms: S1_26  and  O3S_87 
REMARK       I    between atoms: S_30  and  O2_54 
REMARK       I    between atoms: C3_31  and  O3_61 
REMARK       I    between atoms: O4_36  and  C4_70 
REMARK       I    between atoms: O4_36  and  C1_52 
REMARK       I    between atoms: O2_37  and  C2_45 
REMARK       I    between atoms: C4_38  and  O4_71 
REMARK       I    between atoms: C1_39  and  O1_51 
REMARK       I    between atoms: C1_40  and  O4_71 
REMARK       I    between atoms: C6_46  and  C5_84 
REMARK       I    between atoms: C6_47  and  C5_64 
REMARK       I    between atoms: C1_48  and  O4_77 
REMARK       I    between atoms: O3_50  and  C3_86 
REMARK       I    between atoms: O2_54  and  C2_79 
REMARK       I    between atoms: N_56  and  C2_67 
REMARK       I    between atoms: C2_58  and  N_59 
REMARK       I    between atoms: C3_62  and  O3_81 
REMARK       I    between atoms: C4_69  and  O4_77 
ROOT
ATOM      1  C6  IDS d 506      21.215  16.701 107.355  0.00  0.00     0.206 C 
ATOM      2  O62 IDS d 506      21.653  15.823 106.632  0.00  0.00    -0.646 OA
ATOM      3  S   IDS d 506      16.777  20.778 105.612  0.00  0.00     0.252 S 
ATOM      4  O1S IDS d 506      17.112  20.445 104.261  0.00  0.00    -0.572 OA
ATOM      5  O3S IDS d 506      16.729  22.204 105.853  0.00  0.00    -0.572 OA
ATOM      6  O4  IDS d 506      18.929  17.435 105.555  0.00  0.00    -0.390 OA
ATOM      7  O3  IDS d 506      20.973  20.180 104.500  0.00  0.00    -0.390 OA
ATOM      8  C4  IDS d 506      20.149  18.134 105.474  0.00  0.00     0.097 C 
ATOM      9  O2  IDS d 506      17.993  20.240 106.483  0.00  0.00    -0.244 OA
ATOM     10  C2  IDS d 506      19.375  20.470 106.293  0.00  0.00     0.134 C 
ATOM     11  C1  IDS d 506      20.144  20.161 107.586  0.00  0.00     0.161 C 
ATOM     12  O2S IDS d 506      15.589  20.091 106.033  0.00  0.00    -0.572 OA
ATOM     13  O5  IDS d 506      20.135  18.770 107.784  0.00  0.00    -0.340 OA
ATOM     14  O61 IDS d 506      21.072  16.448 108.543  0.00  0.00    -0.646 OA
ATOM     15  C3  IDS d 506      19.817  19.592 105.090  0.00  0.00     0.094 C 
ATOM     16  C5  IDS d 506      20.868  18.080 106.826  0.00  0.00     0.152 C 
ATOM     17  H   IDS d 506      18.477  17.472 104.697  0.00  0.00     0.210 HD
ATOM     18  H   IDS d 506      21.261  19.642 103.746  0.00  0.00     0.210 HD
ATOM     19  H   IDS d 506      20.797  17.698 104.742  0.00  0.00     0.091 H 
ATOM     20  H   IDS d 506      19.588  21.495 106.070  0.00  0.00     0.097 H 
ATOM     21  H   IDS d 506      21.146  20.530 107.516  0.00  0.00     0.133 H 
ATOM     22  H   IDS d 506      18.990  19.554 104.411  0.00  0.00     0.091 H 
ATOM     23  H   IDS d 506      21.812  18.544 106.634  0.00  0.00     0.104 H 
ATOM     24  O62 IDS d 502      29.446  30.712 107.726  0.00  0.00    -0.646 OA
ATOM     25  O2  IDS d 502      26.017  32.213 111.958  0.00  0.00    -0.244 OA
ATOM     26  S   IDS d 502      24.493  32.483 112.185  0.00  0.00     0.252 S 
ATOM     27  O3  IDS d 502      27.721  34.562 109.854  0.00  0.00    -0.390 OA
ATOM     28  O2S IDS d 502      23.815  31.265 111.804  0.00  0.00    -0.572 OA
ATOM     29  C4  IDS d 502      27.290  32.266 109.279  0.00  0.00     0.103 C 
ATOM     30  C1  IDS d 502      28.368  32.515 111.956  0.00  0.00     0.158 C 
ATOM     31  O61 IDS d 502      29.349  29.495 109.402  0.00  0.00    -0.646 OA
ATOM     32  C6  IDS d 502      29.183  30.583 108.906  0.00  0.00     0.206 C 
ATOM     33  O1  IDS d 502      29.341  33.523 111.880  0.00  0.00    -0.368 OA
ATOM     34  C3  IDS d 502      26.873  33.468 110.148  0.00  0.00     0.094 C 
ATOM     35  O3S IDS d 502      24.379  32.796 113.586  0.00  0.00    -0.572 OA
ATOM     36  O5  IDS d 502      28.643  31.433 111.103  0.00  0.00    -0.340 OA
ATOM     37  C2  IDS d 502      27.015  33.144 111.638  0.00  0.00     0.134 C 
ATOM     38  O4  IDS d 502      26.341  31.239 109.410  0.00  0.00    -0.348 OA
ATOM     39  O1S IDS d 502      24.128  33.594 111.351  0.00  0.00    -0.572 OA
ATOM     40  C5  IDS d 502      28.657  31.753 109.726  0.00  0.00     0.152 C 
ATOM     41  H   IDS d 502      27.647  34.785 108.913  0.00  0.00     0.210 HD
ATOM     42  H   IDS d 502      27.345  32.574 108.256  0.00  0.00     0.092 H 
ATOM     43  H   IDS d 502      28.366  32.106 112.945  0.00  0.00     0.133 H 
ATOM     44  H   IDS d 502      29.348  33.898 110.985  0.00  0.00     0.212 HD
ATOM     45  H   IDS d 502      25.851  33.701 109.933  0.00  0.00     0.091 H 
ATOM     46  H   IDS d 502      26.929  34.050 112.199  0.00  0.00     0.097 H 
ATOM     47  H   IDS d 502      29.341  32.557 109.551  0.00  0.00     0.104 H 
ATOM     48  S2  SGN d 505      16.324  22.177 111.372  0.00  0.00     0.251 S 
ATOM     49  O6  SGN d 505      17.782  22.040 110.958  0.00  0.00    -0.254 OA
ATOM     50  O5S SGN d 505      16.373  22.447 112.787  0.00  0.00    -0.572 OA
ATOM     51  C6  SGN d 505      18.496  22.872 110.110  0.00  0.00     0.067 C 
ATOM     52  O2S SGN d 505      23.259  19.135 113.634  0.00  0.00    -0.296 OA
ATOM     53  S1  SGN d 505      23.809  20.446 113.380  0.00  0.00     0.156 S 
ATOM     54  O6S SGN d 505      15.770  23.289 110.611  0.00  0.00    -0.572 OA
ATOM     55  O4  SGN d 505      19.485  20.754 108.652  0.00  0.00    -0.348 OA
ATOM     56  O5  SGN d 505      20.321  22.693 111.518  0.00  0.00    -0.349 OA
ATOM     57  O4S SGN d 505      15.722  20.909 111.025  0.00  0.00    -0.572 OA
ATOM     58  C1  SGN d 505      21.684  22.471 111.743  0.00  0.00     0.150 C 
ATOM     59  O1S SGN d 505      23.185  21.473 114.188  0.00  0.00    -0.296 OA
ATOM     60  N   SGN d 505      23.436  20.766 111.777  0.00  0.00    -0.210 NA
ATOM     61  C3  SGN d 505      21.599  20.652 110.007  0.00  0.00     0.083 C 
ATOM     62  C2  SGN d 505      22.016  21.022 111.443  0.00  0.00     0.081 C 
ATOM     63  O3S SGN d 505      25.225  20.442 113.483  0.00  0.00    -0.296 OA
ATOM     64  C4  SGN d 505      20.076  20.958 109.919  0.00  0.00     0.095 C 
ATOM     65  C5  SGN d 505      19.914  22.414 110.214  0.00  0.00     0.091 C 
ATOM     66  O3  SGN d 505      21.842  19.266 109.809  0.00  0.00    -0.391 OA
ATOM     67  H   SGN d 505      18.406  23.892 110.423  0.00  0.00     0.080 H 
ATOM     68  H   SGN d 505      18.133  22.825 109.104  0.00  0.00     0.080 H 
ATOM     69  H   SGN d 505      22.293  19.169 113.557  0.00  0.00     0.231 HD
ATOM     70  H   SGN d 505      21.915  22.665 112.770  0.00  0.00     0.131 H 
ATOM     71  H   SGN d 505      22.222  21.429 114.079  0.00  0.00     0.231 HD
ATOM     72  H   SGN d 505      23.740  19.963 111.227  0.00  0.00     0.140 HD
ATOM     73  H   SGN d 505      22.142  21.197 109.262  0.00  0.00     0.089 H 
ATOM     74  H   SGN d 505      21.445  20.363 112.062  0.00  0.00     0.076 H 
ATOM     75  H   SGN d 505      25.587  19.738 112.923  0.00  0.00     0.231 HD
ATOM     76  H   SGN d 505      19.596  20.286 110.600  0.00  0.00     0.091 H 
ATOM     77  H   SGN d 505      20.512  22.922 109.486  0.00  0.00     0.090 H 
ATOM     78  H   SGN d 505      21.358  18.755 110.476  0.00  0.00     0.210 HD
ATOM     79  C6  SGN d 503      27.400  27.313 108.853  0.00  0.00     0.067 C 
ATOM     80  O6  SGN d 503      27.115  26.778 107.578  0.00  0.00    -0.254 OA
ATOM     81  C4  SGN d 503      24.958  28.048 109.057  0.00  0.00     0.095 C 
ATOM     82  O5  SGN d 503      26.737  29.372 108.091  0.00  0.00    -0.349 OA
ATOM     83  O4  SGN d 503      24.696  27.213 110.137  0.00  0.00    -0.348 OA
ATOM     84  S1  SGN d 503      23.502  32.365 106.856  0.00  0.00     0.156 S 
ATOM     85  O4S SGN d 503      29.108  25.426 107.424  0.00  0.00    -0.572 OA
ATOM     86  O2S SGN d 503      22.938  31.452 105.864  0.00  0.00    -0.296 OA
ATOM     87  C3  SGN d 503      24.076  29.288 109.178  0.00  0.00     0.083 C 
ATOM     88  S2  SGN d 503      28.144  26.109 106.629  0.00  0.00     0.251 S 
ATOM     89  O5S SGN d 503      27.400  25.194 105.768  0.00  0.00    -0.572 OA
ATOM     90  C1  SGN d 503      26.024  30.577 108.216  0.00  0.00     0.150 C 
ATOM     91  O1S SGN d 503      24.794  32.882 106.448  0.00  0.00    -0.296 OA
ATOM     92  O6S SGN d 503      28.747  27.199 105.965  0.00  0.00    -0.572 OA
ATOM     93  C2  SGN d 503      24.517  30.293 108.129  0.00  0.00     0.081 C 
ATOM     94  N   SGN d 503      23.760  31.528 108.228  0.00  0.00    -0.210 NA
ATOM     95  O3  SGN d 503      22.736  28.900 108.940  0.00  0.00    -0.391 OA
ATOM     96  C5  SGN d 503      26.444  28.449 109.092  0.00  0.00     0.091 C 
ATOM     97  O3S SGN d 503      22.594  33.410 107.272  0.00  0.00    -0.296 OA
ATOM     98  H   SGN d 503      27.269  26.560 109.602  0.00  0.00     0.080 H 
ATOM     99  H   SGN d 503      28.413  27.657 108.898  0.00  0.00     0.080 H 
ATOM    100  H   SGN d 503      24.749  27.552 108.132  0.00  0.00     0.091 H 
ATOM    101  H   SGN d 503      23.598  30.779 105.632  0.00  0.00     0.231 HD
ATOM    102  H   SGN d 503      24.157  29.728 110.150  0.00  0.00     0.089 H 
ATOM    103  H   SGN d 503      26.305  31.226 107.413  0.00  0.00     0.131 H 
ATOM    104  H   SGN d 503      25.366  32.146 106.179  0.00  0.00     0.231 HD
ATOM    105  H   SGN d 503      24.319  29.855 107.174  0.00  0.00     0.076 H 
ATOM    106  H   SGN d 503      22.848  31.296 108.620  0.00  0.00     0.140 HD
ATOM    107  H   SGN d 503      22.666  28.502 108.058  0.00  0.00     0.210 HD
ATOM    108  H   SGN d 503      26.574  28.836 110.081  0.00  0.00     0.090 H 
ATOM    109  H   SGN d 503      23.031  33.977 107.927  0.00  0.00     0.231 HD
ATOM    110  O61 IDS d 504      20.679  24.997 108.638  0.00  0.00    -0.646 OA
ATOM    111  O62 IDS d 504      19.894  26.161 110.207  0.00  0.00    -0.646 OA
ATOM    112  O3S IDS d 504      27.633  24.061 110.581  0.00  0.00    -0.572 OA
ATOM    113  S   IDS d 504      26.688  23.017 110.722  0.00  0.00     0.252 S 
ATOM    114  C6  IDS d 504      20.864  25.610 109.681  0.00  0.00     0.206 C 
ATOM    115  O3  IDS d 504      23.756  26.191 112.772  0.00  0.00    -0.390 OA
ATOM    116  C1  IDS d 504      24.577  25.862 109.796  0.00  0.00     0.161 C 
ATOM    117  O2  IDS d 504      25.334  23.725 110.539  0.00  0.00    -0.244 OA
ATOM    118  C5  IDS d 504      22.258  25.670 110.327  0.00  0.00     0.152 C 
ATOM    119  C4  IDS d 504      22.489  24.677 111.465  0.00  0.00     0.103 C 
ATOM    120  O5  IDS d 504      23.261  25.523 109.347  0.00  0.00    -0.340 OA
ATOM    121  O4  IDS d 504      22.456  23.347 110.968  0.00  0.00    -0.348 OA
ATOM    122  C2  IDS d 504      24.986  25.031 110.996  0.00  0.00     0.134 C 
ATOM    123  O1S IDS d 504      26.685  22.480 112.034  0.00  0.00    -0.572 OA
ATOM    124  O2S IDS d 504      26.777  21.986 109.730  0.00  0.00    -0.572 OA
ATOM    125  C3  IDS d 504      23.850  24.948 112.087  0.00  0.00     0.094 C 
ATOM    126  H   IDS d 504      23.057  26.138 113.443  0.00  0.00     0.210 HD
ATOM    127  H   IDS d 504      25.225  25.655 108.970  0.00  0.00     0.133 H 
ATOM    128  H   IDS d 504      22.312  26.638 110.778  0.00  0.00     0.104 H 
ATOM    129  H   IDS d 504      21.719  24.793 112.198  0.00  0.00     0.092 H 
ATOM    130  H   IDS d 504      25.823  25.501 111.468  0.00  0.00     0.097 H 
ATOM    131  H   IDS d 504      24.107  24.148 112.750  0.00  0.00     0.091 H 
ENDROOT
TORSDOF 40
ENDMDL
MODEL 60
REMARK VINA RESULT:      -8.9      4.180     11.877
REMARK  0 active torsions:
REMARK  status: ('A' for Active; 'I' for Inactive)
REMARK       I    between atoms: C6_1  and  C5_82 
REMARK       I    between atoms: O2_4  and  C2_65 
REMARK       I    between atoms: O2_4  and  S_6 
REMARK       I    between atoms: S2_5  and  O6_13 
REMARK       I    between atoms: C6_7  and  C5_66 
REMARK       I    between atoms: C6_7  and  O6_11 
REMARK       I    between atoms: S_8  and  O2_37 
REMARK       I    between atoms: O6_11  and  S2_34 
REMARK       I    between atoms: O6_13  and  C6_16 
REMARK       I    between atoms: C6_16  and  C5_76 
REMARK       I    between atoms: O2S_17  and  S1_21 
REMARK       I    between atoms: O4_18  and  C4_33 
REMARK       I    between atoms: C4_19  and  O4_25 
REMARK       I    between atoms: O3_20  and  C3_57 
REMARK       I    between atoms: S1_21  and  N_56 
REMARK       I    between atoms: S1_21  and  O1S_55 
REMARK       I    between atoms: S1_21  and  O3S_68 
REMARK       I    between atoms: O3_24  and  C3_80 
REMARK       I    between atoms: O4_25  and  C1_53 
REMARK       I    between atoms: S1_26  and  N_59 
REMARK       I    between atoms: S1_26  and  O1S_42 
REMARK       I    between atoms: S1_26  and  O2S_29 
REMARK       I    between atoms: S1_26  and  O3S_87 
REMARK       I    between atoms: S_30  and  O2_54 
REMARK       I    between atoms: C3_31  and  O3_61 
REMARK       I    between atoms: O4_36  and  C4_70 
REMARK       I    between atoms: O4_36  and  C1_52 
REMARK       I    between atoms: O2_37  and  C2_45 
REMARK       I    between atoms: C4_38  and  O4_71 
REMARK       I    between atoms: C1_39  and  O1_51 
REMARK       I    between atoms: C1_40  and  O4_71 
REMARK       I    between atoms: C6_46  and  C5_84 
REMARK       I    between atoms: C6_47  and  C5_64 
REMARK       I    between atoms: C1_48  and  O4_77 
REMARK       I    between atoms: O3_50  and  C3_86 
REMARK       I    between atoms: O2_54  and  C2_79 
REMARK       I    between atoms: N_56  and  C2_67 
REMARK       I    between atoms: C2_58  and  N_59 
REMARK       I    between atoms: C3_62  and  O3_81 
REMARK       I    between atoms: C4_69  and  O4_77 
ROOT
ATOM      1  C6  IDS d 506      37.408  24.291 108.791  0.00  0.00     0.206 C 
ATOM      2  O62 IDS d 506      37.886  23.215 109.104  0.00  0.00    -0.646 OA
ATOM      3  S   IDS d 506      37.442  29.347 112.505  0.00  0.00     0.252 S 
ATOM      4  O1S IDS d 506      37.664  28.448 113.596  0.00  0.00    -0.572 OA
ATOM      5  O3S IDS d 506      36.367  30.284 112.749  0.00  0.00    -0.572 OA
ATOM      6  O4  IDS d 506      38.578  25.803 111.104  0.00  0.00    -0.390 OA
ATOM      7  O3  IDS d 506      35.342  25.502 112.610  0.00  0.00    -0.390 OA
ATOM      8  C4  IDS d 506      37.277  25.270 111.190  0.00  0.00     0.097 C 
ATOM      9  O2  IDS d 506      36.942  28.429 111.309  0.00  0.00    -0.244 OA
ATOM     10  C2  IDS d 506      35.905  27.467 111.316  0.00  0.00     0.134 C 
ATOM     11  C1  IDS d 506      35.463  27.156 109.879  0.00  0.00     0.161 C 
ATOM     12  O2S IDS d 506      38.666  29.979 112.102  0.00  0.00    -0.572 OA
ATOM     13  O5  IDS d 506      36.487  26.431 109.248  0.00  0.00    -0.340 OA
ATOM     14  O61 IDS d 506      37.525  24.655 107.630  0.00  0.00    -0.646 OA
ATOM     15  C3  IDS d 506      36.448  26.225 112.075  0.00  0.00     0.094 C 
ATOM     16  C5  IDS d 506      36.668  25.163 109.789  0.00  0.00     0.152 C 
ATOM     17  H   IDS d 506      38.960  25.869 111.994  0.00  0.00     0.210 HD
ATOM     18  H   IDS d 506      35.666  24.723 113.087  0.00  0.00     0.210 HD
ATOM     19  H   IDS d 506      37.289  24.288 111.616  0.00  0.00     0.091 H 
ATOM     20  H   IDS d 506      35.028  27.823 111.816  0.00  0.00     0.097 H 
ATOM     21  H   IDS d 506      34.550  26.599 109.887  0.00  0.00     0.133 H 
ATOM     22  H   IDS d 506      37.103  26.588 112.840  0.00  0.00     0.091 H 
ATOM     23  H   IDS d 506      35.736  24.661 109.950  0.00  0.00     0.104 H 
ATOM     24  O62 IDS d 502      21.515  26.349 111.510  0.00  0.00    -0.646 OA
ATOM     25  O2  IDS d 502      22.010  31.201 108.659  0.00  0.00    -0.244 OA
ATOM     26  S   IDS d 502      22.757  32.567 108.803  0.00  0.00     0.252 S 
ATOM     27  O3  IDS d 502      19.436  30.569 111.073  0.00  0.00    -0.390 OA
ATOM     28  O2S IDS d 502      24.162  32.242 108.884  0.00  0.00    -0.572 OA
ATOM     29  C4  IDS d 502      21.520  29.374 110.945  0.00  0.00     0.103 C 
ATOM     30  C1  IDS d 502      20.267  29.624 108.345  0.00  0.00     0.158 C 
ATOM     31  O61 IDS d 502      22.260  26.290 109.576  0.00  0.00    -0.646 OA
ATOM     32  C6  IDS d 502      21.618  26.870 110.417  0.00  0.00     0.206 C 
ATOM     33  O1  IDS d 502      18.893  29.453 108.569  0.00  0.00    -0.368 OA
ATOM     34  C3  IDS d 502      20.764  30.670 110.597  0.00  0.00     0.094 C 
ATOM     35  O3S IDS d 502      22.400  33.308 107.620  0.00  0.00    -0.572 OA
ATOM     36  O5  IDS d 502      21.022  28.507 108.743  0.00  0.00    -0.340 OA
ATOM     37  C2  IDS d 502      20.710  30.884 109.082  0.00  0.00     0.134 C 
ATOM     38  O4  IDS d 502      22.886  29.534 110.659  0.00  0.00    -0.348 OA
ATOM     39  O1S IDS d 502      22.271  33.194 110.001  0.00  0.00    -0.572 OA
ATOM     40  C5  IDS d 502      20.963  28.213 110.124  0.00  0.00     0.152 C 
ATOM     41  H   IDS d 502      19.446  30.433 112.033  0.00  0.00     0.210 HD
ATOM     42  H   IDS d 502      21.395  29.163 111.986  0.00  0.00     0.092 H 
ATOM     43  H   IDS d 502      20.440  29.726 107.294  0.00  0.00     0.133 H 
ATOM     44  H   IDS d 502      18.730  29.360 109.521  0.00  0.00     0.212 HD
ATOM     45  H   IDS d 502      21.278  31.492 111.051  0.00  0.00     0.091 H 
ATOM     46  H   IDS d 502      20.006  31.660 108.866  0.00  0.00     0.097 H 
ATOM     47  H   IDS d 502      19.942  28.107 110.425  0.00  0.00     0.104 H 
ATOM     48  S2  SGN d 505      35.884  32.445 107.677  0.00  0.00     0.251 S 
ATOM     49  O6  SGN d 505      35.105  31.140 107.761  0.00  0.00    -0.254 OA
ATOM     50  O5S SGN d 505      35.452  33.044 106.438  0.00  0.00    -0.572 OA
ATOM     51  C6  SGN d 505      34.136  30.800 108.693  0.00  0.00     0.067 C 
ATOM     52  O2S SGN d 505      33.390  26.301 103.374  0.00  0.00    -0.296 OA
ATOM     53  S1  SGN d 505      32.085  26.560 103.936  0.00  0.00     0.156 S 
ATOM     54  O6S SGN d 505      35.510  33.238 108.840  0.00  0.00    -0.572 OA
ATOM     55  O4  SGN d 505      35.294  28.350 109.193  0.00  0.00    -0.348 OA
ATOM     56  O5  SGN d 505      32.900  29.816 107.005  0.00  0.00    -0.349 OA
ATOM     57  O4S SGN d 505      37.273  32.045 107.697  0.00  0.00    -0.572 OA
ATOM     58  C1  SGN d 505      32.157  28.750 106.484  0.00  0.00     0.150 C 
ATOM     59  O1S SGN d 505      31.602  27.889 103.625  0.00  0.00    -0.296 OA
ATOM     60  N   SGN d 505      32.306  26.478 105.596  0.00  0.00    -0.210 NA
ATOM     61  C3  SGN d 505      33.821  27.178 107.529  0.00  0.00     0.083 C 
ATOM     62  C2  SGN d 505      33.075  27.569 106.238  0.00  0.00     0.081 C 
ATOM     63  O3S SGN d 505      31.161  25.539 103.591  0.00  0.00    -0.296 OA
ATOM     64  C4  SGN d 505      34.585  28.458 107.977  0.00  0.00     0.095 C 
ATOM     65  C5  SGN d 505      33.553  29.516 108.200  0.00  0.00     0.091 C 
ATOM     66  O3  SGN d 505      34.734  26.133 107.224  0.00  0.00    -0.391 OA
ATOM     67  H   SGN d 505      33.384  31.558 108.746  0.00  0.00     0.080 H 
ATOM     68  H   SGN d 505      34.545  30.701 109.677  0.00  0.00     0.080 H 
ATOM     69  H   SGN d 505      33.997  27.014 103.627  0.00  0.00     0.231 HD
ATOM     70  H   SGN d 505      31.721  29.039 105.551  0.00  0.00     0.131 H 
ATOM     71  H   SGN d 505      32.271  28.544 103.881  0.00  0.00     0.231 HD
ATOM     72  H   SGN d 505      32.791  25.602 105.796  0.00  0.00     0.140 HD
ATOM     73  H   SGN d 505      33.164  26.834 108.302  0.00  0.00     0.089 H 
ATOM     74  H   SGN d 505      33.853  27.824 105.551  0.00  0.00     0.076 H 
ATOM     75  H   SGN d 505      31.535  24.674 103.821  0.00  0.00     0.231 HD
ATOM     76  H   SGN d 505      35.304  28.660 107.211  0.00  0.00     0.091 H 
ATOM     77  H   SGN d 505      32.886  29.115 108.935  0.00  0.00     0.090 H 
ATOM     78  H   SGN d 505      35.338  26.426 106.524  0.00  0.00     0.210 HD
ATOM     79  C6  SGN d 503      25.233  26.298 109.727  0.00  0.00     0.067 C 
ATOM     80  O6  SGN d 503      25.996  25.771 110.791  0.00  0.00    -0.254 OA
ATOM     81  C4  SGN d 503      26.225  28.608 110.204  0.00  0.00     0.095 C 
ATOM     82  O5  SGN d 503      24.218  27.718 111.216  0.00  0.00    -0.349 OA
ATOM     83  O4  SGN d 503      26.873  28.690 108.976  0.00  0.00    -0.348 OA
ATOM     84  S1  SGN d 503      24.222  31.428 113.896  0.00  0.00     0.156 S 
ATOM     85  O4S SGN d 503      25.750  23.458 110.150  0.00  0.00    -0.572 OA
ATOM     86  O2S SGN d 503      25.410  30.985 114.625  0.00  0.00    -0.296 OA
ATOM     87  C3  SGN d 503      25.844  30.019 110.645  0.00  0.00     0.083 C 
ATOM     88  S2  SGN d 503      25.968  24.298 111.278  0.00  0.00     0.251 S 
ATOM     89  O5S SGN d 503      27.254  24.033 111.915  0.00  0.00    -0.572 OA
ATOM     90  C1  SGN d 503      23.754  28.984 111.613  0.00  0.00     0.150 C 
ATOM     91  O1S SGN d 503      23.057  30.625 114.215  0.00  0.00    -0.296 OA
ATOM     92  O6S SGN d 503      24.852  24.250 112.140  0.00  0.00    -0.572 OA
ATOM     93  C2  SGN d 503      24.950  29.913 111.867  0.00  0.00     0.081 C 
ATOM     94  N   SGN d 503      24.495  31.220 112.305  0.00  0.00    -0.210 NA
ATOM     95  O3  SGN d 503      27.032  30.713 110.977  0.00  0.00    -0.391 OA
ATOM     96  C5  SGN d 503      24.962  27.745 110.039  0.00  0.00     0.091 C 
ATOM     97  O3S SGN d 503      23.964  32.846 114.006  0.00  0.00    -0.296 OA
ATOM     98  H   SGN d 503      25.780  26.218 108.811  0.00  0.00     0.080 H 
ATOM     99  H   SGN d 503      24.316  25.759 109.618  0.00  0.00     0.080 H 
ATOM    100  H   SGN d 503      26.861  28.165 110.941  0.00  0.00     0.091 H 
ATOM    101  H   SGN d 503      25.522  30.029 114.508  0.00  0.00     0.231 HD
ATOM    102  H   SGN d 503      25.327  30.542 109.868  0.00  0.00     0.089 H 
ATOM    103  H   SGN d 503      23.196  28.875 112.519  0.00  0.00     0.131 H 
ATOM    104  H   SGN d 503      23.279  29.684 114.129  0.00  0.00     0.231 HD
ATOM    105  H   SGN d 503      25.540  29.484 112.649  0.00  0.00     0.076 H 
ATOM    106  H   SGN d 503      25.203  31.899 112.026  0.00  0.00     0.140 HD
ATOM    107  H   SGN d 503      27.499  30.236 111.682  0.00  0.00     0.210 HD
ATOM    108  H   SGN d 503      24.450  28.207 109.220  0.00  0.00     0.090 H 
ATOM    109  H   SGN d 503      23.165  33.068 113.501  0.00  0.00     0.231 HD
ATOM    110  O61 IDS d 504      31.336  29.896 110.363  0.00  0.00    -0.646 OA
ATOM    111  O62 IDS d 504      30.748  31.683 109.416  0.00  0.00    -0.646 OA
ATOM    112  O3S IDS d 504      27.290  24.843 107.032  0.00  0.00    -0.572 OA
ATOM    113  S   IDS d 504      28.664  24.993 106.731  0.00  0.00     0.252 S 
ATOM    114  C6  IDS d 504      30.611  30.466 109.557  0.00  0.00     0.206 C 
ATOM    115  O3  IDS d 504      27.882  29.696 106.360  0.00  0.00    -0.390 OA
ATOM    116  C1  IDS d 504      28.013  27.886 108.879  0.00  0.00     0.161 C 
ATOM    117  O2  IDS d 504      29.030  26.346 107.367  0.00  0.00    -0.244 OA
ATOM    118  C5  IDS d 504      29.578  29.681 108.731  0.00  0.00     0.152 C 
ATOM    119  C4  IDS d 504      30.018  29.325 107.312  0.00  0.00     0.103 C 
ATOM    120  O5  IDS d 504      29.178  28.518 109.419  0.00  0.00    -0.340 OA
ATOM    121  O4  IDS d 504      31.108  28.416 107.352  0.00  0.00    -0.348 OA
ATOM    122  C2  IDS d 504      28.209  27.511 107.423  0.00  0.00     0.134 C 
ATOM    123  O1S IDS d 504      28.888  25.132 105.338  0.00  0.00    -0.572 OA
ATOM    124  O2S IDS d 504      29.520  23.997 107.307  0.00  0.00    -0.572 OA
ATOM    125  C3  IDS d 504      28.851  28.679 106.581  0.00  0.00     0.094 C 
ATOM    126  H   IDS d 504      28.279  30.414 105.842  0.00  0.00     0.210 HD
ATOM    127  H   IDS d 504      27.866  27.004 109.467  0.00  0.00     0.133 H 
ATOM    128  H   IDS d 504      28.753  30.351 108.613  0.00  0.00     0.104 H 
ATOM    129  H   IDS d 504      30.326  30.215 106.803  0.00  0.00     0.092 H 
ATOM    130  H   IDS d 504      27.250  27.318 106.989  0.00  0.00     0.097 H 
ATOM    131  H   IDS d 504      29.195  28.253 105.662  0.00  0.00     0.091 H 
ENDROOT
TORSDOF 40
ENDMDL
MODEL 61
REMARK VINA RESULT:      -8.8      4.355     11.654
REMARK  0 active torsions:
REMARK  status: ('A' for Active; 'I' for Inactive)
REMARK       I    between atoms: C6_1  and  C5_82 
REMARK       I    between atoms: O2_4  and  C2_65 
REMARK       I    between atoms: O2_4  and  S_6 
REMARK       I    between atoms: S2_5  and  O6_13 
REMARK       I    between atoms: C6_7  and  C5_66 
REMARK       I    between atoms: C6_7  and  O6_11 
REMARK       I    between atoms: S_8  and  O2_37 
REMARK       I    between atoms: O6_11  and  S2_34 
REMARK       I    between atoms: O6_13  and  C6_16 
REMARK       I    between atoms: C6_16  and  C5_76 
REMARK       I    between atoms: O2S_17  and  S1_21 
REMARK       I    between atoms: O4_18  and  C4_33 
REMARK       I    between atoms: C4_19  and  O4_25 
REMARK       I    between atoms: O3_20  and  C3_57 
REMARK       I    between atoms: S1_21  and  N_56 
REMARK       I    between atoms: S1_21  and  O1S_55 
REMARK       I    between atoms: S1_21  and  O3S_68 
REMARK       I    between atoms: O3_24  and  C3_80 
REMARK       I    between atoms: O4_25  and  C1_53 
REMARK       I    between atoms: S1_26  and  N_59 
REMARK       I    between atoms: S1_26  and  O1S_42 
REMARK       I    between atoms: S1_26  and  O2S_29 
REMARK       I    between atoms: S1_26  and  O3S_87 
REMARK       I    between atoms: S_30  and  O2_54 
REMARK       I    between atoms: C3_31  and  O3_61 
REMARK       I    between atoms: O4_36  and  C4_70 
REMARK       I    between atoms: O4_36  and  C1_52 
REMARK       I    between atoms: O2_37  and  C2_45 
REMARK       I    between atoms: C4_38  and  O4_71 
REMARK       I    between atoms: C1_39  and  O1_51 
REMARK       I    between atoms: C1_40  and  O4_71 
REMARK       I    between atoms: C6_46  and  C5_84 
REMARK       I    between atoms: C6_47  and  C5_64 
REMARK       I    between atoms: C1_48  and  O4_77 
REMARK       I    between atoms: O3_50  and  C3_86 
REMARK       I    between atoms: O2_54  and  C2_79 
REMARK       I    between atoms: N_56  and  C2_67 
REMARK       I    between atoms: C2_58  and  N_59 
REMARK       I    between atoms: C3_62  and  O3_81 
REMARK       I    between atoms: C4_69  and  O4_77 
ROOT
ATOM      1  C6  IDS d 506      37.404  23.481 110.866  0.00  0.00     0.206 C 
ATOM      2  O62 IDS d 506      37.749  22.455 111.427  0.00  0.00    -0.646 OA
ATOM      3  S   IDS d 506      37.150  29.086 113.673  0.00  0.00     0.252 S 
ATOM      4  O1S IDS d 506      37.123  28.376 114.915  0.00  0.00    -0.572 OA
ATOM      5  O3S IDS d 506      36.115  30.092 113.568  0.00  0.00    -0.572 OA
ATOM      6  O4  IDS d 506      38.265  25.316 113.079  0.00  0.00    -0.390 OA
ATOM      7  O3  IDS d 506      34.809  25.398 114.013  0.00  0.00    -0.390 OA
ATOM      8  C4  IDS d 506      36.936  24.855 113.016  0.00  0.00     0.097 C 
ATOM      9  O2  IDS d 506      36.799  27.999 112.568  0.00  0.00    -0.244 OA
ATOM     10  C2  IDS d 506      35.713  27.093 112.544  0.00  0.00     0.134 C 
ATOM     11  C1  IDS d 506      35.501  26.561 111.119  0.00  0.00     0.161 C 
ATOM     12  O2S IDS d 506      38.464  29.594 113.398  0.00  0.00    -0.572 OA
ATOM     13  O5  IDS d 506      36.566  25.701 110.805  0.00  0.00    -0.340 OA
ATOM     14  O61 IDS d 506      37.741  23.639 109.701  0.00  0.00    -0.646 OA
ATOM     15  C3  IDS d 506      36.035  25.977 113.576  0.00  0.00     0.094 C 
ATOM     16  C5  IDS d 506      36.567  24.536 111.564  0.00  0.00     0.152 C 
ATOM     17  H   IDS d 506      38.495  25.516 114.000  0.00  0.00     0.210 HD
ATOM     18  H   IDS d 506      34.994  24.698 114.659  0.00  0.00     0.210 HD
ATOM     19  H   IDS d 506      36.809  23.960 113.589  0.00  0.00     0.091 H 
ATOM     20  H   IDS d 506      34.790  27.562 112.816  0.00  0.00     0.097 H 
ATOM     21  H   IDS d 506      34.564  26.049 111.053  0.00  0.00     0.133 H 
ATOM     22  H   IDS d 506      36.575  26.438 114.377  0.00  0.00     0.091 H 
ATOM     23  H   IDS d 506      35.590  24.105 111.635  0.00  0.00     0.104 H 
ATOM     24  O62 IDS d 502      21.456  26.576 110.348  0.00  0.00    -0.646 OA
ATOM     25  O2  IDS d 502      22.752  30.855 106.894  0.00  0.00    -0.244 OA
ATOM     26  S   IDS d 502      23.554  32.197 106.949  0.00  0.00     0.252 S 
ATOM     27  O3  IDS d 502      19.770  30.739 108.881  0.00  0.00    -0.390 OA
ATOM     28  O2S IDS d 502      24.900  31.836 107.330  0.00  0.00    -0.572 OA
ATOM     29  C4  IDS d 502      21.761  29.460 109.317  0.00  0.00     0.103 C 
ATOM     30  C1  IDS d 502      20.985  29.316 106.530  0.00  0.00     0.158 C 
ATOM     31  O61 IDS d 502      22.512  26.163 108.612  0.00  0.00    -0.646 OA
ATOM     32  C6  IDS d 502      21.777  26.902 109.222  0.00  0.00     0.206 C 
ATOM     33  O1  IDS d 502      19.585  29.239 106.530  0.00  0.00    -0.368 OA
ATOM     34  C3  IDS d 502      21.163  30.708 108.639  0.00  0.00     0.094 C 
ATOM     35  O3S IDS d 502      23.453  32.740 105.619  0.00  0.00    -0.572 OA
ATOM     36  O5  IDS d 502      21.585  28.254 107.229  0.00  0.00    -0.340 OA
ATOM     37  C2  IDS d 502      21.381  30.664 107.123  0.00  0.00     0.134 C 
ATOM     38  O4  IDS d 502      23.163  29.518 109.258  0.00  0.00    -0.348 OA
ATOM     39  O1S IDS d 502      22.916  33.035 107.925  0.00  0.00    -0.572 OA
ATOM     40  C5  IDS d 502      21.273  28.200 108.607  0.00  0.00     0.152 C 
ATOM     41  H   IDS d 502      19.608  30.767 109.836  0.00  0.00     0.210 HD
ATOM     42  H   IDS d 502      21.447  29.433 110.340  0.00  0.00     0.092 H 
ATOM     43  H   IDS d 502      21.340  29.232 105.524  0.00  0.00     0.133 H 
ATOM     44  H   IDS d 502      19.257  29.313 107.441  0.00  0.00     0.212 HD
ATOM     45  H   IDS d 502      21.647  31.574 109.040  0.00  0.00     0.091 H 
ATOM     46  H   IDS d 502      20.778  31.419 106.665  0.00  0.00     0.097 H 
ATOM     47  H   IDS d 502      20.211  28.186 108.734  0.00  0.00     0.104 H 
ATOM     48  S2  SGN d 505      36.644  31.382 108.212  0.00  0.00     0.251 S 
ATOM     49  O6  SGN d 505      35.776  30.141 108.364  0.00  0.00    -0.254 OA
ATOM     50  O5S SGN d 505      36.470  31.780 106.838  0.00  0.00    -0.572 OA
ATOM     51  C6  SGN d 505      34.643  30.000 109.151  0.00  0.00     0.067 C 
ATOM     52  O2S SGN d 505      34.506  24.701 104.570  0.00  0.00    -0.296 OA
ATOM     53  S1  SGN d 505      33.145  25.100 104.843  0.00  0.00     0.156 S 
ATOM     54  O6S SGN d 505      36.133  32.374 109.149  0.00  0.00    -0.572 OA
ATOM     55  O4  SGN d 505      35.531  27.627 110.233  0.00  0.00    -0.348 OA
ATOM     56  O5  SGN d 505      33.647  28.794 107.448  0.00  0.00    -0.349 OA
ATOM     57  O4S SGN d 505      37.979  30.939 108.543  0.00  0.00    -0.572 OA
ATOM     58  C1  SGN d 505      32.933  27.685 106.980  0.00  0.00     0.150 C 
ATOM     59  O1S SGN d 505      32.813  26.375 104.242  0.00  0.00    -0.296 OA
ATOM     60  N   SGN d 505      33.076  25.291 106.506  0.00  0.00    -0.210 NA
ATOM     61  C3  SGN d 505      34.285  26.249 108.542  0.00  0.00     0.083 C 
ATOM     62  C2  SGN d 505      33.797  26.444 107.093  0.00  0.00     0.081 C 
ATOM     63  O3S SGN d 505      32.227  24.072 104.505  0.00  0.00    -0.296 OA
ATOM     64  C4  SGN d 505      35.047  27.556 108.908  0.00  0.00     0.095 C 
ATOM     65  C5  SGN d 505      34.066  28.675 108.772  0.00  0.00     0.091 C 
ATOM     66  O3  SGN d 505      35.165  25.133 108.574  0.00  0.00    -0.391 OA
ATOM     67  H   SGN d 505      33.945  30.785 108.947  0.00  0.00     0.080 H 
ATOM     68  H   SGN d 505      34.871  30.054 110.194  0.00  0.00     0.080 H 
ATOM     69  H   SGN d 505      35.109  25.422 104.810  0.00  0.00     0.231 HD
ATOM     70  H   SGN d 505      32.681  27.828 105.950  0.00  0.00     0.131 H 
ATOM     71  H   SGN d 505      33.471  27.038 104.505  0.00  0.00     0.231 HD
ATOM     72  H   SGN d 505      33.460  24.444 106.927  0.00  0.00     0.140 HD
ATOM     73  H   SGN d 505      33.486  26.066 109.230  0.00  0.00     0.089 H 
ATOM     74  H   SGN d 505      34.696  26.550 106.523  0.00  0.00     0.076 H 
ATOM     75  H   SGN d 505      32.497  23.244 104.933  0.00  0.00     0.231 HD
ATOM     76  H   SGN d 505      35.898  27.598 108.260  0.00  0.00     0.091 H 
ATOM     77  H   SGN d 505      33.259  28.430 109.432  0.00  0.00     0.090 H 
ATOM     78  H   SGN d 505      35.897  25.280 107.956  0.00  0.00     0.210 HD
ATOM     79  C6  SGN d 503      25.411  26.083 109.287  0.00  0.00     0.067 C 
ATOM     80  O6  SGN d 503      25.945  25.714 110.540  0.00  0.00    -0.254 OA
ATOM     81  C4  SGN d 503      26.461  28.401 109.558  0.00  0.00     0.095 C 
ATOM     82  O5  SGN d 503      24.255  27.771 110.326  0.00  0.00    -0.349 OA
ATOM     83  O4  SGN d 503      27.311  28.249 108.468  0.00  0.00    -0.348 OA
ATOM     84  S1  SGN d 503      24.056  31.878 112.337  0.00  0.00     0.156 S 
ATOM     85  O4S SGN d 503      25.656  23.337 110.242  0.00  0.00    -0.572 OA
ATOM     86  O2S SGN d 503      25.071  31.519 113.327  0.00  0.00    -0.296 OA
ATOM     87  C3  SGN d 503      26.107  29.879 109.694  0.00  0.00     0.083 C 
ATOM     88  S2  SGN d 503      25.735  24.346 111.243  0.00  0.00     0.251 S 
ATOM     89  O5S SGN d 503      26.875  24.144 112.133  0.00  0.00    -0.572 OA
ATOM     90  C1  SGN d 503      23.817  29.104 110.426  0.00  0.00     0.150 C 
ATOM     91  O1S SGN d 503      22.802  31.185 112.568  0.00  0.00    -0.296 OA
ATOM     92  O6S SGN d 503      24.489  24.488 111.889  0.00  0.00    -0.572 OA
ATOM     93  C2  SGN d 503      25.013  30.015 110.738  0.00  0.00     0.081 C 
ATOM     94  N   SGN d 503      24.579  31.394 110.874  0.00  0.00    -0.210 NA
ATOM     95  O3  SGN d 503      27.265  30.573 110.117  0.00  0.00    -0.391 OA
ATOM     96  C5  SGN d 503      25.189  27.571 109.310  0.00  0.00     0.091 C 
ATOM     97  O3S SGN d 503      23.879  33.303 112.171  0.00  0.00    -0.296 OA
ATOM     98  H   SGN d 503      26.098  25.828 108.508  0.00  0.00     0.080 H 
ATOM     99  H   SGN d 503      24.491  25.568 109.104  0.00  0.00     0.080 H 
ATOM    100  H   SGN d 503      26.931  28.064 110.458  0.00  0.00     0.091 H 
ATOM    101  H   SGN d 503      25.137  30.553 113.386  0.00  0.00     0.231 HD
ATOM    102  H   SGN d 503      25.764  30.283 108.764  0.00  0.00     0.089 H 
ATOM    103  H   SGN d 503      23.108  29.170 111.224  0.00  0.00     0.131 H 
ATOM    104  H   SGN d 503      22.972  30.236 112.673  0.00  0.00     0.231 HD
ATOM    105  H   SGN d 503      25.432  29.702 111.671  0.00  0.00     0.076 H 
ATOM    106  H   SGN d 503      25.368  31.988 110.621  0.00  0.00     0.140 HD
ATOM    107  H   SGN d 503      27.573  30.205 110.960  0.00  0.00     0.210 HD
ATOM    108  H   SGN d 503      24.855  27.907 108.351  0.00  0.00     0.090 H 
ATOM    109  H   SGN d 503      23.194  33.468 111.504  0.00  0.00     0.231 HD
ATOM    110  O61 IDS d 504      31.546  29.500 110.417  0.00  0.00    -0.646 OA
ATOM    111  O62 IDS d 504      31.248  31.122 109.108  0.00  0.00    -0.646 OA
ATOM    112  O3S IDS d 504      27.791  24.116 107.268  0.00  0.00    -0.572 OA
ATOM    113  S   IDS d 504      29.203  24.160 107.196  0.00  0.00     0.252 S 
ATOM    114  C6  IDS d 504      31.008  29.953 109.415  0.00  0.00     0.206 C 
ATOM    115  O3  IDS d 504      28.814  28.760 105.947  0.00  0.00    -0.390 OA
ATOM    116  C1  IDS d 504      28.394  27.397 108.705  0.00  0.00     0.161 C 
ATOM    117  O2  IDS d 504      29.546  25.586 107.664  0.00  0.00    -0.244 OA
ATOM    118  C5  IDS d 504      30.079  29.080 108.554  0.00  0.00     0.152 C 
ATOM    119  C4  IDS d 504      30.728  28.473 107.311  0.00  0.00     0.103 C 
ATOM    120  O5  IDS d 504      29.491  28.066 109.336  0.00  0.00    -0.340 OA
ATOM    121  O4  IDS d 504      31.732  27.543 107.689  0.00  0.00    -0.348 OA
ATOM    122  C2  IDS d 504      28.808  26.774 107.386  0.00  0.00     0.134 C 
ATOM    123  O1S IDS d 504      29.669  24.053 105.862  0.00  0.00    -0.572 OA
ATOM    124  O2S IDS d 504      29.880  23.244 108.067  0.00  0.00    -0.572 OA
ATOM    125  C3  IDS d 504      29.661  27.758 106.497  0.00  0.00     0.094 C 
ATOM    126  H   IDS d 504      29.340  29.364 105.401  0.00  0.00     0.210 HD
ATOM    127  H   IDS d 504      28.090  26.633 109.390  0.00  0.00     0.133 H 
ATOM    128  H   IDS d 504      29.332  29.752 108.186  0.00  0.00     0.104 H 
ATOM    129  H   IDS d 504      31.176  29.251 106.729  0.00  0.00     0.092 H 
ATOM    130  H   IDS d 504      27.926  26.548 106.824  0.00  0.00     0.097 H 
ATOM    131  H   IDS d 504      30.126  27.170 105.734  0.00  0.00     0.091 H 
ENDROOT
TORSDOF 40
ENDMDL
MODEL 62
REMARK VINA RESULT:      -8.7      4.684     12.042
REMARK  0 active torsions:
REMARK  status: ('A' for Active; 'I' for Inactive)
REMARK       I    between atoms: C6_1  and  C5_82 
REMARK       I    between atoms: O2_4  and  C2_65 
REMARK       I    between atoms: O2_4  and  S_6 
REMARK       I    between atoms: S2_5  and  O6_13 
REMARK       I    between atoms: C6_7  and  C5_66 
REMARK       I    between atoms: C6_7  and  O6_11 
REMARK       I    between atoms: S_8  and  O2_37 
REMARK       I    between atoms: O6_11  and  S2_34 
REMARK       I    between atoms: O6_13  and  C6_16 
REMARK       I    between atoms: C6_16  and  C5_76 
REMARK       I    between atoms: O2S_17  and  S1_21 
REMARK       I    between atoms: O4_18  and  C4_33 
REMARK       I    between atoms: C4_19  and  O4_25 
REMARK       I    between atoms: O3_20  and  C3_57 
REMARK       I    between atoms: S1_21  and  N_56 
REMARK       I    between atoms: S1_21  and  O1S_55 
REMARK       I    between atoms: S1_21  and  O3S_68 
REMARK       I    between atoms: O3_24  and  C3_80 
REMARK       I    between atoms: O4_25  and  C1_53 
REMARK       I    between atoms: S1_26  and  N_59 
REMARK       I    between atoms: S1_26  and  O1S_42 
REMARK       I    between atoms: S1_26  and  O2S_29 
REMARK       I    between atoms: S1_26  and  O3S_87 
REMARK       I    between atoms: S_30  and  O2_54 
REMARK       I    between atoms: C3_31  and  O3_61 
REMARK       I    between atoms: O4_36  and  C4_70 
REMARK       I    between atoms: O4_36  and  C1_52 
REMARK       I    between atoms: O2_37  and  C2_45 
REMARK       I    between atoms: C4_38  and  O4_71 
REMARK       I    between atoms: C1_39  and  O1_51 
REMARK       I    between atoms: C1_40  and  O4_71 
REMARK       I    between atoms: C6_46  and  C5_84 
REMARK       I    between atoms: C6_47  and  C5_64 
REMARK       I    between atoms: C1_48  and  O4_77 
REMARK       I    between atoms: O3_50  and  C3_86 
REMARK       I    between atoms: O2_54  and  C2_79 
REMARK       I    between atoms: N_56  and  C2_67 
REMARK       I    between atoms: C2_58  and  N_59 
REMARK       I    between atoms: C3_62  and  O3_81 
REMARK       I    between atoms: C4_69  and  O4_77 
ROOT
ATOM      1  C6  IDS d 506      33.007  29.830 105.784  0.00  0.00     0.206 C 
ATOM      2  O62 IDS d 506      33.578  30.224 104.781  0.00  0.00    -0.646 OA
ATOM      3  S   IDS d 506      31.257  23.877 106.704  0.00  0.00     0.252 S 
ATOM      4  O1S IDS d 506      31.365  23.707 105.288  0.00  0.00    -0.572 OA
ATOM      5  O3S IDS d 506      30.007  23.385 107.244  0.00  0.00    -0.572 OA
ATOM      6  O4  IDS d 506      33.302  26.912 105.151  0.00  0.00    -0.390 OA
ATOM      7  O3  IDS d 506      29.905  27.071 104.028  0.00  0.00    -0.390 OA
ATOM      8  C4  IDS d 506      32.134  27.604 104.777  0.00  0.00     0.097 C 
ATOM      9  O2  IDS d 506      31.229  25.449 106.931  0.00  0.00    -0.244 OA
ATOM     10  C2  IDS d 506      30.406  26.411 106.300  0.00  0.00     0.134 C 
ATOM     11  C1  IDS d 506      30.384  27.708 107.122  0.00  0.00     0.161 C 
ATOM     12  O2S IDS d 506      32.411  23.349 107.377  0.00  0.00    -0.572 OA
ATOM     13  O5  IDS d 506      31.641  28.325 107.009  0.00  0.00    -0.340 OA
ATOM     14  O61 IDS d 506      33.334  30.315 106.858  0.00  0.00    -0.646 OA
ATOM     15  C3  IDS d 506      30.962  26.603 104.862  0.00  0.00     0.094 C 
ATOM     16  C5  IDS d 506      31.907  28.786 105.726  0.00  0.00     0.152 C 
ATOM     17  H   IDS d 506      33.442  26.164 104.548  0.00  0.00     0.210 HD
ATOM     18  H   IDS d 506      30.237  27.197 103.125  0.00  0.00     0.210 HD
ATOM     19  H   IDS d 506      32.216  27.994 103.784  0.00  0.00     0.091 H 
ATOM     20  H   IDS d 506      29.386  26.092 106.239  0.00  0.00     0.097 H 
ATOM     21  H   IDS d 506      29.609  28.354 106.769  0.00  0.00     0.133 H 
ATOM     22  H   IDS d 506      31.340  25.654 104.544  0.00  0.00     0.091 H 
ATOM     23  H   IDS d 506      31.068  29.298 105.303  0.00  0.00     0.104 H 
ATOM     24  O62 IDS d 502      16.820  31.281 106.072  0.00  0.00    -0.646 OA
ATOM     25  O2  IDS d 502      17.121  29.685 111.483  0.00  0.00    -0.244 OA
ATOM     26  S   IDS d 502      17.559  28.429 112.306  0.00  0.00     0.252 S 
ATOM     27  O3  IDS d 502      14.197  29.276 109.452  0.00  0.00    -0.390 OA
ATOM     28  O2S IDS d 502      18.938  28.186 111.952  0.00  0.00    -0.572 OA
ATOM     29  C4  IDS d 502      16.428  29.571 108.601  0.00  0.00     0.103 C 
ATOM     30  C1  IDS d 502      15.811  31.491 110.681  0.00  0.00     0.158 C 
ATOM     31  O61 IDS d 502      18.006  32.385 107.366  0.00  0.00    -0.646 OA
ATOM     32  C6  IDS d 502      17.089  31.616 107.209  0.00  0.00     0.206 C 
ATOM     33  O1  IDS d 502      14.476  31.864 110.469  0.00  0.00    -0.368 OA
ATOM     34  C3  IDS d 502      15.561  29.131 109.796  0.00  0.00     0.094 C 
ATOM     35  O3S IDS d 502      17.372  28.808 113.683  0.00  0.00    -0.572 OA
ATOM     36  O5  IDS d 502      16.634  31.775 109.577  0.00  0.00    -0.340 OA
ATOM     37  C2  IDS d 502      15.835  30.005 111.024  0.00  0.00     0.134 C 
ATOM     38  O4  IDS d 502      17.772  29.249 108.850  0.00  0.00    -0.348 OA
ATOM     39  O1S IDS d 502      16.698  27.346 111.922  0.00  0.00    -0.572 OA
ATOM     40  C5  IDS d 502      16.297  31.079 108.393  0.00  0.00     0.152 C 
ATOM     41  H   IDS d 502      14.000  28.730 108.675  0.00  0.00     0.210 HD
ATOM     42  H   IDS d 502      16.095  29.063 107.720  0.00  0.00     0.092 H 
ATOM     43  H   IDS d 502      16.210  32.067 111.490  0.00  0.00     0.133 H 
ATOM     44  H   IDS d 502      14.108  31.345 109.736  0.00  0.00     0.212 HD
ATOM     45  H   IDS d 502      15.797  28.114 110.028  0.00  0.00     0.091 H 
ATOM     46  H   IDS d 502      15.078  29.820 111.757  0.00  0.00     0.097 H 
ATOM     47  H   IDS d 502      15.269  31.251 108.155  0.00  0.00     0.104 H 
ATOM     48  S2  SGN d 505      30.383  25.403 112.383  0.00  0.00     0.251 S 
ATOM     49  O6  SGN d 505      29.849  26.474 111.443  0.00  0.00    -0.254 OA
ATOM     50  O5S SGN d 505      30.162  25.938 113.704  0.00  0.00    -0.572 OA
ATOM     51  C6  SGN d 505      28.760  26.375 110.590  0.00  0.00     0.067 C 
ATOM     52  O2S SGN d 505      30.117  33.218 111.233  0.00  0.00    -0.296 OA
ATOM     53  S1  SGN d 505      28.691  33.051 111.080  0.00  0.00     0.156 S 
ATOM     54  O6S SGN d 505      29.607  24.196 112.134  0.00  0.00    -0.572 OA
ATOM     55  O4  SGN d 505      30.177  27.390 108.456  0.00  0.00    -0.348 OA
ATOM     56  O5  SGN d 505      28.159  28.535 111.155  0.00  0.00    -0.349 OA
ATOM     57  O4S SGN d 505      31.774  25.256 112.021  0.00  0.00    -0.572 OA
ATOM     58  C1  SGN d 505      27.762  29.832 110.810  0.00  0.00     0.150 C 
ATOM     59  O1S SGN d 505      28.071  32.484 112.259  0.00  0.00    -0.296 OA
ATOM     60  N   SGN d 505      28.518  31.943 109.835  0.00  0.00    -0.210 NA
ATOM     61  C3  SGN d 505      29.377  29.733 108.883  0.00  0.00     0.083 C 
ATOM     62  C2  SGN d 505      28.906  30.539 110.109  0.00  0.00     0.081 C 
ATOM     63  O3S SGN d 505      28.072  34.254 110.652  0.00  0.00    -0.296 OA
ATOM     64  C4  SGN d 505      29.773  28.331 109.429  0.00  0.00     0.095 C 
ATOM     65  C5  SGN d 505      28.548  27.758 110.065  0.00  0.00     0.091 C 
ATOM     66  O3  SGN d 505      30.506  30.387 108.320  0.00  0.00    -0.391 OA
ATOM     67  H   SGN d 505      27.896  26.039 111.123  0.00  0.00     0.080 H 
ATOM     68  H   SGN d 505      28.932  25.671 109.803  0.00  0.00     0.080 H 
ATOM     69  H   SGN d 505      30.511  32.381 111.526  0.00  0.00     0.231 HD
ATOM     70  H   SGN d 505      27.519  30.381 111.697  0.00  0.00     0.131 H 
ATOM     71  H   SGN d 505      28.532  31.667 112.506  0.00  0.00     0.231 HD
ATOM     72  H   SGN d 505      29.088  32.270 109.053  0.00  0.00     0.140 HD
ATOM     73  H   SGN d 505      28.625  29.650 108.125  0.00  0.00     0.089 H 
ATOM     74  H   SGN d 505      29.769  30.590 110.739  0.00  0.00     0.076 H 
ATOM     75  H   SGN d 505      28.526  34.588 109.862  0.00  0.00     0.231 HD
ATOM     76  H   SGN d 505      30.608  28.488 110.079  0.00  0.00     0.091 H 
ATOM     77  H   SGN d 505      27.806  27.742 109.294  0.00  0.00     0.090 H 
ATOM     78  H   SGN d 505      31.199  30.472 108.993  0.00  0.00     0.210 HD
ATOM     79  C6  SGN d 503      20.807  31.405 107.121  0.00  0.00     0.067 C 
ATOM     80  O6  SGN d 503      21.372  30.839 105.959  0.00  0.00    -0.254 OA
ATOM     81  C4  SGN d 503      21.232  29.207 108.360  0.00  0.00     0.095 C 
ATOM     82  O5  SGN d 503      19.229  29.739 107.113  0.00  0.00    -0.349 OA
ATOM     83  O4  SGN d 503      22.131  29.775 109.257  0.00  0.00    -0.348 OA
ATOM     84  S1  SGN d 503      17.936  25.406 107.822  0.00  0.00     0.156 S 
ATOM     85  O4S SGN d 503      21.699  32.929 104.798  0.00  0.00    -0.572 OA
ATOM     86  O2S SGN d 503      18.974  24.879 106.937  0.00  0.00    -0.296 OA
ATOM     87  C3  SGN d 503      20.514  28.055 109.058  0.00  0.00     0.083 C 
ATOM     88  S2  SGN d 503      21.488  31.539 104.579  0.00  0.00     0.251 S 
ATOM     89  O5S SGN d 503      22.610  30.920 103.879  0.00  0.00    -0.572 OA
ATOM     90  C1  SGN d 503      18.468  28.740 107.745  0.00  0.00     0.150 C 
ATOM     91  O1S SGN d 503      16.889  26.090 107.087  0.00  0.00    -0.296 OA
ATOM     92  O6S SGN d 503      20.224  31.327 103.988  0.00  0.00    -0.572 OA
ATOM     93  C2  SGN d 503      19.386  27.581 108.160  0.00  0.00     0.081 C 
ATOM     94  N   SGN d 503      18.615  26.524 108.791  0.00  0.00    -0.210 NA
ATOM     95  O3  SGN d 503      21.446  27.008 109.253  0.00  0.00    -0.391 OA
ATOM     96  C5  SGN d 503      20.218  30.282 107.932  0.00  0.00     0.091 C 
ATOM     97  O3S SGN d 503      17.413  24.433 108.755  0.00  0.00    -0.296 OA
ATOM     98  H   SGN d 503      21.563  31.907 107.688  0.00  0.00     0.080 H 
ATOM     99  H   SGN d 503      20.052  32.119 106.863  0.00  0.00     0.080 H 
ATOM    100  H   SGN d 503      21.740  28.837 107.495  0.00  0.00     0.091 H 
ATOM    101  H   SGN d 503      19.277  25.582 106.341  0.00  0.00     0.231 HD
ATOM    102  H   SGN d 503      20.114  28.362 110.002  0.00  0.00     0.089 H 
ATOM    103  H   SGN d 503      17.737  28.379 107.053  0.00  0.00     0.131 H 
ATOM    104  H   SGN d 503      17.288  26.730 106.477  0.00  0.00     0.231 HD
ATOM    105  H   SGN d 503      19.836  27.184 107.275  0.00  0.00     0.076 H 
ATOM    106  H   SGN d 503      19.238  26.034 109.432  0.00  0.00     0.140 HD
ATOM    107  H   SGN d 503      21.806  26.732 108.396  0.00  0.00     0.210 HD
ATOM    108  H   SGN d 503      19.844  30.657 108.861  0.00  0.00     0.090 H 
ATOM    109  H   SGN d 503      16.733  24.849 109.307  0.00  0.00     0.231 HD
ATOM    110  O61 IDS d 504      25.845  26.713 108.906  0.00  0.00    -0.646 OA
ATOM    111  O62 IDS d 504      25.197  26.283 110.862  0.00  0.00    -0.646 OA
ATOM    112  O3S IDS d 504      23.673  33.590 107.909  0.00  0.00    -0.572 OA
ATOM    113  S   IDS d 504      25.031  33.283 108.162  0.00  0.00     0.252 S 
ATOM    114  C6  IDS d 504      25.247  27.068 109.913  0.00  0.00     0.206 C 
ATOM    115  O3  IDS d 504      23.544  30.519 111.771  0.00  0.00    -0.390 OA
ATOM    116  C1  IDS d 504      23.384  30.058 108.705  0.00  0.00     0.161 C 
ATOM    117  O2  IDS d 504      24.989  31.821 108.645  0.00  0.00    -0.244 OA
ATOM    118  C5  IDS d 504      24.597  28.460 109.997  0.00  0.00     0.152 C 
ATOM    119  C4  IDS d 504      25.420  29.516 110.731  0.00  0.00     0.103 C 
ATOM    120  O5  IDS d 504      24.255  28.922 108.710  0.00  0.00    -0.340 OA
ATOM    121  O4  IDS d 504      26.612  29.795 110.011  0.00  0.00    -0.348 OA
ATOM    122  C2  IDS d 504      23.986  31.223 109.464  0.00  0.00     0.134 C 
ATOM    123  O1S IDS d 504      25.555  34.044 109.236  0.00  0.00    -0.572 OA
ATOM    124  O2S IDS d 504      25.885  33.335 107.011  0.00  0.00    -0.572 OA
ATOM    125  C3  IDS d 504      24.596  30.788 110.852  0.00  0.00     0.094 C 
ATOM    126  H   IDS d 504      23.922  30.252 112.624  0.00  0.00     0.210 HD
ATOM    127  H   IDS d 504      23.258  30.318 107.675  0.00  0.00     0.133 H 
ATOM    128  H   IDS d 504      23.719  28.319 110.592  0.00  0.00     0.104 H 
ATOM    129  H   IDS d 504      25.680  29.151 111.704  0.00  0.00     0.092 H 
ATOM    130  H   IDS d 504      23.209  31.926 109.683  0.00  0.00     0.097 H 
ATOM    131  H   IDS d 504      25.220  31.590 111.187  0.00  0.00     0.091 H 
ENDROOT
TORSDOF 40
ENDMDL
MODEL 63
REMARK VINA RESULT:      -8.7      5.195     10.472
REMARK  0 active torsions:
REMARK  status: ('A' for Active; 'I' for Inactive)
REMARK       I    between atoms: C6_1  and  C5_82 
REMARK       I    between atoms: O2_4  and  C2_65 
REMARK       I    between atoms: O2_4  and  S_6 
REMARK       I    between atoms: S2_5  and  O6_13 
REMARK       I    between atoms: C6_7  and  C5_66 
REMARK       I    between atoms: C6_7  and  O6_11 
REMARK       I    between atoms: S_8  and  O2_37 
REMARK       I    between atoms: O6_11  and  S2_34 
REMARK       I    between atoms: O6_13  and  C6_16 
REMARK       I    between atoms: C6_16  and  C5_76 
REMARK       I    between atoms: O2S_17  and  S1_21 
REMARK       I    between atoms: O4_18  and  C4_33 
REMARK       I    between atoms: C4_19  and  O4_25 
REMARK       I    between atoms: O3_20  and  C3_57 
REMARK       I    between atoms: S1_21  and  N_56 
REMARK       I    between atoms: S1_21  and  O1S_55 
REMARK       I    between atoms: S1_21  and  O3S_68 
REMARK       I    between atoms: O3_24  and  C3_80 
REMARK       I    between atoms: O4_25  and  C1_53 
REMARK       I    between atoms: S1_26  and  N_59 
REMARK       I    between atoms: S1_26  and  O1S_42 
REMARK       I    between atoms: S1_26  and  O2S_29 
REMARK       I    between atoms: S1_26  and  O3S_87 
REMARK       I    between atoms: S_30  and  O2_54 
REMARK       I    between atoms: C3_31  and  O3_61 
REMARK       I    between atoms: O4_36  and  C4_70 
REMARK       I    between atoms: O4_36  and  C1_52 
REMARK       I    between atoms: O2_37  and  C2_45 
REMARK       I    between atoms: C4_38  and  O4_71 
REMARK       I    between atoms: C1_39  and  O1_51 
REMARK       I    between atoms: C1_40  and  O4_71 
REMARK       I    between atoms: C6_46  and  C5_84 
REMARK       I    between atoms: C6_47  and  C5_64 
REMARK       I    between atoms: C1_48  and  O4_77 
REMARK       I    between atoms: O3_50  and  C3_86 
REMARK       I    between atoms: O2_54  and  C2_79 
REMARK       I    between atoms: N_56  and  C2_67 
REMARK       I    between atoms: C2_58  and  N_59 
REMARK       I    between atoms: C3_62  and  O3_81 
REMARK       I    between atoms: C4_69  and  O4_77 
ROOT
ATOM      1  C6  IDS d 506      15.257  31.256 110.606  0.00  0.00     0.206 C 
ATOM      2  O62 IDS d 506      14.296  31.082 111.336  0.00  0.00    -0.646 OA
ATOM      3  S   IDS d 506      15.557  29.227 104.677  0.00  0.00     0.252 S 
ATOM      4  O1S IDS d 506      14.506  28.317 105.017  0.00  0.00    -0.572 OA
ATOM      5  O3S IDS d 506      16.668  28.589 104.005  0.00  0.00    -0.572 OA
ATOM      6  O4  IDS d 506      13.875  30.351 108.100  0.00  0.00    -0.390 OA
ATOM      7  O3  IDS d 506      15.586  27.241 108.583  0.00  0.00    -0.390 OA
ATOM      8  C4  IDS d 506      14.637  29.441 108.858  0.00  0.00     0.097 C 
ATOM      9  O2  IDS d 506      16.133  29.731 106.069  0.00  0.00    -0.244 OA
ATOM     10  C2  IDS d 506      16.551  28.957 107.176  0.00  0.00     0.134 C 
ATOM     11  C1  IDS d 506      17.443  29.797 108.102  0.00  0.00     0.161 C 
ATOM     12  O2S IDS d 506      15.044  30.365 103.968  0.00  0.00    -0.572 OA
ATOM     13  O5  IDS d 506      16.638  30.754 108.742  0.00  0.00    -0.340 OA
ATOM     14  O61 IDS d 506      15.856  32.319 110.689  0.00  0.00    -0.646 OA
ATOM     15  C3  IDS d 506      15.263  28.433 107.871  0.00  0.00     0.094 C 
ATOM     16  C5  IDS d 506      15.727  30.194 109.629  0.00  0.00     0.152 C 
ATOM     17  H   IDS d 506      13.186  29.870 107.614  0.00  0.00     0.210 HD
ATOM     18  H   IDS d 506      14.791  26.902 109.022  0.00  0.00     0.210 HD
ATOM     19  H   IDS d 506      14.028  28.928 109.573  0.00  0.00     0.091 H 
ATOM     20  H   IDS d 506      17.150  28.120 106.881  0.00  0.00     0.097 H 
ATOM     21  H   IDS d 506      17.928  29.167 108.818  0.00  0.00     0.133 H 
ATOM     22  H   IDS d 506      14.540  28.263 107.100  0.00  0.00     0.091 H 
ATOM     23  H   IDS d 506      16.177  29.441 110.241  0.00  0.00     0.104 H 
ATOM     24  O62 IDS d 502      27.289  20.370 111.573  0.00  0.00    -0.646 OA
ATOM     25  O2  IDS d 502      30.214  23.819 108.187  0.00  0.00    -0.244 OA
ATOM     26  S   IDS d 502      30.118  24.381 106.730  0.00  0.00     0.252 S 
ATOM     27  O3  IDS d 502      30.845  20.302 108.464  0.00  0.00    -0.390 OA
ATOM     28  O2S IDS d 502      28.845  25.060 106.652  0.00  0.00    -0.572 OA
ATOM     29  C4  IDS d 502      28.783  21.378 109.079  0.00  0.00     0.103 C 
ATOM     30  C1  IDS d 502      31.083  22.787 110.136  0.00  0.00     0.158 C 
ATOM     31  O61 IDS d 502      27.584  22.332 112.174  0.00  0.00    -0.646 OA
ATOM     32  C6  IDS d 502      27.932  21.399 111.493  0.00  0.00     0.206 C 
ATOM     33  O1  IDS d 502      31.987  21.790 110.535  0.00  0.00    -0.368 OA
ATOM     34  C3  IDS d 502      30.068  21.460 108.232  0.00  0.00     0.094 C 
ATOM     35  O3S IDS d 502      31.253  25.258 106.599  0.00  0.00    -0.572 OA
ATOM     36  O5  IDS d 502      29.849  22.696 110.803  0.00  0.00    -0.340 OA
ATOM     37  C2  IDS d 502      30.906  22.681 108.625  0.00  0.00     0.134 C 
ATOM     38  O4  IDS d 502      27.911  22.416 108.713  0.00  0.00    -0.348 OA
ATOM     39  O1S IDS d 502      30.195  23.260 105.836  0.00  0.00    -0.572 OA
ATOM     40  C5  IDS d 502      29.130  21.504 110.561  0.00  0.00     0.152 C 
ATOM     41  H   IDS d 502      30.333  19.514 108.222  0.00  0.00     0.210 HD
ATOM     42  H   IDS d 502      28.309  20.435 108.906  0.00  0.00     0.092 H 
ATOM     43  H   IDS d 502      31.481  23.744 110.399  0.00  0.00     0.133 H 
ATOM     44  H   IDS d 502      31.631  20.919 110.300  0.00  0.00     0.212 HD
ATOM     45  H   IDS d 502      29.789  21.541 107.202  0.00  0.00     0.091 H 
ATOM     46  H   IDS d 502      31.875  22.592 108.182  0.00  0.00     0.097 H 
ATOM     47  H   IDS d 502      29.747  20.660 110.788  0.00  0.00     0.104 H 
ATOM     48  S2  SGN d 505      20.300  32.765 104.099  0.00  0.00     0.251 S 
ATOM     49  O6  SGN d 505      20.339  32.013 105.422  0.00  0.00    -0.254 OA
ATOM     50  O5S SGN d 505      21.462  33.618 104.133  0.00  0.00    -0.572 OA
ATOM     51  C6  SGN d 505      20.524  30.652 105.609  0.00  0.00     0.067 C 
ATOM     52  O2S SGN d 505      21.760  33.659 111.816  0.00  0.00    -0.296 OA
ATOM     53  S1  SGN d 505      22.626  32.510 111.687  0.00  0.00     0.156 S 
ATOM     54  O6S SGN d 505      20.373  31.765 103.042  0.00  0.00    -0.572 OA
ATOM     55  O4  SGN d 505      18.382  30.467 107.333  0.00  0.00    -0.348 OA
ATOM     56  O5  SGN d 505      21.881  31.116 107.423  0.00  0.00    -0.349 OA
ATOM     57  O4S SGN d 505      19.038  33.470 104.114  0.00  0.00    -0.572 OA
ATOM     58  C1  SGN d 505      22.272  30.913 108.751  0.00  0.00     0.150 C 
ATOM     59  O1S SGN d 505      23.692  32.726 110.732  0.00  0.00    -0.296 OA
ATOM     60  N   SGN d 505      21.643  31.294 111.083  0.00  0.00    -0.210 NA
ATOM     61  C3  SGN d 505      19.838  30.741 109.363  0.00  0.00     0.083 C 
ATOM     62  C2  SGN d 505      21.185  31.419 109.680  0.00  0.00     0.081 C 
ATOM     63  O3S SGN d 505      23.095  32.072 112.953  0.00  0.00    -0.296 OA
ATOM     64  C4  SGN d 505      19.551  31.054 107.866  0.00  0.00     0.095 C 
ATOM     65  C5  SGN d 505      20.688  30.479 107.084  0.00  0.00     0.091 C 
ATOM     66  O3  SGN d 505      18.837  31.317 110.193  0.00  0.00    -0.391 OA
ATOM     67  H   SGN d 505      21.399  30.318 105.092  0.00  0.00     0.080 H 
ATOM     68  H   SGN d 505      19.703  30.081 105.229  0.00  0.00     0.080 H 
ATOM     69  H   SGN d 505      21.456  33.934 110.936  0.00  0.00     0.231 HD
ATOM     70  H   SGN d 505      23.169  31.463 108.950  0.00  0.00     0.131 H 
ATOM     71  H   SGN d 505      23.316  33.023 109.888  0.00  0.00     0.231 HD
ATOM     72  H   SGN d 505      20.812  31.251 111.673  0.00  0.00     0.140 HD
ATOM     73  H   SGN d 505      19.851  29.685 109.538  0.00  0.00     0.089 H 
ATOM     74  H   SGN d 505      21.001  32.460 109.522  0.00  0.00     0.076 H 
ATOM     75  H   SGN d 505      22.342  31.944 113.551  0.00  0.00     0.231 HD
ATOM     76  H   SGN d 505      19.428  32.114 107.800  0.00  0.00     0.091 H 
ATOM     77  H   SGN d 505      20.704  29.436 107.326  0.00  0.00     0.090 H 
ATOM     78  H   SGN d 505      18.810  32.276 110.049  0.00  0.00     0.210 HD
ATOM     79  C6  SGN d 503      25.185  23.913 111.393  0.00  0.00     0.067 C 
ATOM     80  O6  SGN d 503      23.875  23.402 111.281  0.00  0.00    -0.254 OA
ATOM     81  C4  SGN d 503      25.128  24.521 108.908  0.00  0.00     0.095 C 
ATOM     82  O5  SGN d 503      25.865  22.400 109.808  0.00  0.00    -0.349 OA
ATOM     83  O4  SGN d 503      25.227  25.888 109.141  0.00  0.00    -0.348 OA
ATOM     84  S1  SGN d 503      26.123  20.936 105.479  0.00  0.00     0.156 S 
ATOM     85  O4S SGN d 503      23.424  23.352 113.650  0.00  0.00    -0.572 OA
ATOM     86  O2S SGN d 503      24.670  20.952 105.314  0.00  0.00    -0.296 OA
ATOM     87  C3  SGN d 503      25.796  24.207 107.572  0.00  0.00     0.083 C 
ATOM     88  S2  SGN d 503      23.068  22.727 112.422  0.00  0.00     0.251 S 
ATOM     89  O5S SGN d 503      21.654  22.905 112.108  0.00  0.00    -0.572 OA
ATOM     90  C1  SGN d 503      26.561  22.049 108.637  0.00  0.00     0.150 C 
ATOM     91  O1S SGN d 503      26.560  19.869 106.358  0.00  0.00    -0.296 OA
ATOM     92  O6S SGN d 503      23.521  21.391 112.408  0.00  0.00    -0.572 OA
ATOM     93  C2  SGN d 503      25.883  22.700 107.423  0.00  0.00     0.081 C 
ATOM     94  N   SGN d 503      26.568  22.327 106.198  0.00  0.00    -0.210 NA
ATOM     95  O3  SGN d 503      24.992  24.748 106.540  0.00  0.00    -0.391 OA
ATOM     96  C5  SGN d 503      25.843  23.773 110.047  0.00  0.00     0.091 C 
ATOM     97  O3S SGN d 503      26.853  20.960 104.232  0.00  0.00    -0.296 OA
ATOM     98  H   SGN d 503      25.152  24.944 111.678  0.00  0.00     0.080 H 
ATOM     99  H   SGN d 503      25.736  23.377 112.138  0.00  0.00     0.080 H 
ATOM    100  H   SGN d 503      24.103  24.214 108.874  0.00  0.00     0.091 H 
ATOM    101  H   SGN d 503      24.246  20.935 106.187  0.00  0.00     0.231 HD
ATOM    102  H   SGN d 503      26.778  24.628 107.522  0.00  0.00     0.089 H 
ATOM    103  H   SGN d 503      26.530  20.985 108.528  0.00  0.00     0.131 H 
ATOM    104  H   SGN d 503      26.043  19.894 107.178  0.00  0.00     0.231 HD
ATOM    105  H   SGN d 503      24.879  22.332 107.370  0.00  0.00     0.076 H 
ATOM    106  H   SGN d 503      26.421  23.079 105.525  0.00  0.00     0.140 HD
ATOM    107  H   SGN d 503      24.102  24.364 106.588  0.00  0.00     0.210 HD
ATOM    108  H   SGN d 503      26.816  24.219 110.065  0.00  0.00     0.090 H 
ATOM    109  H   SGN d 503      27.806  20.947 104.415  0.00  0.00     0.231 HD
ATOM    110  O61 IDS d 504      21.571  27.550 106.464  0.00  0.00    -0.646 OA
ATOM    111  O62 IDS d 504      23.203  28.298 105.364  0.00  0.00    -0.646 OA
ATOM    112  O3S IDS d 504      24.239  26.979 113.214  0.00  0.00    -0.572 OA
ATOM    113  S   IDS d 504      23.363  28.033 112.862  0.00  0.00     0.252 S 
ATOM    114  C6  IDS d 504      22.748  27.885 106.433  0.00  0.00     0.206 C 
ATOM    115  O3  IDS d 504      26.069  28.741 108.982  0.00  0.00    -0.390 OA
ATOM    116  C1  IDS d 504      24.050  26.471 109.623  0.00  0.00     0.161 C 
ATOM    117  O2  IDS d 504      23.331  27.980 111.324  0.00  0.00    -0.244 OA
ATOM    118  C5  IDS d 504      23.625  27.812 107.694  0.00  0.00     0.152 C 
ATOM    119  C4  IDS d 504      23.797  29.133 108.441  0.00  0.00     0.103 C 
ATOM    120  O5  IDS d 504      23.142  26.820 108.573  0.00  0.00    -0.340 OA
ATOM    121  O4  IDS d 504      22.553  29.558 108.976  0.00  0.00    -0.348 OA
ATOM    122  C2  IDS d 504      24.424  27.678 110.458  0.00  0.00     0.134 C 
ATOM    123  O1S IDS d 504      23.895  29.301 113.208  0.00  0.00    -0.572 OA
ATOM    124  O2S IDS d 504      22.016  27.880 113.329  0.00  0.00    -0.572 OA
ATOM    125  C3  IDS d 504      24.790  28.932 109.575  0.00  0.00     0.094 C 
ATOM    126  H   IDS d 504      26.292  29.513 108.439  0.00  0.00     0.210 HD
ATOM    127  H   IDS d 504      23.531  25.755 110.225  0.00  0.00     0.133 H 
ATOM    128  H   IDS d 504      24.600  27.556 107.338  0.00  0.00     0.104 H 
ATOM    129  H   IDS d 504      24.157  29.879 107.763  0.00  0.00     0.092 H 
ATOM    130  H   IDS d 504      25.300  27.443 111.026  0.00  0.00     0.097 H 
ATOM    131  H   IDS d 504      24.776  29.787 110.220  0.00  0.00     0.091 H 
ENDROOT
TORSDOF 40
ENDMDL
MODEL 64
REMARK VINA RESULT:      -8.7      4.666     13.808
REMARK  0 active torsions:
REMARK  status: ('A' for Active; 'I' for Inactive)
REMARK       I    between atoms: C6_1  and  C5_82 
REMARK       I    between atoms: O2_4  and  C2_65 
REMARK       I    between atoms: O2_4  and  S_6 
REMARK       I    between atoms: S2_5  and  O6_13 
REMARK       I    between atoms: C6_7  and  C5_66 
REMARK       I    between atoms: C6_7  and  O6_11 
REMARK       I    between atoms: S_8  and  O2_37 
REMARK       I    between atoms: O6_11  and  S2_34 
REMARK       I    between atoms: O6_13  and  C6_16 
REMARK       I    between atoms: C6_16  and  C5_76 
REMARK       I    between atoms: O2S_17  and  S1_21 
REMARK       I    between atoms: O4_18  and  C4_33 
REMARK       I    between atoms: C4_19  and  O4_25 
REMARK       I    between atoms: O3_20  and  C3_57 
REMARK       I    between atoms: S1_21  and  N_56 
REMARK       I    between atoms: S1_21  and  O1S_55 
REMARK       I    between atoms: S1_21  and  O3S_68 
REMARK       I    between atoms: O3_24  and  C3_80 
REMARK       I    between atoms: O4_25  and  C1_53 
REMARK       I    between atoms: S1_26  and  N_59 
REMARK       I    between atoms: S1_26  and  O1S_42 
REMARK       I    between atoms: S1_26  and  O2S_29 
REMARK       I    between atoms: S1_26  and  O3S_87 
REMARK       I    between atoms: S_30  and  O2_54 
REMARK       I    between atoms: C3_31  and  O3_61 
REMARK       I    between atoms: O4_36  and  C4_70 
REMARK       I    between atoms: O4_36  and  C1_52 
REMARK       I    between atoms: O2_37  and  C2_45 
REMARK       I    between atoms: C4_38  and  O4_71 
REMARK       I    between atoms: C1_39  and  O1_51 
REMARK       I    between atoms: C1_40  and  O4_71 
REMARK       I    between atoms: C6_46  and  C5_84 
REMARK       I    between atoms: C6_47  and  C5_64 
REMARK       I    between atoms: C1_48  and  O4_77 
REMARK       I    between atoms: O3_50  and  C3_86 
REMARK       I    between atoms: O2_54  and  C2_79 
REMARK       I    between atoms: N_56  and  C2_67 
REMARK       I    between atoms: C2_58  and  N_59 
REMARK       I    between atoms: C3_62  and  O3_81 
REMARK       I    between atoms: C4_69  and  O4_77 
ROOT
ATOM      1  C6  IDS d 506      28.875  30.745 110.548  0.00  0.00     0.206 C 
ATOM      2  O62 IDS d 506      29.862  30.914 111.243  0.00  0.00    -0.646 OA
ATOM      3  S   IDS d 506      23.281  33.329 111.728  0.00  0.00     0.252 S 
ATOM      4  O1S IDS d 506      23.737  33.515 113.072  0.00  0.00    -0.572 OA
ATOM      5  O3S IDS d 506      21.976  32.710 111.650  0.00  0.00    -0.572 OA
ATOM      6  O4  IDS d 506      27.229  32.877 111.871  0.00  0.00    -0.390 OA
ATOM      7  O3  IDS d 506      25.663  30.201 113.663  0.00  0.00    -0.390 OA
ATOM      8  C4  IDS d 506      27.134  31.540 112.301  0.00  0.00     0.097 C 
ATOM      9  O2  IDS d 506      24.289  32.279 111.092  0.00  0.00    -0.244 OA
ATOM     10  C2  IDS d 506      24.689  31.024 111.608  0.00  0.00     0.134 C 
ATOM     11  C1  IDS d 506      25.293  30.161 110.490  0.00  0.00     0.161 C 
ATOM     12  O2S IDS d 506      23.376  34.550 110.978  0.00  0.00    -0.572 OA
ATOM     13  O5  IDS d 506      26.538  30.706 110.135  0.00  0.00    -0.340 OA
ATOM     14  O61 IDS d 506      29.030  30.680 109.337  0.00  0.00    -0.646 OA
ATOM     15  C3  IDS d 506      25.681  31.310 112.769  0.00  0.00     0.094 C 
ATOM     16  C5  IDS d 506      27.487  30.598 111.144  0.00  0.00     0.152 C 
ATOM     17  H   IDS d 506      27.005  33.470 112.606  0.00  0.00     0.210 HD
ATOM     18  H   IDS d 506      26.279  30.366 114.395  0.00  0.00     0.210 HD
ATOM     19  H   IDS d 506      27.816  31.341 113.102  0.00  0.00     0.091 H 
ATOM     20  H   IDS d 506      23.862  30.462 111.989  0.00  0.00     0.097 H 
ATOM     21  H   IDS d 506      25.400  29.150 110.822  0.00  0.00     0.133 H 
ATOM     22  H   IDS d 506      25.359  32.216 113.238  0.00  0.00     0.091 H 
ATOM     23  H   IDS d 506      27.484  29.627 111.593  0.00  0.00     0.104 H 
ATOM     24  O62 IDS d 502      19.872  17.569 113.636  0.00  0.00    -0.646 OA
ATOM     25  O2  IDS d 502      16.989  18.868 108.954  0.00  0.00    -0.244 OA
ATOM     26  S   IDS d 502      16.078  20.026 108.429  0.00  0.00     0.252 S 
ATOM     27  O3  IDS d 502      15.639  16.918 111.641  0.00  0.00    -0.390 OA
ATOM     28  O2S IDS d 502      16.880  21.225 108.507  0.00  0.00    -0.572 OA
ATOM     29  C4  IDS d 502      17.520  18.405 111.836  0.00  0.00     0.103 C 
ATOM     30  C1  IDS d 502      17.746  16.692 109.511  0.00  0.00     0.158 C 
ATOM     31  O61 IDS d 502      20.911  17.748 111.851  0.00  0.00    -0.646 OA
ATOM     32  C6  IDS d 502      19.864  17.558 112.421  0.00  0.00     0.206 C 
ATOM     33  O1  IDS d 502      17.266  15.438 109.917  0.00  0.00    -0.368 OA
ATOM     34  C3  IDS d 502      16.249  18.044 111.043  0.00  0.00     0.094 C 
ATOM     35  O3S IDS d 502      15.735  19.643 107.084  0.00  0.00    -0.572 OA
ATOM     36  O5  IDS d 502      18.846  17.122 110.273  0.00  0.00    -0.340 OA
ATOM     37  C2  IDS d 502      16.591  17.685 109.594  0.00  0.00     0.134 C 
ATOM     38  O4  IDS d 502      18.027  19.633 111.381  0.00  0.00    -0.348 OA
ATOM     39  O1S IDS d 502      14.926  20.083 109.285  0.00  0.00    -0.572 OA
ATOM     40  C5  IDS d 502      18.575  17.318 111.647  0.00  0.00     0.152 C 
ATOM     41  H   IDS d 502      15.413  17.122 112.562  0.00  0.00     0.210 HD
ATOM     42  H   IDS d 502      17.275  18.483 112.875  0.00  0.00     0.092 H 
ATOM     43  H   IDS d 502      18.105  16.620 108.506  0.00  0.00     0.133 H 
ATOM     44  H   IDS d 502      16.939  15.496 110.829  0.00  0.00     0.212 HD
ATOM     45  H   IDS d 502      15.595  18.891 111.051  0.00  0.00     0.091 H 
ATOM     46  H   IDS d 502      15.734  17.238 109.136  0.00  0.00     0.097 H 
ATOM     47  H   IDS d 502      18.152  16.427 112.061  0.00  0.00     0.104 H 
ATOM     48  S2  SGN d 505      21.779  31.696 106.213  0.00  0.00     0.251 S 
ATOM     49  O6  SGN d 505      22.544  30.587 106.920  0.00  0.00    -0.254 OA
ATOM     50  O5S SGN d 505      21.546  31.186 104.885  0.00  0.00    -0.572 OA
ATOM     51  C6  SGN d 505      22.114  29.825 107.996  0.00  0.00     0.067 C 
ATOM     52  O2S SGN d 505      27.530  26.369 105.203  0.00  0.00    -0.296 OA
ATOM     53  S1  SGN d 505      26.594  25.401 105.723  0.00  0.00     0.156 S 
ATOM     54  O6S SGN d 505      20.544  31.900 106.956  0.00  0.00    -0.572 OA
ATOM     55  O4  SGN d 505      24.463  30.220 109.380  0.00  0.00    -0.348 OA
ATOM     56  O5  SGN d 505      23.062  27.958 107.015  0.00  0.00    -0.349 OA
ATOM     57  O4S SGN d 505      22.659  32.842 106.269  0.00  0.00    -0.572 OA
ATOM     58  C1  SGN d 505      23.856  26.807 107.073  0.00  0.00     0.150 C 
ATOM     59  O1S SGN d 505      25.391  25.309 104.922  0.00  0.00    -0.296 OA
ATOM     60  N   SGN d 505      26.155  25.990 107.230  0.00  0.00    -0.210 NA
ATOM     61  C3  SGN d 505      25.468  28.082 108.525  0.00  0.00     0.083 C 
ATOM     62  C2  SGN d 505      25.306  27.204 107.269  0.00  0.00     0.081 C 
ATOM     63  O3S SGN d 505      27.216  24.142 105.936  0.00  0.00    -0.296 OA
ATOM     64  C4  SGN d 505      24.528  29.303 108.308  0.00  0.00     0.095 C 
ATOM     65  C5  SGN d 505      23.146  28.756 108.156  0.00  0.00     0.091 C 
ATOM     66  O3  SGN d 505      26.823  28.504 108.609  0.00  0.00    -0.391 OA
ATOM     67  H   SGN d 505      21.156  29.395 107.792  0.00  0.00     0.080 H 
ATOM     68  H   SGN d 505      22.006  30.412 108.884  0.00  0.00     0.080 H 
ATOM     69  H   SGN d 505      27.077  27.216 105.069  0.00  0.00     0.231 HD
ATOM     70  H   SGN d 505      23.775  26.268 106.152  0.00  0.00     0.131 H 
ATOM     71  H   SGN d 505      25.010  26.194 104.809  0.00  0.00     0.231 HD
ATOM     72  H   SGN d 505      27.015  26.202 107.737  0.00  0.00     0.140 HD
ATOM     73  H   SGN d 505      25.222  27.564 109.429  0.00  0.00     0.089 H 
ATOM     74  H   SGN d 505      25.645  27.825 106.467  0.00  0.00     0.076 H 
ATOM     75  H   SGN d 505      28.012  24.263 106.477  0.00  0.00     0.231 HD
ATOM     76  H   SGN d 505      24.917  29.833 107.464  0.00  0.00     0.091 H 
ATOM     77  H   SGN d 505      22.956  28.202 109.052  0.00  0.00     0.090 H 
ATOM     78  H   SGN d 505      27.066  28.975 107.796  0.00  0.00     0.210 HD
ATOM     79  C6  SGN d 503      22.025  20.504 111.699  0.00  0.00     0.067 C 
ATOM     80  O6  SGN d 503      22.391  21.296 112.807  0.00  0.00    -0.254 OA
ATOM     81  C4  SGN d 503      20.294  22.272 111.046  0.00  0.00     0.095 C 
ATOM     82  O5  SGN d 503      19.889  20.404 112.529  0.00  0.00    -0.349 OA
ATOM     83  O4  SGN d 503      20.922  22.583 109.845  0.00  0.00    -0.348 OA
ATOM     84  S1  SGN d 503      15.793  22.270 113.356  0.00  0.00     0.156 S 
ATOM     85  O4S SGN d 503      24.480  20.168 113.241  0.00  0.00    -0.572 OA
ATOM     86  O2S SGN d 503      16.375  23.395 114.086  0.00  0.00    -0.296 OA
ATOM     87  C3  SGN d 503      18.792  22.487 110.878  0.00  0.00     0.083 C 
ATOM     88  S2  SGN d 503      23.451  20.919 113.876  0.00  0.00     0.251 S 
ATOM     89  O5S SGN d 503      23.955  22.168 114.439  0.00  0.00    -0.572 OA
ATOM     90  C1  SGN d 503      18.493  20.486 112.390  0.00  0.00     0.150 C 
ATOM     91  O1S SGN d 503      15.896  21.027 114.097  0.00  0.00    -0.296 OA
ATOM     92  O6S SGN d 503      22.740  20.100 114.779  0.00  0.00    -0.572 OA
ATOM     93  C2  SGN d 503      18.090  21.941 112.107  0.00  0.00     0.081 C 
ATOM     94  N   SGN d 503      16.647  22.055 111.988  0.00  0.00    -0.210 NA
ATOM     95  O3  SGN d 503      18.557  23.878 110.767  0.00  0.00    -0.391 OA
ATOM     96  C5  SGN d 503      20.583  20.799 111.387  0.00  0.00     0.091 C 
ATOM     97  O3S SGN d 503      14.452  22.517 112.874  0.00  0.00    -0.296 OA
ATOM     98  H   SGN d 503      22.639  20.749 110.857  0.00  0.00     0.080 H 
ATOM     99  H   SGN d 503      22.158  19.465 111.918  0.00  0.00     0.080 H 
ATOM    100  H   SGN d 503      20.656  22.894 111.838  0.00  0.00     0.091 H 
ATOM    101  H   SGN d 503      17.270  23.161 114.379  0.00  0.00     0.231 HD
ATOM    102  H   SGN d 503      18.425  21.988 110.006  0.00  0.00     0.089 H 
ATOM    103  H   SGN d 503      18.039  20.168 113.305  0.00  0.00     0.131 H 
ATOM    104  H   SGN d 503      16.810  20.906 114.399  0.00  0.00     0.231 HD
ATOM    105  H   SGN d 503      18.405  22.537 112.938  0.00  0.00     0.076 H 
ATOM    106  H   SGN d 503      16.454  22.850 111.379  0.00  0.00     0.140 HD
ATOM    107  H   SGN d 503      18.891  24.327 111.559  0.00  0.00     0.210 HD
ATOM    108  H   SGN d 503      20.284  20.275 110.503  0.00  0.00     0.090 H 
ATOM    109  H   SGN d 503      14.129  21.733 112.402  0.00  0.00     0.231 HD
ATOM    110  O61 IDS d 504      21.170  27.393 110.151  0.00  0.00    -0.646 OA
ATOM    111  O62 IDS d 504      19.767  27.194 108.594  0.00  0.00    -0.646 OA
ATOM    112  O3S IDS d 504      25.037  21.241 109.699  0.00  0.00    -0.572 OA
ATOM    113  S   IDS d 504      25.562  22.470 109.232  0.00  0.00     0.252 S 
ATOM    114  C6  IDS d 504      20.691  26.713 109.253  0.00  0.00     0.206 C 
ATOM    115  O3  IDS d 504      21.410  23.175 106.967  0.00  0.00    -0.390 OA
ATOM    116  C1  IDS d 504      22.088  23.341 109.992  0.00  0.00     0.161 C 
ATOM    117  O2  IDS d 504      24.334  23.398 109.192  0.00  0.00    -0.244 OA
ATOM    118  C5  IDS d 504      21.242  25.311 108.943  0.00  0.00     0.152 C 
ATOM    119  C4  IDS d 504      22.226  25.244 107.777  0.00  0.00     0.103 C 
ATOM    120  O5  IDS d 504      21.821  24.743 110.096  0.00  0.00    -0.340 OA
ATOM    121  O4  IDS d 504      23.412  25.958 108.097  0.00  0.00    -0.348 OA
ATOM    122  C2  IDS d 504      23.005  23.036 108.824  0.00  0.00     0.134 C 
ATOM    123  O1S IDS d 504      26.033  22.372 107.899  0.00  0.00    -0.572 OA
ATOM    124  O2S IDS d 504      26.536  23.075 110.093  0.00  0.00    -0.572 OA
ATOM    125  C3  IDS d 504      22.573  23.788 107.507  0.00  0.00     0.094 C 
ATOM    126  H   IDS d 504      21.146  23.639 106.157  0.00  0.00     0.210 HD
ATOM    127  H   IDS d 504      22.564  23.070 110.911  0.00  0.00     0.133 H 
ATOM    128  H   IDS d 504      20.391  24.743 108.630  0.00  0.00     0.104 H 
ATOM    129  H   IDS d 504      21.779  25.684 106.910  0.00  0.00     0.092 H 
ATOM    130  H   IDS d 504      22.944  21.990 108.607  0.00  0.00     0.097 H 
ATOM    131  H   IDS d 504      23.400  23.736 106.829  0.00  0.00     0.091 H 
ENDROOT
TORSDOF 40
ENDMDL
MODEL 65
REMARK VINA RESULT:      -8.7      5.252     11.006
REMARK  0 active torsions:
REMARK  status: ('A' for Active; 'I' for Inactive)
REMARK       I    between atoms: C6_1  and  C5_82 
REMARK       I    between atoms: O2_4  and  C2_65 
REMARK       I    between atoms: O2_4  and  S_6 
REMARK       I    between atoms: S2_5  and  O6_13 
REMARK       I    between atoms: C6_7  and  C5_66 
REMARK       I    between atoms: C6_7  and  O6_11 
REMARK       I    between atoms: S_8  and  O2_37 
REMARK       I    between atoms: O6_11  and  S2_34 
REMARK       I    between atoms: O6_13  and  C6_16 
REMARK       I    between atoms: C6_16  and  C5_76 
REMARK       I    between atoms: O2S_17  and  S1_21 
REMARK       I    between atoms: O4_18  and  C4_33 
REMARK       I    between atoms: C4_19  and  O4_25 
REMARK       I    between atoms: O3_20  and  C3_57 
REMARK       I    between atoms: S1_21  and  N_56 
REMARK       I    between atoms: S1_21  and  O1S_55 
REMARK       I    between atoms: S1_21  and  O3S_68 
REMARK       I    between atoms: O3_24  and  C3_80 
REMARK       I    between atoms: O4_25  and  C1_53 
REMARK       I    between atoms: S1_26  and  N_59 
REMARK       I    between atoms: S1_26  and  O1S_42 
REMARK       I    between atoms: S1_26  and  O2S_29 
REMARK       I    between atoms: S1_26  and  O3S_87 
REMARK       I    between atoms: S_30  and  O2_54 
REMARK       I    between atoms: C3_31  and  O3_61 
REMARK       I    between atoms: O4_36  and  C4_70 
REMARK       I    between atoms: O4_36  and  C1_52 
REMARK       I    between atoms: O2_37  and  C2_45 
REMARK       I    between atoms: C4_38  and  O4_71 
REMARK       I    between atoms: C1_39  and  O1_51 
REMARK       I    between atoms: C1_40  and  O4_71 
REMARK       I    between atoms: C6_46  and  C5_84 
REMARK       I    between atoms: C6_47  and  C5_64 
REMARK       I    between atoms: C1_48  and  O4_77 
REMARK       I    between atoms: O3_50  and  C3_86 
REMARK       I    between atoms: O2_54  and  C2_79 
REMARK       I    between atoms: N_56  and  C2_67 
REMARK       I    between atoms: C2_58  and  N_59 
REMARK       I    between atoms: C3_62  and  O3_81 
REMARK       I    between atoms: C4_69  and  O4_77 
ROOT
ATOM      1  C6  IDS d 506      29.583  22.974 105.498  0.00  0.00     0.206 C 
ATOM      2  O62 IDS d 506      30.014  22.950 104.358  0.00  0.00    -0.646 OA
ATOM      3  S   IDS d 506      25.679  18.665 107.852  0.00  0.00     0.252 S 
ATOM      4  O1S IDS d 506      25.364  18.324 106.499  0.00  0.00    -0.572 OA
ATOM      5  O3S IDS d 506      24.507  18.875 108.674  0.00  0.00    -0.572 OA
ATOM      6  O4  IDS d 506      28.414  20.212 105.415  0.00  0.00    -0.390 OA
ATOM      7  O3  IDS d 506      25.270  21.834 104.854  0.00  0.00    -0.390 OA
ATOM      8  C4  IDS d 506      27.614  21.330 105.108  0.00  0.00     0.097 C 
ATOM      9  O2  IDS d 506      26.396  20.080 107.765  0.00  0.00    -0.244 OA
ATOM     10  C2  IDS d 506      25.953  21.247 107.099  0.00  0.00     0.134 C 
ATOM     11  C1  IDS d 506      26.695  22.477 107.640  0.00  0.00     0.161 C 
ATOM     12  O2S IDS d 506      26.608  17.728 108.417  0.00  0.00    -0.572 OA
ATOM     13  O5  IDS d 506      28.029  22.417 107.203  0.00  0.00    -0.340 OA
ATOM     14  O61 IDS d 506      30.333  23.353 106.387  0.00  0.00    -0.646 OA
ATOM     15  C3  IDS d 506      26.179  21.011 105.580  0.00  0.00     0.094 C 
ATOM     16  C5  IDS d 506      28.159  22.568 105.828  0.00  0.00     0.152 C 
ATOM     17  H   IDS d 506      28.066  19.430 104.958  0.00  0.00     0.210 HD
ATOM     18  H   IDS d 506      25.400  21.697 103.902  0.00  0.00     0.210 HD
ATOM     19  H   IDS d 506      27.622  21.534 104.058  0.00  0.00     0.091 H 
ATOM     20  H   IDS d 506      24.914  21.440 107.269  0.00  0.00     0.097 H 
ATOM     21  H   IDS d 506      26.222  23.373 107.297  0.00  0.00     0.133 H 
ATOM     22  H   IDS d 506      26.017  19.969 105.398  0.00  0.00     0.091 H 
ATOM     23  H   IDS d 506      27.554  23.369 105.455  0.00  0.00     0.104 H 
ATOM     24  O62 IDS d 502      16.240  31.875 108.134  0.00  0.00    -0.646 OA
ATOM     25  O2  IDS d 502      17.082  30.876 113.631  0.00  0.00    -0.244 OA
ATOM     26  S   IDS d 502      17.108  29.651 114.603  0.00  0.00     0.252 S 
ATOM     27  O3  IDS d 502      13.886  31.686 112.226  0.00  0.00    -0.390 OA
ATOM     28  O2S IDS d 502      18.114  28.755 114.083  0.00  0.00    -0.572 OA
ATOM     29  C4  IDS d 502      15.750  30.813 110.981  0.00  0.00     0.103 C 
ATOM     30  C1  IDS d 502      16.546  32.995 112.712  0.00  0.00     0.158 C 
ATOM     31  O61 IDS d 502      18.058  32.416 108.972  0.00  0.00    -0.646 OA
ATOM     32  C6  IDS d 502      16.889  32.157 109.123  0.00  0.00     0.206 C 
ATOM     33  O1  IDS d 502      15.500  33.927 112.651  0.00  0.00    -0.368 OA
ATOM     34  C3  IDS d 502      15.087  30.954 112.365  0.00  0.00     0.094 C 
ATOM     35  O3S IDS d 502      17.436  30.210 115.889  0.00  0.00    -0.572 OA
ATOM     36  O5  IDS d 502      17.123  32.747 111.454  0.00  0.00    -0.340 OA
ATOM     37  C2  IDS d 502      15.998  31.714 113.333  0.00  0.00     0.134 C 
ATOM     38  O4  IDS d 502      16.834  29.924 111.066  0.00  0.00    -0.348 OA
ATOM     39  O1S IDS d 502      15.795  29.067 114.587  0.00  0.00    -0.572 OA
ATOM     40  C5  IDS d 502      16.247  32.175 110.503  0.00  0.00     0.152 C 
ATOM     41  H   IDS d 502      13.292  31.222 111.615  0.00  0.00     0.210 HD
ATOM     42  H   IDS d 502      15.031  30.435 110.285  0.00  0.00     0.092 H 
ATOM     43  H   IDS d 502      17.335  33.394 113.314  0.00  0.00     0.133 H 
ATOM     44  H   IDS d 502      14.781  33.571 112.106  0.00  0.00     0.212 HD
ATOM     45  H   IDS d 502      14.902  29.973 112.751  0.00  0.00     0.091 H 
ATOM     46  H   IDS d 502      15.433  31.981 114.202  0.00  0.00     0.097 H 
ATOM     47  H   IDS d 502      15.374  32.786 110.407  0.00  0.00     0.104 H 
ATOM     48  S2  SGN d 505      26.929  20.984 113.181  0.00  0.00     0.251 S 
ATOM     49  O6  SGN d 505      26.712  22.080 112.148  0.00  0.00    -0.254 OA
ATOM     50  O5S SGN d 505      27.284  21.689 114.388  0.00  0.00    -0.572 OA
ATOM     51  C6  SGN d 505      25.523  22.418 111.521  0.00  0.00     0.067 C 
ATOM     52  O2S SGN d 505      29.845  27.849 110.567  0.00  0.00    -0.296 OA
ATOM     53  S1  SGN d 505      28.498  28.356 110.684  0.00  0.00     0.156 S 
ATOM     54  O6S SGN d 505      25.669  20.264 113.307  0.00  0.00    -0.572 OA
ATOM     55  O4  SGN d 505      26.692  22.430 109.026  0.00  0.00    -0.348 OA
ATOM     56  O5  SGN d 505      26.079  24.652 111.738  0.00  0.00    -0.349 OA
ATOM     57  O4S SGN d 505      27.987  20.166 112.633  0.00  0.00    -0.572 OA
ATOM     58  C1  SGN d 505      26.221  25.942 111.212  0.00  0.00     0.150 C 
ATOM     59  O1S SGN d 505      27.991  28.269 112.037  0.00  0.00    -0.296 OA
ATOM     60  N   SGN d 505      27.569  27.340 109.728  0.00  0.00    -0.210 NA
ATOM     61  C3  SGN d 505      27.123  24.904 109.105  0.00  0.00     0.083 C 
ATOM     62  C2  SGN d 505      27.357  25.955 110.208  0.00  0.00     0.081 C 
ATOM     63  O3S SGN d 505      28.387  29.660 110.133  0.00  0.00    -0.296 OA
ATOM     64  C4  SGN d 505      26.983  23.542 109.846  0.00  0.00     0.095 C 
ATOM     65  C5  SGN d 505      25.820  23.678 110.774  0.00  0.00     0.091 C 
ATOM     66  O3  SGN d 505      28.256  24.891 108.247  0.00  0.00    -0.391 OA
ATOM     67  H   SGN d 505      24.751  22.583 112.243  0.00  0.00     0.080 H 
ATOM     68  H   SGN d 505      25.178  21.641 110.872  0.00  0.00     0.080 H 
ATOM     69  H   SGN d 505      29.890  26.959 110.951  0.00  0.00     0.231 HD
ATOM     70  H   SGN d 505      26.459  26.626 112.000  0.00  0.00     0.131 H 
ATOM     71  H   SGN d 505      28.092  27.360 112.362  0.00  0.00     0.231 HD
ATOM     72  H   SGN d 505      28.022  27.282 108.815  0.00  0.00     0.140 HD
ATOM     73  H   SGN d 505      26.256  25.108 108.512  0.00  0.00     0.089 H 
ATOM     74  H   SGN d 505      28.277  25.658 110.666  0.00  0.00     0.076 H 
ATOM     75  H   SGN d 505      28.740  29.660 109.230  0.00  0.00     0.231 HD
ATOM     76  H   SGN d 505      27.929  23.354 110.307  0.00  0.00     0.091 H 
ATOM     77  H   SGN d 505      24.986  23.935 110.154  0.00  0.00     0.090 H 
ATOM     78  H   SGN d 505      29.054  24.707 108.768  0.00  0.00     0.210 HD
ATOM     79  C6  SGN d 503      20.002  30.217 108.472  0.00  0.00     0.067 C 
ATOM     80  O6  SGN d 503      19.970  29.339 107.368  0.00  0.00    -0.254 OA
ATOM     81  C4  SGN d 503      19.702  28.214 110.035  0.00  0.00     0.095 C 
ATOM     82  O5  SGN d 503      17.903  29.495 109.052  0.00  0.00    -0.349 OA
ATOM     83  O4  SGN d 503      20.942  28.379 110.643  0.00  0.00    -0.348 OA
ATOM     84  S1  SGN d 503      15.053  26.373 110.806  0.00  0.00     0.156 S 
ATOM     85  O4S SGN d 503      20.894  30.902 105.780  0.00  0.00    -0.572 OA
ATOM     86  O2S SGN d 503      15.513  25.334 109.885  0.00  0.00    -0.296 OA
ATOM     87  C3  SGN d 503      18.740  27.610 111.055  0.00  0.00     0.083 C 
ATOM     88  S2  SGN d 503      20.051  29.759 105.877  0.00  0.00     0.251 S 
ATOM     89  O5S SGN d 503      20.588  28.620 105.139  0.00  0.00    -0.572 OA
ATOM     90  C1  SGN d 503      16.954  29.040 109.985  0.00  0.00     0.150 C 
ATOM     91  O1S SGN d 503      14.270  27.391 110.131  0.00  0.00    -0.296 OA
ATOM     92  O6S SGN d 503      18.722  30.108 105.554  0.00  0.00    -0.572 OA
ATOM     93  C2  SGN d 503      17.342  27.634 110.465  0.00  0.00     0.081 C 
ATOM     94  N   SGN d 503      16.360  27.131 111.410  0.00  0.00    -0.210 NA
ATOM     95  O3  SGN d 503      19.137  26.274 111.298  0.00  0.00    -0.391 OA
ATOM     96  C5  SGN d 503      19.191  29.590 109.574  0.00  0.00     0.091 C 
ATOM     97  O3S SGN d 503      14.394  25.858 111.985  0.00  0.00    -0.296 OA
ATOM     98  H   SGN d 503      21.011  30.359 108.797  0.00  0.00     0.080 H 
ATOM     99  H   SGN d 503      19.598  31.171 108.205  0.00  0.00     0.080 H 
ATOM    100  H   SGN d 503      19.777  27.563 109.189  0.00  0.00     0.091 H 
ATOM    101  H   SGN d 503      15.944  25.748 109.120  0.00  0.00     0.231 HD
ATOM    102  H   SGN d 503      18.750  28.162 111.971  0.00  0.00     0.089 H 
ATOM    103  H   SGN d 503      15.998  28.997 109.506  0.00  0.00     0.131 H 
ATOM    104  H   SGN d 503      14.752  27.703 109.350  0.00  0.00     0.231 HD
ATOM    105  H   SGN d 503      17.350  26.986 109.615  0.00  0.00     0.076 H 
ATOM    106  H   SGN d 503      16.838  26.473 112.025  0.00  0.00     0.140 HD
ATOM    107  H   SGN d 503      19.126  25.776 110.466  0.00  0.00     0.210 HD
ATOM    108  H   SGN d 503      19.251  30.187 110.459  0.00  0.00     0.090 H 
ATOM    109  H   SGN d 503      14.116  26.598 112.548  0.00  0.00     0.231 HD
ATOM    110  O61 IDS d 504      22.744  23.914 110.303  0.00  0.00    -0.646 OA
ATOM    111  O62 IDS d 504      22.455  24.038 112.385  0.00  0.00    -0.646 OA
ATOM    112  O3S IDS d 504      23.631  30.867 108.333  0.00  0.00    -0.572 OA
ATOM    113  S   IDS d 504      24.734  29.985 108.416  0.00  0.00     0.252 S 
ATOM    114  C6  IDS d 504      22.617  24.608 111.303  0.00  0.00     0.206 C 
ATOM    115  O3  IDS d 504      23.088  28.621 112.694  0.00  0.00    -0.390 OA
ATOM    116  C1  IDS d 504      22.023  27.984 109.848  0.00  0.00     0.161 C 
ATOM    117  O2  IDS d 504      24.173  28.772 109.179  0.00  0.00    -0.244 OA
ATOM    118  C5  IDS d 504      22.682  26.142 111.216  0.00  0.00     0.152 C 
ATOM    119  C4  IDS d 504      24.032  26.756 111.581  0.00  0.00     0.103 C 
ATOM    120  O5  IDS d 504      22.284  26.580 109.936  0.00  0.00    -0.340 OA
ATOM    121  O4  IDS d 504      25.017  26.369 110.635  0.00  0.00    -0.348 OA
ATOM    122  C2  IDS d 504      23.235  28.800 110.253  0.00  0.00     0.134 C 
ATOM    123  O1S IDS d 504      25.776  30.515 109.218  0.00  0.00    -0.572 OA
ATOM    124  O2S IDS d 504      25.226  29.515 107.154  0.00  0.00    -0.572 OA
ATOM    125  C3  IDS d 504      23.901  28.271 111.581  0.00  0.00     0.094 C 
ATOM    126  H   IDS d 504      23.500  28.295 113.510  0.00  0.00     0.210 HD
ATOM    127  H   IDS d 504      21.784  28.169 108.822  0.00  0.00     0.133 H 
ATOM    128  H   IDS d 504      21.999  26.490 111.962  0.00  0.00     0.104 H 
ATOM    129  H   IDS d 504      24.327  26.412 112.551  0.00  0.00     0.092 H 
ATOM    130  H   IDS d 504      22.920  29.803 110.452  0.00  0.00     0.097 H 
ATOM    131  H   IDS d 504      24.873  28.715 111.644  0.00  0.00     0.091 H 
ENDROOT
TORSDOF 40
ENDMDL
MODEL 66
REMARK VINA RESULT:      -8.6      3.358     12.703
REMARK  0 active torsions:
REMARK  status: ('A' for Active; 'I' for Inactive)
REMARK       I    between atoms: C6_1  and  C5_82 
REMARK       I    between atoms: O2_4  and  C2_65 
REMARK       I    between atoms: O2_4  and  S_6 
REMARK       I    between atoms: S2_5  and  O6_13 
REMARK       I    between atoms: C6_7  and  C5_66 
REMARK       I    between atoms: C6_7  and  O6_11 
REMARK       I    between atoms: S_8  and  O2_37 
REMARK       I    between atoms: O6_11  and  S2_34 
REMARK       I    between atoms: O6_13  and  C6_16 
REMARK       I    between atoms: C6_16  and  C5_76 
REMARK       I    between atoms: O2S_17  and  S1_21 
REMARK       I    between atoms: O4_18  and  C4_33 
REMARK       I    between atoms: C4_19  and  O4_25 
REMARK       I    between atoms: O3_20  and  C3_57 
REMARK       I    between atoms: S1_21  and  N_56 
REMARK       I    between atoms: S1_21  and  O1S_55 
REMARK       I    between atoms: S1_21  and  O3S_68 
REMARK       I    between atoms: O3_24  and  C3_80 
REMARK       I    between atoms: O4_25  and  C1_53 
REMARK       I    between atoms: S1_26  and  N_59 
REMARK       I    between atoms: S1_26  and  O1S_42 
REMARK       I    between atoms: S1_26  and  O2S_29 
REMARK       I    between atoms: S1_26  and  O3S_87 
REMARK       I    between atoms: S_30  and  O2_54 
REMARK       I    between atoms: C3_31  and  O3_61 
REMARK       I    between atoms: O4_36  and  C4_70 
REMARK       I    between atoms: O4_36  and  C1_52 
REMARK       I    between atoms: O2_37  and  C2_45 
REMARK       I    between atoms: C4_38  and  O4_71 
REMARK       I    between atoms: C1_39  and  O1_51 
REMARK       I    between atoms: C1_40  and  O4_71 
REMARK       I    between atoms: C6_46  and  C5_84 
REMARK       I    between atoms: C6_47  and  C5_64 
REMARK       I    between atoms: C1_48  and  O4_77 
REMARK       I    between atoms: O3_50  and  C3_86 
REMARK       I    between atoms: O2_54  and  C2_79 
REMARK       I    between atoms: N_56  and  C2_67 
REMARK       I    between atoms: C2_58  and  N_59 
REMARK       I    between atoms: C3_62  and  O3_81 
REMARK       I    between atoms: C4_69  and  O4_77 
ROOT
ATOM      1  C6  IDS d 506      31.586  31.052 106.072  0.00  0.00     0.206 C 
ATOM      2  O62 IDS d 506      31.802  31.727 105.080  0.00  0.00    -0.646 OA
ATOM      3  S   IDS d 506      32.815  24.913 106.462  0.00  0.00     0.252 S 
ATOM      4  O1S IDS d 506      32.825  24.903 105.032  0.00  0.00    -0.572 OA
ATOM      5  O3S IDS d 506      31.989  23.870 107.033  0.00  0.00    -0.572 OA
ATOM      6  O4  IDS d 506      33.087  28.640 105.105  0.00  0.00    -0.390 OA
ATOM      7  O3  IDS d 506      29.877  27.299 104.254  0.00  0.00    -0.390 OA
ATOM      8  C4  IDS d 506      31.698  28.743 104.895  0.00  0.00     0.097 C 
ATOM      9  O2  IDS d 506      32.109  26.280 106.861  0.00  0.00    -0.244 OA
ATOM     10  C2  IDS d 506      30.876  26.796 106.399  0.00  0.00     0.134 C 
ATOM     11  C1  IDS d 506      30.368  27.884 107.356  0.00  0.00     0.161 C 
ATOM     12  O2S IDS d 506      34.150  24.930 106.988  0.00  0.00    -0.572 OA
ATOM     13  O5  IDS d 506      31.192  29.013 107.221  0.00  0.00    -0.340 OA
ATOM     14  O61 IDS d 506      31.780  31.563 107.166  0.00  0.00    -0.646 OA
ATOM     15  C3  IDS d 506      31.119  27.314 104.954  0.00  0.00     0.094 C 
ATOM     16  C5  IDS d 506      31.074  29.627 105.980  0.00  0.00     0.152 C 
ATOM     17  H   IDS d 506      33.478  28.080 104.416  0.00  0.00     0.210 HD
ATOM     18  H   IDS d 506      30.012  27.619 103.349  0.00  0.00     0.210 HD
ATOM     19  H   IDS d 506      31.483  29.190 103.946  0.00  0.00     0.091 H 
ATOM     20  H   IDS d 506      30.109  26.051 106.376  0.00  0.00     0.097 H 
ATOM     21  H   IDS d 506      29.350  28.125 107.132  0.00  0.00     0.133 H 
ATOM     22  H   IDS d 506      31.844  26.665 104.508  0.00  0.00     0.091 H 
ATOM     23  H   IDS d 506      30.052  29.724 105.677  0.00  0.00     0.104 H 
ATOM     24  O62 IDS d 502      16.623  24.911 107.681  0.00  0.00    -0.646 OA
ATOM     25  O2  IDS d 502      18.222  23.287 112.850  0.00  0.00    -0.244 OA
ATOM     26  S   IDS d 502      19.268  22.321 113.498  0.00  0.00     0.252 S 
ATOM     27  O3  IDS d 502      15.583  21.716 111.002  0.00  0.00    -0.390 OA
ATOM     28  O2S IDS d 502      20.558  22.759 113.021  0.00  0.00    -0.572 OA
ATOM     29  C4  IDS d 502      17.330  23.054 110.030  0.00  0.00     0.103 C 
ATOM     30  C1  IDS d 502      16.158  24.340 112.346  0.00  0.00     0.158 C 
ATOM     31  O61 IDS d 502      17.325  26.350 108.998  0.00  0.00    -0.646 OA
ATOM     32  C6  IDS d 502      16.840  25.259 108.825  0.00  0.00     0.206 C 
ATOM     33  O1  IDS d 502      14.783  24.073 112.272  0.00  0.00    -0.368 OA
ATOM     34  C3  IDS d 502      16.895  22.190 111.230  0.00  0.00     0.094 C 
ATOM     35  O3S IDS d 502      19.088  22.483 114.918  0.00  0.00    -0.572 OA
ATOM     36  O5  IDS d 502      16.634  25.039 111.223  0.00  0.00    -0.340 OA
ATOM     37  C2  IDS d 502      16.886  23.011 112.522  0.00  0.00     0.134 C 
ATOM     38  O4  IDS d 502      18.695  23.367 110.145  0.00  0.00    -0.348 OA
ATOM     39  O1S IDS d 502      18.947  20.991 113.061  0.00  0.00    -0.572 OA
ATOM     40  C5  IDS d 502      16.514  24.344 109.998  0.00  0.00     0.152 C 
ATOM     41  H   IDS d 502      15.565  21.192 110.186  0.00  0.00     0.210 HD
ATOM     42  H   IDS d 502      17.164  22.507 109.126  0.00  0.00     0.092 H 
ATOM     43  H   IDS d 502      16.345  24.982 113.182  0.00  0.00     0.133 H 
ATOM     44  H   IDS d 502      14.607  23.492 111.515  0.00  0.00     0.212 HD
ATOM     45  H   IDS d 502      17.588  21.381 111.331  0.00  0.00     0.091 H 
ATOM     46  H   IDS d 502      16.381  22.454 113.283  0.00  0.00     0.097 H 
ATOM     47  H   IDS d 502      15.498  24.042 109.854  0.00  0.00     0.104 H 
ATOM     48  S2  SGN d 505      31.999  25.501 112.322  0.00  0.00     0.251 S 
ATOM     49  O6  SGN d 505      30.939  26.267 111.545  0.00  0.00    -0.254 OA
ATOM     50  O5S SGN d 505      31.714  25.790 113.705  0.00  0.00    -0.572 OA
ATOM     51  C6  SGN d 505      29.921  25.736 110.766  0.00  0.00     0.067 C 
ATOM     52  O2S SGN d 505      28.123  32.384 112.052  0.00  0.00    -0.296 OA
ATOM     53  S1  SGN d 505      26.917  31.593 111.984  0.00  0.00     0.156 S 
ATOM     54  O6S SGN d 505      31.826  24.092 111.999  0.00  0.00    -0.572 OA
ATOM     55  O4  SGN d 505      30.478  27.422 108.659  0.00  0.00    -0.348 OA
ATOM     56  O5  SGN d 505      28.482  27.340 111.606  0.00  0.00    -0.349 OA
ATOM     57  O4S SGN d 505      33.257  26.032 111.846  0.00  0.00    -0.572 OA
ATOM     58  C1  SGN d 505      27.509  28.331 111.433  0.00  0.00     0.150 C 
ATOM     59  O1S SGN d 505      26.756  30.731 113.136  0.00  0.00    -0.296 OA
ATOM     60  N   SGN d 505      27.120  30.611 110.641  0.00  0.00    -0.210 NA
ATOM     61  C3  SGN d 505      28.765  29.106 109.395  0.00  0.00     0.083 C 
ATOM     62  C2  SGN d 505      28.125  29.526 110.733  0.00  0.00     0.081 C 
ATOM     63  O3S SGN d 505      25.779  32.405 111.735  0.00  0.00    -0.296 OA
ATOM     64  C4  SGN d 505      29.808  28.008 109.755  0.00  0.00     0.095 C 
ATOM     65  C5  SGN d 505      29.053  26.899 110.412  0.00  0.00     0.091 C 
ATOM     66  O3  SGN d 505      29.409  30.239 108.827  0.00  0.00    -0.391 OA
ATOM     67  H   SGN d 505      29.366  25.008 111.320  0.00  0.00     0.080 H 
ATOM     68  H   SGN d 505      30.300  25.240 109.897  0.00  0.00     0.080 H 
ATOM     69  H   SGN d 505      28.881  31.803 112.223  0.00  0.00     0.231 HD
ATOM     70  H   SGN d 505      27.148  28.649 112.389  0.00  0.00     0.131 H 
ATOM     71  H   SGN d 505      27.560  30.201 113.259  0.00  0.00     0.231 HD
ATOM     72  H   SGN d 505      27.389  31.212 109.861  0.00  0.00     0.140 HD
ATOM     73  H   SGN d 505      28.050  28.737 108.689  0.00  0.00     0.089 H 
ATOM     74  H   SGN d 505      28.938  29.926 111.301  0.00  0.00     0.076 H 
ATOM     75  H   SGN d 505      25.942  32.959 110.956  0.00  0.00     0.231 HD
ATOM     76  H   SGN d 505      30.551  28.488 110.357  0.00  0.00     0.091 H 
ATOM     77  H   SGN d 505      28.314  26.594 109.699  0.00  0.00     0.090 H 
ATOM     78  H   SGN d 505      30.061  30.588 109.454  0.00  0.00     0.210 HD
ATOM     79  C6  SGN d 503      20.219  26.779 108.447  0.00  0.00     0.067 C 
ATOM     80  O6  SGN d 503      20.842  26.610 107.193  0.00  0.00    -0.254 OA
ATOM     81  C4  SGN d 503      21.724  24.945 109.406  0.00  0.00     0.095 C 
ATOM     82  O5  SGN d 503      19.569  24.580 108.372  0.00  0.00    -0.349 OA
ATOM     83  O4  SGN d 503      22.368  25.802 110.292  0.00  0.00    -0.348 OA
ATOM     84  S1  SGN d 503      20.450  20.100 108.696  0.00  0.00     0.156 S 
ATOM     85  O4S SGN d 503      20.062  28.688 106.246  0.00  0.00    -0.572 OA
ATOM     86  O2S SGN d 503      21.505  20.164 107.686  0.00  0.00    -0.296 OA
ATOM     87  C3  SGN d 503      21.685  23.550 110.024  0.00  0.00     0.083 C 
ATOM     88  S2  SGN d 503      20.474  27.372 105.892  0.00  0.00     0.251 S 
ATOM     89  O5S SGN d 503      21.666  27.382 105.050  0.00  0.00    -0.572 OA
ATOM     90  C1  SGN d 503      19.414  23.305 108.944  0.00  0.00     0.150 C 
ATOM     91  O1S SGN d 503      19.131  20.275 108.117  0.00  0.00    -0.296 OA
ATOM     92  O6S SGN d 503      19.382  26.644 105.374  0.00  0.00    -0.572 OA
ATOM     93  C2  SGN d 503      20.795  22.671 109.164  0.00  0.00     0.081 C 
ATOM     94  N   SGN d 503      20.659  21.340 109.729  0.00  0.00    -0.210 NA
ATOM     95  O3  SGN d 503      23.003  23.036 110.036  0.00  0.00    -0.391 OA
ATOM     96  C5  SGN d 503      20.294  25.461 109.171  0.00  0.00     0.091 C 
ATOM     97  O3S SGN d 503      20.529  18.938 109.552  0.00  0.00    -0.296 OA
ATOM     98  H   SGN d 503      20.728  27.534 109.009  0.00  0.00     0.080 H 
ATOM     99  H   SGN d 503      19.201  27.083 108.324  0.00  0.00     0.080 H 
ATOM    100  H   SGN d 503      22.243  24.905 108.471  0.00  0.00     0.091 H 
ATOM    101  H   SGN d 503      21.391  20.965 107.150  0.00  0.00     0.231 HD
ATOM    102  H   SGN d 503      21.299  23.579 111.022  0.00  0.00     0.089 H 
ATOM    103  H   SGN d 503      18.850  22.694 108.271  0.00  0.00     0.131 H 
ATOM    104  H   SGN d 503      19.128  21.064 107.553  0.00  0.00     0.231 HD
ATOM    105  H   SGN d 503      21.272  22.582 108.210  0.00  0.00     0.076 H 
ATOM    106  H   SGN d 503      21.505  21.150 110.267  0.00  0.00     0.140 HD
ATOM    107  H   SGN d 503      23.349  23.010 109.130  0.00  0.00     0.210 HD
ATOM    108  H   SGN d 503      19.900  25.564 110.161  0.00  0.00     0.090 H 
ATOM    109  H   SGN d 503      19.802  18.960 110.194  0.00  0.00     0.231 HD
ATOM    110  O61 IDS d 504      26.995  24.810 109.344  0.00  0.00    -0.646 OA
ATOM    111  O62 IDS d 504      26.835  24.006 111.283  0.00  0.00    -0.646 OA
ATOM    112  O3S IDS d 504      21.868  29.978 109.260  0.00  0.00    -0.572 OA
ATOM    113  S   IDS d 504      23.238  30.311 109.379  0.00  0.00     0.252 S 
ATOM    114  C6  IDS d 504      26.419  24.786 110.424  0.00  0.00     0.206 C 
ATOM    115  O3  IDS d 504      23.572  26.948 112.764  0.00  0.00    -0.390 OA
ATOM    116  C1  IDS d 504      23.288  26.662 109.686  0.00  0.00     0.161 C 
ATOM    117  O2  IDS d 504      23.911  28.965 109.702  0.00  0.00    -0.244 OA
ATOM    118  C5  IDS d 504      25.228  25.717 110.705  0.00  0.00     0.152 C 
ATOM    119  C4  IDS d 504      25.567  26.984 111.489  0.00  0.00     0.103 C 
ATOM    120  O5  IDS d 504      24.571  26.053 109.505  0.00  0.00    -0.340 OA
ATOM    121  O4  IDS d 504      26.415  27.823 110.719  0.00  0.00    -0.348 OA
ATOM    122  C2  IDS d 504      23.385  27.923 110.521  0.00  0.00     0.134 C 
ATOM    123  O1S IDS d 504      23.482  31.157 110.490  0.00  0.00    -0.572 OA
ATOM    124  O2S IDS d 504      23.841  30.822 108.183  0.00  0.00    -0.572 OA
ATOM    125  C3  IDS d 504      24.278  27.727 111.806  0.00  0.00     0.094 C 
ATOM    126  H   IDS d 504      24.123  26.828 113.553  0.00  0.00     0.210 HD
ATOM    127  H   IDS d 504      22.942  26.901 108.702  0.00  0.00     0.133 H 
ATOM    128  H   IDS d 504      24.581  25.152 111.343  0.00  0.00     0.104 H 
ATOM    129  H   IDS d 504      26.071  26.716 112.394  0.00  0.00     0.092 H 
ATOM    130  H   IDS d 504      22.406  28.176 110.871  0.00  0.00     0.097 H 
ATOM    131  H   IDS d 504      24.509  28.702 112.181  0.00  0.00     0.091 H 
ENDROOT
TORSDOF 40
ENDMDL
MODEL 67
REMARK VINA RESULT:      -8.5      5.201      9.789
REMARK  0 active torsions:
REMARK  status: ('A' for Active; 'I' for Inactive)
REMARK       I    between atoms: C6_1  and  C5_82 
REMARK       I    between atoms: O2_4  and  C2_65 
REMARK       I    between atoms: O2_4  and  S_6 
REMARK       I    between atoms: S2_5  and  O6_13 
REMARK       I    between atoms: C6_7  and  C5_66 
REMARK       I    between atoms: C6_7  and  O6_11 
REMARK       I    between atoms: S_8  and  O2_37 
REMARK       I    between atoms: O6_11  and  S2_34 
REMARK       I    between atoms: O6_13  and  C6_16 
REMARK       I    between atoms: C6_16  and  C5_76 
REMARK       I    between atoms: O2S_17  and  S1_21 
REMARK       I    between atoms: O4_18  and  C4_33 
REMARK       I    between atoms: C4_19  and  O4_25 
REMARK       I    between atoms: O3_20  and  C3_57 
REMARK       I    between atoms: S1_21  and  N_56 
REMARK       I    between atoms: S1_21  and  O1S_55 
REMARK       I    between atoms: S1_21  and  O3S_68 
REMARK       I    between atoms: O3_24  and  C3_80 
REMARK       I    between atoms: O4_25  and  C1_53 
REMARK       I    between atoms: S1_26  and  N_59 
REMARK       I    between atoms: S1_26  and  O1S_42 
REMARK       I    between atoms: S1_26  and  O2S_29 
REMARK       I    between atoms: S1_26  and  O3S_87 
REMARK       I    between atoms: S_30  and  O2_54 
REMARK       I    between atoms: C3_31  and  O3_61 
REMARK       I    between atoms: O4_36  and  C4_70 
REMARK       I    between atoms: O4_36  and  C1_52 
REMARK       I    between atoms: O2_37  and  C2_45 
REMARK       I    between atoms: C4_38  and  O4_71 
REMARK       I    between atoms: C1_39  and  O1_51 
REMARK       I    between atoms: C1_40  and  O4_71 
REMARK       I    between atoms: C6_46  and  C5_84 
REMARK       I    between atoms: C6_47  and  C5_64 
REMARK       I    between atoms: C1_48  and  O4_77 
REMARK       I    between atoms: O3_50  and  C3_86 
REMARK       I    between atoms: O2_54  and  C2_79 
REMARK       I    between atoms: N_56  and  C2_67 
REMARK       I    between atoms: C2_58  and  N_59 
REMARK       I    between atoms: C3_62  and  O3_81 
REMARK       I    between atoms: C4_69  and  O4_77 
ROOT
ATOM      1  C6  IDS d 506      15.774  28.639 107.459  0.00  0.00     0.206 C 
ATOM      2  O62 IDS d 506      15.046  28.894 106.515  0.00  0.00    -0.646 OA
ATOM      3  S   IDS d 506      20.415  32.381 109.411  0.00  0.00     0.252 S 
ATOM      4  O1S IDS d 506      20.360  32.993 108.119  0.00  0.00    -0.572 OA
ATOM      5  O3S IDS d 506      21.755  32.010 109.810  0.00  0.00    -0.572 OA
ATOM      6  O4  IDS d 506      17.029  31.361 107.594  0.00  0.00    -0.390 OA
ATOM      7  O3  IDS d 506      19.796  29.894 105.857  0.00  0.00    -0.390 OA
ATOM      8  C4  IDS d 506      17.647  30.331 106.859  0.00  0.00     0.097 C 
ATOM      9  O2  IDS d 506      19.623  31.013 109.254  0.00  0.00    -0.244 OA
ATOM     10  C2  IDS d 506      19.797  30.008 108.274  0.00  0.00     0.134 C 
ATOM     11  C1  IDS d 506      19.166  28.691 108.749  0.00  0.00     0.161 C 
ATOM     12  O2S IDS d 506      19.733  33.181 110.389  0.00  0.00    -0.572 OA
ATOM     13  O5  IDS d 506      17.769  28.837 108.729  0.00  0.00    -0.340 OA
ATOM     14  O61 IDS d 506      15.281  28.084 108.431  0.00  0.00    -0.646 OA
ATOM     15  C3  IDS d 506      19.172  30.549 106.958  0.00  0.00     0.094 C 
ATOM     16  C5  IDS d 506      17.255  28.970 107.445  0.00  0.00     0.152 C 
ATOM     17  H   IDS d 506      17.279  32.221 107.220  0.00  0.00     0.210 HD
ATOM     18  H   IDS d 506      19.416  30.222 105.028  0.00  0.00     0.210 HD
ATOM     19  H   IDS d 506      17.337  30.346 105.835  0.00  0.00     0.091 H 
ATOM     20  H   IDS d 506      20.830  29.786 108.101  0.00  0.00     0.097 H 
ATOM     21  H   IDS d 506      19.475  27.885 108.118  0.00  0.00     0.133 H 
ATOM     22  H   IDS d 506      19.336  31.607 106.947  0.00  0.00     0.091 H 
ATOM     23  H   IDS d 506      17.686  28.264 106.767  0.00  0.00     0.104 H 
ATOM     24  O62 IDS d 502      28.802  19.411 104.404  0.00  0.00    -0.646 OA
ATOM     25  O2  IDS d 502      29.576  19.262 109.998  0.00  0.00    -0.244 OA
ATOM     26  S   IDS d 502      29.891  20.262 111.159  0.00  0.00     0.252 S 
ATOM     27  O3  IDS d 502      32.207  18.762 107.615  0.00  0.00    -0.390 OA
ATOM     28  O2S IDS d 502      28.831  21.243 111.132  0.00  0.00    -0.572 OA
ATOM     29  C4  IDS d 502      30.122  19.868 107.146  0.00  0.00     0.103 C 
ATOM     30  C1  IDS d 502      29.716  17.377 108.567  0.00  0.00     0.158 C 
ATOM     31  O61 IDS d 502      27.261  18.706 105.599  0.00  0.00    -0.646 OA
ATOM     32  C6  IDS d 502      28.438  18.931 105.460  0.00  0.00     0.206 C 
ATOM     33  O1  IDS d 502      30.650  16.478 108.030  0.00  0.00    -0.368 OA
ATOM     34  C3  IDS d 502      31.134  19.448 108.229  0.00  0.00     0.094 C 
ATOM     35  O3S IDS d 502      29.901  19.451 112.349  0.00  0.00    -0.572 OA
ATOM     36  O5  IDS d 502      28.828  17.876 107.598  0.00  0.00    -0.340 OA
ATOM     37  C2  IDS d 502      30.487  18.504 109.247  0.00  0.00     0.134 C 
ATOM     38  O4  IDS d 502      29.156  20.719 107.707  0.00  0.00    -0.348 OA
ATOM     39  O1S IDS d 502      31.177  20.839 110.887  0.00  0.00    -0.572 OA
ATOM     40  C5  IDS d 502      29.436  18.632 106.570  0.00  0.00     0.152 C 
ATOM     41  H   IDS d 502      32.632  19.342 106.965  0.00  0.00     0.210 HD
ATOM     42  H   IDS d 502      30.640  20.382 106.363  0.00  0.00     0.092 H 
ATOM     43  H   IDS d 502      29.104  16.861 109.277  0.00  0.00     0.133 H 
ATOM     44  H   IDS d 502      31.208  16.940 107.384  0.00  0.00     0.212 HD
ATOM     45  H   IDS d 502      31.474  20.329 108.733  0.00  0.00     0.091 H 
ATOM     46  H   IDS d 502      31.254  18.066 109.850  0.00  0.00     0.097 H 
ATOM     47  H   IDS d 502      30.213  18.055 106.112  0.00  0.00     0.104 H 
ATOM     48  S2  SGN d 505      20.564  29.018 114.311  0.00  0.00     0.251 S 
ATOM     49  O6  SGN d 505      20.424  28.158 113.064  0.00  0.00    -0.254 OA
ATOM     50  O5S SGN d 505      20.519  28.080 115.406  0.00  0.00    -0.572 OA
ATOM     51  C6  SGN d 505      21.371  27.957 112.072  0.00  0.00     0.067 C 
ATOM     52  O2S SGN d 505      16.655  22.829 111.331  0.00  0.00    -0.296 OA
ATOM     53  S1  SGN d 505      17.951  22.310 110.961  0.00  0.00     0.156 S 
ATOM     54  O6S SGN d 505      21.848  29.699 114.214  0.00  0.00    -0.572 OA
ATOM     55  O4  SGN d 505      19.557  28.454 110.059  0.00  0.00    -0.348 OA
ATOM     56  O5  SGN d 505      20.772  25.725 111.994  0.00  0.00    -0.349 OA
ATOM     57  O4S SGN d 505      19.444  29.930 114.257  0.00  0.00    -0.572 OA
ATOM     58  C1  SGN d 505      20.418  24.570 111.287  0.00  0.00     0.150 C 
ATOM     59  O1S SGN d 505      18.818  22.120 112.104  0.00  0.00    -0.296 OA
ATOM     60  N   SGN d 505      18.634  23.502 110.000  0.00  0.00    -0.210 NA
ATOM     61  C3  SGN d 505      19.026  26.015 109.769  0.00  0.00     0.083 C 
ATOM     62  C2  SGN d 505      19.049  24.760 110.663  0.00  0.00     0.081 C 
ATOM     63  O3S SGN d 505      17.832  21.147 110.155  0.00  0.00    -0.296 OA
ATOM     64  C4  SGN d 505      19.443  27.197 110.692  0.00  0.00     0.095 C 
ATOM     65  C5  SGN d 505      20.808  26.876 111.207  0.00  0.00     0.091 C 
ATOM     66  O3  SGN d 505      17.702  26.202 109.287  0.00  0.00    -0.391 OA
ATOM     67  H   SGN d 505      22.303  27.649 112.499  0.00  0.00     0.080 H 
ATOM     68  H   SGN d 505      21.566  28.851 111.518  0.00  0.00     0.080 H 
ATOM     69  H   SGN d 505      16.769  23.621 111.880  0.00  0.00     0.231 HD
ATOM     70  H   SGN d 505      20.370  23.738 111.959  0.00  0.00     0.131 H 
ATOM     71  H   SGN d 505      18.863  22.943 112.617  0.00  0.00     0.231 HD
ATOM     72  H   SGN d 505      17.950  23.746 109.283  0.00  0.00     0.140 HD
ATOM     73  H   SGN d 505      19.682  25.938 108.926  0.00  0.00     0.089 H 
ATOM     74  H   SGN d 505      18.311  24.956 111.411  0.00  0.00     0.076 H 
ATOM     75  H   SGN d 505      17.243  21.331 109.407  0.00  0.00     0.231 HD
ATOM     76  H   SGN d 505      18.674  27.285 111.430  0.00  0.00     0.091 H 
ATOM     77  H   SGN d 505      21.421  26.753 110.338  0.00  0.00     0.090 H 
ATOM     78  H   SGN d 505      17.092  26.273 110.037  0.00  0.00     0.210 HD
ATOM     79  C6  SGN d 503      25.382  20.957 106.112  0.00  0.00     0.067 C 
ATOM     80  O6  SGN d 503      25.155  22.043 105.240  0.00  0.00    -0.254 OA
ATOM     81  C4  SGN d 503      26.215  22.599 107.889  0.00  0.00     0.095 C 
ATOM     82  O5  SGN d 503      27.596  21.549 106.204  0.00  0.00    -0.349 OA
ATOM     83  O4  SGN d 503      25.185  22.310 108.778  0.00  0.00    -0.348 OA
ATOM     84  S1  SGN d 503      30.992  24.251 107.658  0.00  0.00     0.156 S 
ATOM     85  O4S SGN d 503      23.740  20.836 103.703  0.00  0.00    -0.572 OA
ATOM     86  O2S SGN d 503      30.353  25.456 107.129  0.00  0.00    -0.296 OA
ATOM     87  C3  SGN d 503      27.455  22.983 108.693  0.00  0.00     0.083 C 
ATOM     88  S2  SGN d 503      24.640  21.936 103.780  0.00  0.00     0.251 S 
ATOM     89  O5S SGN d 503      23.984  23.201 103.464  0.00  0.00    -0.572 OA
ATOM     90  C1  SGN d 503      28.790  21.805 106.901  0.00  0.00     0.150 C 
ATOM     91  O1S SGN d 503      31.498  23.395 106.603  0.00  0.00    -0.296 OA
ATOM     92  O6S SGN d 503      25.805  21.663 103.032  0.00  0.00    -0.572 OA
ATOM     93  C2  SGN d 503      28.631  23.082 107.738  0.00  0.00     0.081 C 
ATOM     94  N   SGN d 503      29.863  23.383 108.446  0.00  0.00    -0.210 NA
ATOM     95  O3  SGN d 503      27.217  24.240 109.296  0.00  0.00    -0.391 OA
ATOM     96  C5  SGN d 503      26.500  21.347 107.040  0.00  0.00     0.091 C 
ATOM     97  O3S SGN d 503      31.980  24.515 108.680  0.00  0.00    -0.296 OA
ATOM     98  H   SGN d 503      24.495  20.750 106.675  0.00  0.00     0.080 H 
ATOM     99  H   SGN d 503      25.641  20.078 105.559  0.00  0.00     0.080 H 
ATOM    100  H   SGN d 503      25.945  23.408 107.243  0.00  0.00     0.091 H 
ATOM    101  H   SGN d 503      29.705  25.206 106.451  0.00  0.00     0.231 HD
ATOM    102  H   SGN d 503      27.669  22.255 109.447  0.00  0.00     0.089 H 
ATOM    103  H   SGN d 503      29.577  21.947 106.189  0.00  0.00     0.131 H 
ATOM    104  H   SGN d 503      30.802  23.248 105.944  0.00  0.00     0.231 HD
ATOM    105  H   SGN d 503      28.424  23.891 107.070  0.00  0.00     0.076 H 
ATOM    106  H   SGN d 503      29.612  23.900 109.288  0.00  0.00     0.140 HD
ATOM    107  H   SGN d 503      27.024  24.897 108.610  0.00  0.00     0.210 HD
ATOM    108  H   SGN d 503      26.655  20.581 107.771  0.00  0.00     0.090 H 
ATOM    109  H   SGN d 503      32.361  23.676 108.984  0.00  0.00     0.231 HD
ATOM    110  O61 IDS d 504      23.615  26.747 109.847  0.00  0.00    -0.646 OA
ATOM    111  O62 IDS d 504      24.462  26.200 111.695  0.00  0.00    -0.646 OA
ATOM    112  O3S IDS d 504      21.826  20.343 106.881  0.00  0.00    -0.572 OA
ATOM    113  S   IDS d 504      20.840  21.187 107.445  0.00  0.00     0.252 S 
ATOM    114  C6  IDS d 504      23.974  25.863 110.614  0.00  0.00     0.206 C 
ATOM    115  O3  IDS d 504      23.683  21.649 111.263  0.00  0.00    -0.390 OA
ATOM    116  C1  IDS d 504      23.950  22.857 108.416  0.00  0.00     0.161 C 
ATOM    117  O2  IDS d 504      21.659  22.220 108.241  0.00  0.00    -0.244 OA
ATOM    118  C5  IDS d 504      23.802  24.379 110.248  0.00  0.00     0.152 C 
ATOM    119  C4  IDS d 504      22.574  23.701 110.853  0.00  0.00     0.103 C 
ATOM    120  O5  IDS d 504      23.804  24.214 108.848  0.00  0.00    -0.340 OA
ATOM    121  O4  IDS d 504      21.388  24.272 110.320  0.00  0.00    -0.348 OA
ATOM    122  C2  IDS d 504      22.855  21.974 108.978  0.00  0.00     0.134 C 
ATOM    123  O1S IDS d 504      20.034  20.502 108.388  0.00  0.00    -0.572 OA
ATOM    124  O2S IDS d 504      20.044  21.905 106.493  0.00  0.00    -0.572 OA
ATOM    125  C3  IDS d 504      22.614  22.218 110.517  0.00  0.00     0.094 C 
ATOM    126  H   IDS d 504      23.533  21.801 112.210  0.00  0.00     0.210 HD
ATOM    127  H   IDS d 504      23.885  22.887 107.348  0.00  0.00     0.133 H 
ATOM    128  H   IDS d 504      24.644  23.887 110.687  0.00  0.00     0.104 H 
ATOM    129  H   IDS d 504      22.579  23.839 111.914  0.00  0.00     0.092 H 
ATOM    130  H   IDS d 504      23.156  20.952 108.879  0.00  0.00     0.097 H 
ATOM    131  H   IDS d 504      21.675  21.769 110.764  0.00  0.00     0.091 H 
ENDROOT
TORSDOF 40
ENDMDL
MODEL 68
REMARK VINA RESULT:      -8.4      6.095      9.241
REMARK  0 active torsions:
REMARK  status: ('A' for Active; 'I' for Inactive)
REMARK       I    between atoms: C6_1  and  C5_82 
REMARK       I    between atoms: O2_4  and  C2_65 
REMARK       I    between atoms: O2_4  and  S_6 
REMARK       I    between atoms: S2_5  and  O6_13 
REMARK       I    between atoms: C6_7  and  C5_66 
REMARK       I    between atoms: C6_7  and  O6_11 
REMARK       I    between atoms: S_8  and  O2_37 
REMARK       I    between atoms: O6_11  and  S2_34 
REMARK       I    between atoms: O6_13  and  C6_16 
REMARK       I    between atoms: C6_16  and  C5_76 
REMARK       I    between atoms: O2S_17  and  S1_21 
REMARK       I    between atoms: O4_18  and  C4_33 
REMARK       I    between atoms: C4_19  and  O4_25 
REMARK       I    between atoms: O3_20  and  C3_57 
REMARK       I    between atoms: S1_21  and  N_56 
REMARK       I    between atoms: S1_21  and  O1S_55 
REMARK       I    between atoms: S1_21  and  O3S_68 
REMARK       I    between atoms: O3_24  and  C3_80 
REMARK       I    between atoms: O4_25  and  C1_53 
REMARK       I    between atoms: S1_26  and  N_59 
REMARK       I    between atoms: S1_26  and  O1S_42 
REMARK       I    between atoms: S1_26  and  O2S_29 
REMARK       I    between atoms: S1_26  and  O3S_87 
REMARK       I    between atoms: S_30  and  O2_54 
REMARK       I    between atoms: C3_31  and  O3_61 
REMARK       I    between atoms: O4_36  and  C4_70 
REMARK       I    between atoms: O4_36  and  C1_52 
REMARK       I    between atoms: O2_37  and  C2_45 
REMARK       I    between atoms: C4_38  and  O4_71 
REMARK       I    between atoms: C1_39  and  O1_51 
REMARK       I    between atoms: C1_40  and  O4_71 
REMARK       I    between atoms: C6_46  and  C5_84 
REMARK       I    between atoms: C6_47  and  C5_64 
REMARK       I    between atoms: C1_48  and  O4_77 
REMARK       I    between atoms: O3_50  and  C3_86 
REMARK       I    between atoms: O2_54  and  C2_79 
REMARK       I    between atoms: N_56  and  C2_67 
REMARK       I    between atoms: C2_58  and  N_59 
REMARK       I    between atoms: C3_62  and  O3_81 
REMARK       I    between atoms: C4_69  and  O4_77 
ROOT
ATOM      1  C6  IDS d 506      27.167  18.044 106.347  0.00  0.00     0.206 C 
ATOM      2  O62 IDS d 506      27.967  17.973 105.430  0.00  0.00    -0.646 OA
ATOM      3  S   IDS d 506      21.000  17.096 105.692  0.00  0.00     0.252 S 
ATOM      4  O1S IDS d 506      21.190  17.341 104.295  0.00  0.00    -0.572 OA
ATOM      5  O3S IDS d 506      19.913  17.862 106.261  0.00  0.00    -0.572 OA
ATOM      6  O4  IDS d 506      24.871  16.871 104.812  0.00  0.00    -0.390 OA
ATOM      7  O3  IDS d 506      23.754  20.248 104.394  0.00  0.00    -0.390 OA
ATOM      8  C4  IDS d 506      25.042  18.267 104.875  0.00  0.00     0.097 C 
ATOM      9  O2  IDS d 506      22.318  17.646 106.389  0.00  0.00    -0.244 OA
ATOM     10  C2  IDS d 506      22.929  18.911 106.234  0.00  0.00     0.134 C 
ATOM     11  C1  IDS d 506      23.886  19.183 107.404  0.00  0.00     0.161 C 
ATOM     12  O2S IDS d 506      20.906  15.690 105.961  0.00  0.00    -0.572 OA
ATOM     13  O5  IDS d 506      25.000  18.337 107.270  0.00  0.00    -0.340 OA
ATOM     14  O61 IDS d 506      27.514  17.632 107.445  0.00  0.00    -0.646 OA
ATOM     15  C3  IDS d 506      23.636  18.903 104.850  0.00  0.00     0.094 C 
ATOM     16  C5  IDS d 506      25.784  18.640 106.163  0.00  0.00     0.152 C 
ATOM     17  H   IDS d 506      24.402  16.639 103.995  0.00  0.00     0.210 HD
ATOM     18  H   IDS d 506      24.195  20.259 103.530  0.00  0.00     0.210 HD
ATOM     19  H   IDS d 506      25.624  18.623 104.050  0.00  0.00     0.091 H 
ATOM     20  H   IDS d 506      22.217  19.710 106.255  0.00  0.00     0.097 H 
ATOM     21  H   IDS d 506      24.186  20.210 107.404  0.00  0.00     0.133 H 
ATOM     22  H   IDS d 506      23.036  18.304 104.197  0.00  0.00     0.091 H 
ATOM     23  H   IDS d 506      25.951  19.693 106.069  0.00  0.00     0.104 H 
ATOM     24  O62 IDS d 502      21.293  32.790 109.849  0.00  0.00    -0.646 OA
ATOM     25  O2  IDS d 502      18.918  30.387 114.376  0.00  0.00    -0.244 OA
ATOM     26  S   IDS d 502      17.841  29.296 114.688  0.00  0.00     0.252 S 
ATOM     27  O3  IDS d 502      17.696  33.393 112.852  0.00  0.00    -0.390 OA
ATOM     28  O2S IDS d 502      18.305  28.089 114.044  0.00  0.00    -0.572 OA
ATOM     29  C4  IDS d 502      19.106  31.776 111.762  0.00  0.00     0.103 C 
ATOM     30  C1  IDS d 502      20.090  32.448 114.403  0.00  0.00     0.158 C 
ATOM     31  O61 IDS d 502      22.513  31.789 111.193  0.00  0.00    -0.646 OA
ATOM     32  C6  IDS d 502      21.471  32.355 110.970  0.00  0.00     0.206 C 
ATOM     33  O1  IDS d 502      19.875  33.826 114.547  0.00  0.00    -0.368 OA
ATOM     34  C3  IDS d 502      18.096  32.037 112.896  0.00  0.00     0.094 C 
ATOM     35  O3S IDS d 502      17.808  29.212 116.125  0.00  0.00    -0.572 OA
ATOM     36  O5  IDS d 502      20.925  32.142 113.314  0.00  0.00    -0.340 OA
ATOM     37  C2  IDS d 502      18.729  31.772 114.265  0.00  0.00     0.134 C 
ATOM     38  O4  IDS d 502      19.361  30.399 111.665  0.00  0.00    -0.348 OA
ATOM     39  O1S IDS d 502      16.595  29.760 114.145  0.00  0.00    -0.572 OA
ATOM     40  C5  IDS d 502      20.411  32.515 112.050  0.00  0.00     0.152 C 
ATOM     41  H   IDS d 502      17.292  33.583 111.992  0.00  0.00     0.210 HD
ATOM     42  H   IDS d 502      18.696  32.130 110.839  0.00  0.00     0.092 H 
ATOM     43  H   IDS d 502      20.603  32.081 115.267  0.00  0.00     0.133 H 
ATOM     44  H   IDS d 502      19.410  34.165 113.766  0.00  0.00     0.212 HD
ATOM     45  H   IDS d 502      17.261  31.381 112.761  0.00  0.00     0.091 H 
ATOM     46  H   IDS d 502      18.086  32.163 115.025  0.00  0.00     0.097 H 
ATOM     47  H   IDS d 502      20.161  33.555 112.057  0.00  0.00     0.104 H 
ATOM     48  S2  SGN d 505      20.789  16.824 111.627  0.00  0.00     0.251 S 
ATOM     49  O6  SGN d 505      21.685  17.964 111.166  0.00  0.00    -0.254 OA
ATOM     50  O5S SGN d 505      20.889  16.843 113.065  0.00  0.00    -0.572 OA
ATOM     51  C6  SGN d 505      21.298  19.130 110.524  0.00  0.00     0.067 C 
ATOM     52  O2S SGN d 505      27.750  20.312 112.984  0.00  0.00    -0.296 OA
ATOM     53  S1  SGN d 505      27.011  21.552 113.034  0.00  0.00     0.156 S 
ATOM     54  O6S SGN d 505      19.443  17.128 111.158  0.00  0.00    -0.572 OA
ATOM     55  O4  SGN d 505      23.244  18.867 108.591  0.00  0.00    -0.348 OA
ATOM     56  O5  SGN d 505      22.809  20.309 111.817  0.00  0.00    -0.349 OA
ATOM     57  O4S SGN d 505      21.344  15.644 111.003  0.00  0.00    -0.572 OA
ATOM     58  C1  SGN d 505      23.842  21.243 111.958  0.00  0.00     0.150 C 
ATOM     59  O1S SGN d 505      26.001  21.552 114.072  0.00  0.00    -0.296 OA
ATOM     60  N   SGN d 505      26.220  21.644 111.559  0.00  0.00    -0.210 NA
ATOM     61  C3  SGN d 505      24.857  20.330 109.845  0.00  0.00     0.083 C 
ATOM     62  C2  SGN d 505      25.105  20.698 111.321  0.00  0.00     0.081 C 
ATOM     63  O3S SGN d 505      27.882  22.671 113.108  0.00  0.00    -0.296 OA
ATOM     64  C4  SGN d 505      23.691  19.299 109.859  0.00  0.00     0.095 C 
ATOM     65  C5  SGN d 505      22.523  19.985 110.491  0.00  0.00     0.091 C 
ATOM     66  O3  SGN d 505      26.040  19.738 109.323  0.00  0.00    -0.391 OA
ATOM     67  H   SGN d 505      20.515  19.616 111.069  0.00  0.00     0.080 H 
ATOM     68  H   SGN d 505      20.917  18.939 109.542  0.00  0.00     0.080 H 
ATOM     69  H   SGN d 505      27.129  19.568 112.934  0.00  0.00     0.231 HD
ATOM     70  H   SGN d 505      24.034  21.411 112.998  0.00  0.00     0.131 H 
ATOM     71  H   SGN d 505      25.437  20.768 113.974  0.00  0.00     0.231 HD
ATOM     72  H   SGN d 505      26.916  21.486 110.830  0.00  0.00     0.140 HD
ATOM     73  H   SGN d 505      24.611  21.178 109.240  0.00  0.00     0.089 H 
ATOM     74  H   SGN d 505      25.398  19.777 111.778  0.00  0.00     0.076 H 
ATOM     75  H   SGN d 505      28.534  22.620 112.392  0.00  0.00     0.231 HD
ATOM     76  H   SGN d 505      24.061  18.436 110.373  0.00  0.00     0.091 H 
ATOM     77  H   SGN d 505      22.342  20.853 109.892  0.00  0.00     0.090 H 
ATOM     78  H   SGN d 505      26.279  18.967 109.860  0.00  0.00     0.210 HD
ATOM     79  C6  SGN d 503      22.931  29.020 110.182  0.00  0.00     0.067 C 
ATOM     80  O6  SGN d 503      22.922  28.640 108.823  0.00  0.00    -0.254 OA
ATOM     81  C4  SGN d 503      20.939  27.469 110.598  0.00  0.00     0.095 C 
ATOM     82  O5  SGN d 503      20.784  29.790 109.937  0.00  0.00    -0.349 OA
ATOM     83  O4  SGN d 503      21.645  26.633 111.456  0.00  0.00    -0.348 OA
ATOM     84  S1  SGN d 503      16.280  29.107 109.500  0.00  0.00     0.156 S 
ATOM     85  O4S SGN d 503      25.133  29.464 108.319  0.00  0.00    -0.572 OA
ATOM     86  O2S SGN d 503      16.454  28.246 108.331  0.00  0.00    -0.296 OA
ATOM     87  C3  SGN d 503      19.473  27.473 111.023  0.00  0.00     0.083 C 
ATOM     88  S2  SGN d 503      23.868  29.192 107.725  0.00  0.00     0.251 S 
ATOM     89  O5S SGN d 503      23.962  28.170 106.687  0.00  0.00    -0.572 OA
ATOM     90  C1  SGN d 503      19.447  29.908 110.355  0.00  0.00     0.150 C 
ATOM     91  O1S SGN d 503      16.571  30.496 109.201  0.00  0.00    -0.296 OA
ATOM     92  O6S SGN d 503      23.251  30.396 107.325  0.00  0.00    -0.572 OA
ATOM     93  C2  SGN d 503      18.749  28.546 110.231  0.00  0.00     0.081 C 
ATOM     94  N   SGN d 503      17.357  28.651 110.632  0.00  0.00    -0.210 NA
ATOM     95  O3  SGN d 503      18.925  26.203 110.725  0.00  0.00    -0.391 OA
ATOM     96  C5  SGN d 503      21.524  28.888 110.699  0.00  0.00     0.091 C 
ATOM     97  O3S SGN d 503      15.008  28.939 110.166  0.00  0.00    -0.296 OA
ATOM     98  H   SGN d 503      23.585  28.379 110.736  0.00  0.00     0.080 H 
ATOM     99  H   SGN d 503      23.279  30.026 110.289  0.00  0.00     0.080 H 
ATOM    100  H   SGN d 503      21.015  27.128 109.586  0.00  0.00     0.091 H 
ATOM    101  H   SGN d 503      17.324  28.411 107.935  0.00  0.00     0.231 HD
ATOM    102  H   SGN d 503      19.373  27.672 112.069  0.00  0.00     0.089 H 
ATOM    103  H   SGN d 503      18.953  30.615 109.722  0.00  0.00     0.131 H 
ATOM    104  H   SGN d 503      17.431  30.558 108.756  0.00  0.00     0.231 HD
ATOM    105  H   SGN d 503      18.780  28.252 109.204  0.00  0.00     0.076 H 
ATOM    106  H   SGN d 503      17.069  27.735 110.975  0.00  0.00     0.140 HD
ATOM    107  H   SGN d 503      19.016  26.025 109.776  0.00  0.00     0.210 HD
ATOM    108  H   SGN d 503      21.498  29.094 111.749  0.00  0.00     0.090 H 
ATOM    109  H   SGN d 503      14.961  29.538 110.928  0.00  0.00     0.231 HD
ATOM    110  O61 IDS d 504      20.663  22.308 109.552  0.00  0.00    -0.646 OA
ATOM    111  O62 IDS d 504      19.602  22.163 111.365  0.00  0.00    -0.646 OA
ATOM    112  O3S IDS d 504      25.937  27.085 111.094  0.00  0.00    -0.572 OA
ATOM    113  S   IDS d 504      26.211  25.699 111.003  0.00  0.00     0.252 S 
ATOM    114  C6  IDS d 504      20.505  22.683 110.707  0.00  0.00     0.206 C 
ATOM    115  O3  IDS d 504      22.400  24.949 113.795  0.00  0.00    -0.390 OA
ATOM    116  C1  IDS d 504      22.555  25.790 110.810  0.00  0.00     0.161 C 
ATOM    117  O2  IDS d 504      24.814  25.052 111.016  0.00  0.00    -0.244 OA
ATOM    118  C5  IDS d 504      21.422  23.754 111.323  0.00  0.00     0.152 C 
ATOM    119  C4  IDS d 504      22.556  23.214 112.191  0.00  0.00     0.103 C 
ATOM    120  O5  IDS d 504      21.941  24.595 110.318  0.00  0.00    -0.340 OA
ATOM    121  O4  IDS d 504      23.470  22.472 111.396  0.00  0.00    -0.348 OA
ATOM    122  C2  IDS d 504      23.683  25.480 111.773  0.00  0.00     0.134 C 
ATOM    123  O1S IDS d 504      26.886  25.216 112.151  0.00  0.00    -0.572 OA
ATOM    124  O2S IDS d 504      26.866  25.292 109.794  0.00  0.00    -0.572 OA
ATOM    125  C3  IDS d 504      23.284  24.384 112.835  0.00  0.00     0.094 C 
ATOM    126  H   IDS d 504      22.156  24.274 114.446  0.00  0.00     0.210 HD
ATOM    127  H   IDS d 504      22.939  26.292 109.946  0.00  0.00     0.133 H 
ATOM    128  H   IDS d 504      20.792  24.306 111.988  0.00  0.00     0.104 H 
ATOM    129  H   IDS d 504      22.151  22.572 112.945  0.00  0.00     0.092 H 
ATOM    130  H   IDS d 504      23.913  26.366 112.327  0.00  0.00     0.097 H 
ATOM    131  H   IDS d 504      24.191  24.038 113.286  0.00  0.00     0.091 H 
ENDROOT
TORSDOF 40
ENDMDL
MODEL 69
REMARK VINA RESULT:      -8.4      3.730     12.419
REMARK  0 active torsions:
REMARK  status: ('A' for Active; 'I' for Inactive)
REMARK       I    between atoms: C6_1  and  C5_82 
REMARK       I    between atoms: O2_4  and  C2_65 
REMARK       I    between atoms: O2_4  and  S_6 
REMARK       I    between atoms: S2_5  and  O6_13 
REMARK       I    between atoms: C6_7  and  C5_66 
REMARK       I    between atoms: C6_7  and  O6_11 
REMARK       I    between atoms: S_8  and  O2_37 
REMARK       I    between atoms: O6_11  and  S2_34 
REMARK       I    between atoms: O6_13  and  C6_16 
REMARK       I    between atoms: C6_16  and  C5_76 
REMARK       I    between atoms: O2S_17  and  S1_21 
REMARK       I    between atoms: O4_18  and  C4_33 
REMARK       I    between atoms: C4_19  and  O4_25 
REMARK       I    between atoms: O3_20  and  C3_57 
REMARK       I    between atoms: S1_21  and  N_56 
REMARK       I    between atoms: S1_21  and  O1S_55 
REMARK       I    between atoms: S1_21  and  O3S_68 
REMARK       I    between atoms: O3_24  and  C3_80 
REMARK       I    between atoms: O4_25  and  C1_53 
REMARK       I    between atoms: S1_26  and  N_59 
REMARK       I    between atoms: S1_26  and  O1S_42 
REMARK       I    between atoms: S1_26  and  O2S_29 
REMARK       I    between atoms: S1_26  and  O3S_87 
REMARK       I    between atoms: S_30  and  O2_54 
REMARK       I    between atoms: C3_31  and  O3_61 
REMARK       I    between atoms: O4_36  and  C4_70 
REMARK       I    between atoms: O4_36  and  C1_52 
REMARK       I    between atoms: O2_37  and  C2_45 
REMARK       I    between atoms: C4_38  and  O4_71 
REMARK       I    between atoms: C1_39  and  O1_51 
REMARK       I    between atoms: C1_40  and  O4_71 
REMARK       I    between atoms: C6_46  and  C5_84 
REMARK       I    between atoms: C6_47  and  C5_64 
REMARK       I    between atoms: C1_48  and  O4_77 
REMARK       I    between atoms: O3_50  and  C3_86 
REMARK       I    between atoms: O2_54  and  C2_79 
REMARK       I    between atoms: N_56  and  C2_67 
REMARK       I    between atoms: C2_58  and  N_59 
REMARK       I    between atoms: C3_62  and  O3_81 
REMARK       I    between atoms: C4_69  and  O4_77 
ROOT
ATOM      1  C6  IDS d 506      32.310  30.552 105.616  0.00  0.00     0.206 C 
ATOM      2  O62 IDS d 506      32.628  31.072 104.560  0.00  0.00    -0.646 OA
ATOM      3  S   IDS d 506      32.297  24.357 106.601  0.00  0.00     0.252 S 
ATOM      4  O1S IDS d 506      32.265  24.209 105.179  0.00  0.00    -0.572 OA
ATOM      5  O3S IDS d 506      31.296  23.561 107.280  0.00  0.00    -0.572 OA
ATOM      6  O4  IDS d 506      33.270  27.806 104.880  0.00  0.00    -0.390 OA
ATOM      7  O3  IDS d 506      29.834  27.065 104.193  0.00  0.00    -0.390 OA
ATOM      8  C4  IDS d 506      31.924  28.167 104.672  0.00  0.00     0.097 C 
ATOM      9  O2  IDS d 506      31.891  25.869 106.869  0.00  0.00    -0.244 OA
ATOM     10  C2  IDS d 506      30.773  26.578 106.369  0.00  0.00     0.134 C 
ATOM     11  C1  IDS d 506      30.519  27.831 107.218  0.00  0.00     0.161 C 
ATOM     12  O2S IDS d 506      33.623  24.154 107.111  0.00  0.00    -0.572 OA
ATOM     13  O5  IDS d 506      31.549  28.754 106.965  0.00  0.00    -0.340 OA
ATOM     14  O61 IDS d 506      32.633  31.115 106.653  0.00  0.00    -0.646 OA
ATOM     15  C3  IDS d 506      31.073  26.896 104.877  0.00  0.00     0.094 C 
ATOM     16  C5  IDS d 506      31.521  29.257 105.670  0.00  0.00     0.152 C 
ATOM     17  H   IDS d 506      33.521  27.116 104.246  0.00  0.00     0.210 HD
ATOM     18  H   IDS d 506      30.005  27.264 103.260  0.00  0.00     0.210 HD
ATOM     19  H   IDS d 506      31.776  28.556 103.686  0.00  0.00     0.091 H 
ATOM     20  H   IDS d 506      29.872  26.004 106.427  0.00  0.00     0.097 H 
ATOM     21  H   IDS d 506      29.564  28.251 106.981  0.00  0.00     0.133 H 
ATOM     22  H   IDS d 506      31.641  26.075 104.491  0.00  0.00     0.091 H 
ATOM     23  H   IDS d 506      30.531  29.529 105.368  0.00  0.00     0.104 H 
ATOM     24  O62 IDS d 502      16.473  27.737 107.955  0.00  0.00    -0.646 OA
ATOM     25  O2  IDS d 502      17.861  26.323 113.245  0.00  0.00    -0.244 OA
ATOM     26  S   IDS d 502      18.711  25.232 113.976  0.00  0.00     0.252 S 
ATOM     27  O3  IDS d 502      14.910  25.147 111.585  0.00  0.00    -0.390 OA
ATOM     28  O2S IDS d 502      20.049  25.353 113.447  0.00  0.00    -0.572 OA
ATOM     29  C4  IDS d 502      16.861  26.007 110.470  0.00  0.00     0.103 C 
ATOM     30  C1  IDS d 502      16.036  27.718 112.657  0.00  0.00     0.158 C 
ATOM     31  O61 IDS d 502      17.486  29.123 109.117  0.00  0.00    -0.646 OA
ATOM     32  C6  IDS d 502      16.787  28.141 109.058  0.00  0.00     0.206 C 
ATOM     33  O1  IDS d 502      14.634  27.727 112.622  0.00  0.00    -0.368 OA
ATOM     34  C3  IDS d 502      16.297  25.367 111.753  0.00  0.00     0.094 C 
ATOM     35  O3S IDS d 502      18.607  25.561 115.374  0.00  0.00    -0.572 OA
ATOM     36  O5  IDS d 502      16.610  28.196 111.467  0.00  0.00    -0.340 OA
ATOM     37  C2  IDS d 502      16.489  26.292 112.958  0.00  0.00     0.134 C 
ATOM     38  O4  IDS d 502      18.263  26.048 110.542  0.00  0.00    -0.348 OA
ATOM     39  O1S IDS d 502      18.118  23.958 113.676  0.00  0.00    -0.572 OA
ATOM     40  C5  IDS d 502      16.319  27.426 110.317  0.00  0.00     0.152 C 
ATOM     41  H   IDS d 502      14.764  24.562 110.825  0.00  0.00     0.210 HD
ATOM     42  H   IDS d 502      16.563  25.421 109.625  0.00  0.00     0.092 H 
ATOM     43  H   IDS d 502      16.371  28.385 113.424  0.00  0.00     0.133 H 
ATOM     44  H   IDS d 502      14.324  27.124 111.928  0.00  0.00     0.212 HD
ATOM     45  H   IDS d 502      16.817  24.448 111.928  0.00  0.00     0.091 H 
ATOM     46  H   IDS d 502      15.905  25.923 113.774  0.00  0.00     0.097 H 
ATOM     47  H   IDS d 502      15.259  27.323 110.213  0.00  0.00     0.104 H 
ATOM     48  S2  SGN d 505      31.783  25.653 112.381  0.00  0.00     0.251 S 
ATOM     49  O6  SGN d 505      30.875  26.539 111.541  0.00  0.00    -0.254 OA
ATOM     50  O5S SGN d 505      31.600  26.123 113.731  0.00  0.00    -0.572 OA
ATOM     51  C6  SGN d 505      29.750  26.152 110.828  0.00  0.00     0.067 C 
ATOM     52  O2S SGN d 505      29.354  33.118 111.465  0.00  0.00    -0.296 OA
ATOM     53  S1  SGN d 505      28.013  32.584 111.486  0.00  0.00     0.156 S 
ATOM     54  O6S SGN d 505      31.322  24.283 112.201  0.00  0.00    -0.572 OA
ATOM     55  O4  SGN d 505      30.573  27.483 108.559  0.00  0.00    -0.348 OA
ATOM     56  O5  SGN d 505      28.685  28.086 111.517  0.00  0.00    -0.349 OA
ATOM     57  O4S SGN d 505      33.107  25.870 111.844  0.00  0.00    -0.572 OA
ATOM     58  C1  SGN d 505      27.925  29.232 111.256  0.00  0.00     0.150 C 
ATOM     59  O1S SGN d 505      27.715  31.885 112.719  0.00  0.00    -0.296 OA
ATOM     60  N   SGN d 505      27.977  31.458 110.245  0.00  0.00    -0.210 NA
ATOM     61  C3  SGN d 505      29.252  29.540 109.140  0.00  0.00     0.083 C 
ATOM     62  C2  SGN d 505      28.747  30.206 110.435  0.00  0.00     0.081 C 
ATOM     63  O3S SGN d 505      27.054  33.581 111.168  0.00  0.00    -0.296 OA
ATOM     64  C4  SGN d 505      30.065  28.294 109.598  0.00  0.00     0.095 C 
ATOM     65  C5  SGN d 505      29.122  27.427 110.367  0.00  0.00     0.091 C 
ATOM     66  O3  SGN d 505      30.093  30.461 108.457  0.00  0.00    -0.391 OA
ATOM     67  H   SGN d 505      29.077  25.607 111.456  0.00  0.00     0.080 H 
ATOM     68  H   SGN d 505      29.997  25.510 110.009  0.00  0.00     0.080 H 
ATOM     69  H   SGN d 505      29.986  32.415 111.686  0.00  0.00     0.231 HD
ATOM     70  H   SGN d 505      27.662  29.706 112.179  0.00  0.00     0.131 H 
ATOM     71  H   SGN d 505      28.401  31.219 112.887  0.00  0.00     0.231 HD
ATOM     72  H   SGN d 505      28.338  31.915 109.408  0.00  0.00     0.140 HD
ATOM     73  H   SGN d 505      28.458  29.257 108.480  0.00  0.00     0.089 H 
ATOM     74  H   SGN d 505      29.640  30.486 110.954  0.00  0.00     0.076 H 
ATOM     75  H   SGN d 505      27.302  34.014 110.336  0.00  0.00     0.231 HD
ATOM     76  H   SGN d 505      30.906  28.669 110.143  0.00  0.00     0.091 H 
ATOM     77  H   SGN d 505      28.317  27.211 109.695  0.00  0.00     0.090 H 
ATOM     78  H   SGN d 505      30.819  30.729 109.041  0.00  0.00     0.210 HD
ATOM     79  C6  SGN d 503      20.390  28.905 108.502  0.00  0.00     0.067 C 
ATOM     80  O6  SGN d 503      20.931  28.496 107.264  0.00  0.00    -0.254 OA
ATOM     81  C4  SGN d 503      21.525  26.905 109.624  0.00  0.00     0.095 C 
ATOM     82  O5  SGN d 503      19.312  26.886 108.649  0.00  0.00    -0.349 OA
ATOM     83  O4  SGN d 503      22.352  27.695 110.415  0.00  0.00    -0.348 OA
ATOM     84  S1  SGN d 503      19.288  22.372 109.407  0.00  0.00     0.156 S 
ATOM     85  O4S SGN d 503      20.555  30.588 106.124  0.00  0.00    -0.572 OA
ATOM     86  O2S SGN d 503      20.306  22.125 108.387  0.00  0.00    -0.296 OA
ATOM     87  C3  SGN d 503      21.225  25.611 110.377  0.00  0.00     0.083 C 
ATOM     88  S2  SGN d 503      20.686  29.189 105.898  0.00  0.00     0.251 S 
ATOM     89  O5S SGN d 503      21.832  28.878 105.049  0.00  0.00    -0.572 OA
ATOM     90  C1  SGN d 503      18.922  25.729 109.347  0.00  0.00     0.150 C 
ATOM     91  O1S SGN d 503      18.015  22.753 108.826  0.00  0.00    -0.296 OA
ATOM     92  O6S SGN d 503      19.456  28.650 105.464  0.00  0.00    -0.572 OA
ATOM     93  C2  SGN d 503      20.154  24.852 109.615  0.00  0.00     0.081 C 
ATOM     94  N   SGN d 503      19.771  23.636 110.311  0.00  0.00    -0.210 NA
ATOM     95  O3  SGN d 503      22.414  24.846 110.429  0.00  0.00    -0.391 OA
ATOM     96  C5  SGN d 503      20.221  27.674 109.351  0.00  0.00     0.091 C 
ATOM     97  O3S SGN d 503      19.158  21.305 110.373  0.00  0.00    -0.296 OA
ATOM     98  H   SGN d 503      21.056  29.592 108.982  0.00  0.00     0.080 H 
ATOM     99  H   SGN d 503      19.450  29.395 108.357  0.00  0.00     0.080 H 
ATOM    100  H   SGN d 503      21.998  26.672 108.693  0.00  0.00     0.091 H 
ATOM    101  H   SGN d 503      20.339  22.878 107.775  0.00  0.00     0.231 HD
ATOM    102  H   SGN d 503      20.882  25.812 111.370  0.00  0.00     0.089 H 
ATOM    103  H   SGN d 503      18.228  25.183 108.742  0.00  0.00     0.131 H 
ATOM    104  H   SGN d 503      18.153  23.469 108.186  0.00  0.00     0.231 HD
ATOM    105  H   SGN d 503      20.576  24.579 108.672  0.00  0.00     0.076 H 
ATOM    106  H   SGN d 503      20.576  23.331 110.858  0.00  0.00     0.140 HD
ATOM    107  H   SGN d 503      22.722  24.665 109.527  0.00  0.00     0.210 HD
ATOM    108  H   SGN d 503      19.883  27.948 110.329  0.00  0.00     0.090 H 
ATOM    109  H   SGN d 503      18.469  21.533 111.017  0.00  0.00     0.231 HD
ATOM    110  O61 IDS d 504      26.658  25.704 109.529  0.00  0.00    -0.646 OA
ATOM    111  O62 IDS d 504      26.396  25.138 111.540  0.00  0.00    -0.646 OA
ATOM    112  O3S IDS d 504      22.667  31.768 108.980  0.00  0.00    -0.572 OA
ATOM    113  S   IDS d 504      24.079  31.828 109.053  0.00  0.00     0.252 S 
ATOM    114  C6  IDS d 504      26.120  25.900 110.611  0.00  0.00     0.206 C 
ATOM    115  O3  IDS d 504      23.830  28.805 112.751  0.00  0.00    -0.390 OA
ATOM    116  C1  IDS d 504      23.408  28.290 109.718  0.00  0.00     0.161 C 
ATOM    117  O2  IDS d 504      24.479  30.410 109.502  0.00  0.00    -0.244 OA
ATOM    118  C5  IDS d 504      25.148  27.075 110.810  0.00  0.00     0.152 C 
ATOM    119  C4  IDS d 504      25.755  28.315 111.461  0.00  0.00     0.103 C 
ATOM    120  O5  IDS d 504      24.537  27.421 109.587  0.00  0.00    -0.340 OA
ATOM    121  O4  IDS d 504      26.732  28.889 110.605  0.00  0.00    -0.348 OA
ATOM    122  C2  IDS d 504      23.778  29.579 110.425  0.00  0.00     0.134 C 
ATOM    123  O1S IDS d 504      24.519  32.709 110.073  0.00  0.00    -0.572 OA
ATOM    124  O2S IDS d 504      24.737  32.090 107.807  0.00  0.00    -0.572 OA
ATOM    125  C3  IDS d 504      24.650  29.330 111.715  0.00  0.00     0.094 C 
ATOM    126  H   IDS d 504      24.369  28.652 113.544  0.00  0.00     0.210 HD
ATOM    127  H   IDS d 504      23.089  28.499 108.719  0.00  0.00     0.133 H 
ATOM    128  H   IDS d 504      24.419  26.715 111.506  0.00  0.00     0.104 H 
ATOM    129  H   IDS d 504      26.221  28.039 112.384  0.00  0.00     0.092 H 
ATOM    130  H   IDS d 504      22.880  30.057 110.756  0.00  0.00     0.097 H 
ATOM    131  H   IDS d 504      25.082  30.270 111.989  0.00  0.00     0.091 H 
ENDROOT
TORSDOF 40
ENDMDL
MODEL 70
REMARK VINA RESULT:      -8.2      4.076     11.890
REMARK  0 active torsions:
REMARK  status: ('A' for Active; 'I' for Inactive)
REMARK       I    between atoms: C6_1  and  C5_82 
REMARK       I    between atoms: O2_4  and  C2_65 
REMARK       I    between atoms: O2_4  and  S_6 
REMARK       I    between atoms: S2_5  and  O6_13 
REMARK       I    between atoms: C6_7  and  C5_66 
REMARK       I    between atoms: C6_7  and  O6_11 
REMARK       I    between atoms: S_8  and  O2_37 
REMARK       I    between atoms: O6_11  and  S2_34 
REMARK       I    between atoms: O6_13  and  C6_16 
REMARK       I    between atoms: C6_16  and  C5_76 
REMARK       I    between atoms: O2S_17  and  S1_21 
REMARK       I    between atoms: O4_18  and  C4_33 
REMARK       I    between atoms: C4_19  and  O4_25 
REMARK       I    between atoms: O3_20  and  C3_57 
REMARK       I    between atoms: S1_21  and  N_56 
REMARK       I    between atoms: S1_21  and  O1S_55 
REMARK       I    between atoms: S1_21  and  O3S_68 
REMARK       I    between atoms: O3_24  and  C3_80 
REMARK       I    between atoms: O4_25  and  C1_53 
REMARK       I    between atoms: S1_26  and  N_59 
REMARK       I    between atoms: S1_26  and  O1S_42 
REMARK       I    between atoms: S1_26  and  O2S_29 
REMARK       I    between atoms: S1_26  and  O3S_87 
REMARK       I    between atoms: S_30  and  O2_54 
REMARK       I    between atoms: C3_31  and  O3_61 
REMARK       I    between atoms: O4_36  and  C4_70 
REMARK       I    between atoms: O4_36  and  C1_52 
REMARK       I    between atoms: O2_37  and  C2_45 
REMARK       I    between atoms: C4_38  and  O4_71 
REMARK       I    between atoms: C1_39  and  O1_51 
REMARK       I    between atoms: C1_40  and  O4_71 
REMARK       I    between atoms: C6_46  and  C5_84 
REMARK       I    between atoms: C6_47  and  C5_64 
REMARK       I    between atoms: C1_48  and  O4_77 
REMARK       I    between atoms: O3_50  and  C3_86 
REMARK       I    between atoms: O2_54  and  C2_79 
REMARK       I    between atoms: N_56  and  C2_67 
REMARK       I    between atoms: C2_58  and  N_59 
REMARK       I    between atoms: C3_62  and  O3_81 
REMARK       I    between atoms: C4_69  and  O4_77 
ROOT
ATOM      1  C6  IDS d 506      31.990  26.853 104.331  0.00  0.00     0.206 C 
ATOM      2  O62 IDS d 506      32.225  26.765 103.138  0.00  0.00    -0.646 OA
ATOM      3  S   IDS d 506      31.523  21.919 108.177  0.00  0.00     0.252 S 
ATOM      4  O1S IDS d 506      31.306  21.126 107.007  0.00  0.00    -0.572 OA
ATOM      5  O3S IDS d 506      30.542  21.685 109.215  0.00  0.00    -0.572 OA
ATOM      6  O4  IDS d 506      32.596  23.980 104.951  0.00  0.00    -0.390 OA
ATOM      7  O3  IDS d 506      29.049  23.489 104.919  0.00  0.00    -0.390 OA
ATOM      8  C4  IDS d 506      31.275  24.383 104.679  0.00  0.00     0.097 C 
ATOM      9  O2  IDS d 506      31.294  23.420 107.707  0.00  0.00    -0.244 OA
ATOM     10  C2  IDS d 506      30.195  23.957 106.998  0.00  0.00     0.134 C 
ATOM     11  C1  IDS d 506      30.162  25.485 107.152  0.00  0.00     0.161 C 
ATOM     12  O2S IDS d 506      32.877  21.798 108.639  0.00  0.00    -0.572 OA
ATOM     13  O5  IDS d 506      31.234  26.026 106.423  0.00  0.00    -0.340 OA
ATOM     14  O61 IDS d 506      32.487  27.786 104.946  0.00  0.00    -0.646 OA
ATOM     15  C3  IDS d 506      30.340  23.491 105.523  0.00  0.00     0.094 C 
ATOM     16  C5  IDS d 506      31.097  25.859 105.050  0.00  0.00     0.152 C 
ATOM     17  H   IDS d 506      32.704  23.045 104.714  0.00  0.00     0.210 HD
ATOM     18  H   IDS d 506      29.123  23.199 103.997  0.00  0.00     0.210 HD
ATOM     19  H   IDS d 506      31.045  24.279 103.638  0.00  0.00     0.091 H 
ATOM     20  H   IDS d 506      29.257  23.610 107.381  0.00  0.00     0.097 H 
ATOM     21  H   IDS d 506      29.228  25.871 106.801  0.00  0.00     0.133 H 
ATOM     22  H   IDS d 506      30.779  22.515 105.546  0.00  0.00     0.091 H 
ATOM     23  H   IDS d 506      30.107  26.092 104.716  0.00  0.00     0.104 H 
ATOM     24  O62 IDS d 502      16.359  27.701 108.707  0.00  0.00    -0.646 OA
ATOM     25  O2  IDS d 502      18.238  28.765 113.927  0.00  0.00    -0.244 OA
ATOM     26  S   IDS d 502      19.066  28.040 115.040  0.00  0.00     0.252 S 
ATOM     27  O3  IDS d 502      15.013  27.369 113.224  0.00  0.00    -0.390 OA
ATOM     28  O2S IDS d 502      20.336  27.711 114.435  0.00  0.00    -0.572 OA
ATOM     29  C4  IDS d 502      16.886  27.323 111.715  0.00  0.00     0.103 C 
ATOM     30  C1  IDS d 502      16.493  29.958 112.854  0.00  0.00     0.158 C 
ATOM     31  O61 IDS d 502      17.629  29.315 108.993  0.00  0.00    -0.646 OA
ATOM     32  C6  IDS d 502      16.840  28.528 109.457  0.00  0.00     0.206 C 
ATOM     33  O1  IDS d 502      15.104  30.144 112.904  0.00  0.00    -0.368 OA
ATOM     34  C3  IDS d 502      16.424  27.447 113.180  0.00  0.00     0.094 C 
ATOM     35  O3S IDS d 502      19.162  28.999 116.109  0.00  0.00    -0.572 OA
ATOM     36  O5  IDS d 502      16.961  29.734 111.547  0.00  0.00    -0.340 OA
ATOM     37  C2  IDS d 502      16.844  28.794 113.775  0.00  0.00     0.134 C 
ATOM     38  O4  IDS d 502      18.285  27.197 111.672  0.00  0.00    -0.348 OA
ATOM     39  O1S IDS d 502      18.326  26.871 115.427  0.00  0.00    -0.572 OA
ATOM     40  C5  IDS d 502      16.463  28.563 110.931  0.00  0.00     0.152 C 
ATOM     41  H   IDS d 502      14.723  26.523 112.850  0.00  0.00     0.210 HD
ATOM     42  H   IDS d 502      16.436  26.457 111.277  0.00  0.00     0.092 H 
ATOM     43  H   IDS d 502      16.978  30.853 113.182  0.00  0.00     0.133 H 
ATOM     44  H   IDS d 502      14.658  29.335 112.608  0.00  0.00     0.212 HD
ATOM     45  H   IDS d 502      16.874  26.656 113.743  0.00  0.00     0.091 H 
ATOM     46  H   IDS d 502      16.332  28.938 114.703  0.00  0.00     0.097 H 
ATOM     47  H   IDS d 502      15.394  28.571 110.955  0.00  0.00     0.104 H 
ATOM     48  S2  SGN d 505      31.832  25.839 112.637  0.00  0.00     0.251 S 
ATOM     49  O6  SGN d 505      30.915  26.343 111.532  0.00  0.00    -0.254 OA
ATOM     50  O5S SGN d 505      31.858  26.910 113.602  0.00  0.00    -0.572 OA
ATOM     51  C6  SGN d 505      29.682  25.827 111.164  0.00  0.00     0.067 C 
ATOM     52  O2S SGN d 505      30.012  32.251 108.389  0.00  0.00    -0.296 OA
ATOM     53  S1  SGN d 505      28.639  31.982 108.748  0.00  0.00     0.156 S 
ATOM     54  O6S SGN d 505      31.228  24.625 113.168  0.00  0.00    -0.572 OA
ATOM     55  O4  SGN d 505      30.344  25.804 108.489  0.00  0.00    -0.348 OA
ATOM     56  O5  SGN d 505      28.891  27.983 110.900  0.00  0.00    -0.349 OA
ATOM     57  O4S SGN d 505      33.096  25.592 111.981  0.00  0.00    -0.572 OA
ATOM     58  C1  SGN d 505      28.215  28.965 110.167  0.00  0.00     0.150 C 
ATOM     59  O1S SGN d 505      28.430  31.995 110.181  0.00  0.00    -0.296 OA
ATOM     60  N   SGN d 505      28.350  30.422 108.208  0.00  0.00    -0.210 NA
ATOM     61  C3  SGN d 505      29.299  28.054 108.087  0.00  0.00     0.083 C 
ATOM     62  C2  SGN d 505      29.018  29.314 108.929  0.00  0.00     0.081 C 
ATOM     63  O3S SGN d 505      27.745  32.834 108.049  0.00  0.00    -0.296 OA
ATOM     64  C4  SGN d 505      30.043  27.070 109.037  0.00  0.00     0.095 C 
ATOM     65  C5  SGN d 505      29.123  26.808 110.186  0.00  0.00     0.091 C 
ATOM     66  O3  SGN d 505      30.133  28.418 106.995  0.00  0.00    -0.391 OA
ATOM     67  H   SGN d 505      29.042  25.740 112.017  0.00  0.00     0.080 H 
ATOM     68  H   SGN d 505      29.768  24.847 110.742  0.00  0.00     0.080 H 
ATOM     69  H   SGN d 505      30.598  31.655 108.882  0.00  0.00     0.231 HD
ATOM     70  H   SGN d 505      28.110  29.849 110.761  0.00  0.00     0.131 H 
ATOM     71  H   SGN d 505      29.065  31.397 110.606  0.00  0.00     0.231 HD
ATOM     72  H   SGN d 505      28.649  30.376 107.233  0.00  0.00     0.140 HD
ATOM     73  H   SGN d 505      28.409  27.607 107.695  0.00  0.00     0.089 H 
ATOM     74  H   SGN d 505      29.989  29.677 109.193  0.00  0.00     0.076 H 
ATOM     75  H   SGN d 505      27.930  32.786 107.098  0.00  0.00     0.231 HD
ATOM     76  H   SGN d 505      30.974  27.537 109.281  0.00  0.00     0.091 H 
ATOM     77  H   SGN d 505      28.227  26.416 109.751  0.00  0.00     0.090 H 
ATOM     78  H   SGN d 505      30.946  28.825 107.331  0.00  0.00     0.210 HD
ATOM     79  C6  SGN d 503      20.405  28.432 108.381  0.00  0.00     0.067 C 
ATOM     80  O6  SGN d 503      20.752  27.418 107.463  0.00  0.00    -0.254 OA
ATOM     81  C4  SGN d 503      21.477  27.059 110.255  0.00  0.00     0.095 C 
ATOM     82  O5  SGN d 503      19.170  26.891 109.549  0.00  0.00    -0.349 OA
ATOM     83  O4  SGN d 503      22.462  28.005 110.516  0.00  0.00    -0.348 OA
ATOM     84  S1  SGN d 503      18.820  23.318 112.388  0.00  0.00     0.156 S 
ATOM     85  O4S SGN d 503      20.436  28.757 105.481  0.00  0.00    -0.572 OA
ATOM     86  O2S SGN d 503      19.681  22.482 111.552  0.00  0.00    -0.296 OA
ATOM     87  C3  SGN d 503      21.151  26.328 111.556  0.00  0.00     0.083 C 
ATOM     88  S2  SGN d 503      20.409  27.413 105.950  0.00  0.00     0.251 S 
ATOM     89  O5S SGN d 503      21.411  26.584 105.286  0.00  0.00    -0.572 OA
ATOM     90  C1  SGN d 503      18.762  26.265 110.740  0.00  0.00     0.150 C 
ATOM     91  O1S SGN d 503      17.527  23.553 111.774  0.00  0.00    -0.296 OA
ATOM     92  O6S SGN d 503      19.091  26.911 105.906  0.00  0.00    -0.572 OA
ATOM     93  C2  SGN d 503      19.931  25.457 111.321  0.00  0.00     0.081 C 
ATOM     94  N   SGN d 503      19.523  24.778 112.539  0.00  0.00    -0.210 NA
ATOM     95  O3  SGN d 503      22.262  25.520 111.896  0.00  0.00    -0.391 OA
ATOM     96  C5  SGN d 503      20.226  27.783 109.727  0.00  0.00     0.091 C 
ATOM     97  O3S SGN d 503      18.710  22.861 113.754  0.00  0.00    -0.296 OA
ATOM     98  H   SGN d 503      21.184  29.163 108.429  0.00  0.00     0.080 H 
ATOM     99  H   SGN d 503      19.504  28.922 108.077  0.00  0.00     0.080 H 
ATOM    100  H   SGN d 503      21.810  26.353 109.524  0.00  0.00     0.091 H 
ATOM    101  H   SGN d 503      19.709  22.845 110.653  0.00  0.00     0.231 HD
ATOM    102  H   SGN d 503      20.950  27.018 112.348  0.00  0.00     0.089 H 
ATOM    103  H   SGN d 503      17.953  25.602 110.517  0.00  0.00     0.131 H 
ATOM    104  H   SGN d 503      17.653  23.857 110.862  0.00  0.00     0.231 HD
ATOM    105  H   SGN d 503      20.209  24.716 110.602  0.00  0.00     0.076 H 
ATOM    106  H   SGN d 503      20.357  24.658 113.114  0.00  0.00     0.140 HD
ATOM    107  H   SGN d 503      22.441  24.895 111.176  0.00  0.00     0.210 HD
ATOM    108  H   SGN d 503      20.036  28.528 110.471  0.00  0.00     0.090 H 
ATOM    109  H   SGN d 503      18.127  23.458 114.249  0.00  0.00     0.231 HD
ATOM    110  O61 IDS d 504      26.428  25.255 110.435  0.00  0.00    -0.646 OA
ATOM    111  O62 IDS d 504      26.359  25.743 112.482  0.00  0.00    -0.646 OA
ATOM    112  O3S IDS d 504      22.978  30.835 107.279  0.00  0.00    -0.572 OA
ATOM    113  S   IDS d 504      24.388  30.726 107.228  0.00  0.00     0.252 S 
ATOM    114  C6  IDS d 504      26.045  26.009 111.320  0.00  0.00     0.206 C 
ATOM    115  O3  IDS d 504      24.308  29.865 111.932  0.00  0.00    -0.390 OA
ATOM    116  C1  IDS d 504      23.477  28.049 109.555  0.00  0.00     0.161 C 
ATOM    117  O2  IDS d 504      24.706  29.646 108.278  0.00  0.00    -0.244 OA
ATOM    118  C5  IDS d 504      25.216  27.261 110.987  0.00  0.00     0.152 C 
ATOM    119  C4  IDS d 504      26.010  28.565 110.922  0.00  0.00     0.103 C 
ATOM    120  O5  IDS d 504      24.498  27.073 109.789  0.00  0.00    -0.340 OA
ATOM    121  O4  IDS d 504      26.925  28.526 109.836  0.00  0.00    -0.348 OA
ATOM    122  C2  IDS d 504      24.048  29.453 109.528  0.00  0.00     0.134 C 
ATOM    123  O1S IDS d 504      25.027  31.912 107.667  0.00  0.00    -0.572 OA
ATOM    124  O2S IDS d 504      24.913  30.277 105.971  0.00  0.00    -0.572 OA
ATOM    125  C3  IDS d 504      25.042  29.722 110.722  0.00  0.00     0.094 C 
ATOM    126  H   IDS d 504      24.922  30.030 112.665  0.00  0.00     0.210 HD
ATOM    127  H   IDS d 504      23.061  27.805 108.600  0.00  0.00     0.133 H 
ATOM    128  H   IDS d 504      24.547  27.377 111.814  0.00  0.00     0.104 H 
ATOM    129  H   IDS d 504      26.556  28.694 111.833  0.00  0.00     0.092 H 
ATOM    130  H   IDS d 504      23.244  30.150 109.643  0.00  0.00     0.097 H 
ATOM    131  H   IDS d 504      25.590  30.610 110.483  0.00  0.00     0.091 H 
ENDROOT
TORSDOF 40
ENDMDL
MODEL 71
REMARK VINA RESULT:      -8.2      4.819     13.398
REMARK  0 active torsions:
REMARK  status: ('A' for Active; 'I' for Inactive)
REMARK       I    between atoms: C6_1  and  C5_82 
REMARK       I    between atoms: O2_4  and  C2_65 
REMARK       I    between atoms: O2_4  and  S_6 
REMARK       I    between atoms: S2_5  and  O6_13 
REMARK       I    between atoms: C6_7  and  C5_66 
REMARK       I    between atoms: C6_7  and  O6_11 
REMARK       I    between atoms: S_8  and  O2_37 
REMARK       I    between atoms: O6_11  and  S2_34 
REMARK       I    between atoms: O6_13  and  C6_16 
REMARK       I    between atoms: C6_16  and  C5_76 
REMARK       I    between atoms: O2S_17  and  S1_21 
REMARK       I    between atoms: O4_18  and  C4_33 
REMARK       I    between atoms: C4_19  and  O4_25 
REMARK       I    between atoms: O3_20  and  C3_57 
REMARK       I    between atoms: S1_21  and  N_56 
REMARK       I    between atoms: S1_21  and  O1S_55 
REMARK       I    between atoms: S1_21  and  O3S_68 
REMARK       I    between atoms: O3_24  and  C3_80 
REMARK       I    between atoms: O4_25  and  C1_53 
REMARK       I    between atoms: S1_26  and  N_59 
REMARK       I    between atoms: S1_26  and  O1S_42 
REMARK       I    between atoms: S1_26  and  O2S_29 
REMARK       I    between atoms: S1_26  and  O3S_87 
REMARK       I    between atoms: S_30  and  O2_54 
REMARK       I    between atoms: C3_31  and  O3_61 
REMARK       I    between atoms: O4_36  and  C4_70 
REMARK       I    between atoms: O4_36  and  C1_52 
REMARK       I    between atoms: O2_37  and  C2_45 
REMARK       I    between atoms: C4_38  and  O4_71 
REMARK       I    between atoms: C1_39  and  O1_51 
REMARK       I    between atoms: C1_40  and  O4_71 
REMARK       I    between atoms: C6_46  and  C5_84 
REMARK       I    between atoms: C6_47  and  C5_64 
REMARK       I    between atoms: C1_48  and  O4_77 
REMARK       I    between atoms: O3_50  and  C3_86 
REMARK       I    between atoms: O2_54  and  C2_79 
REMARK       I    between atoms: N_56  and  C2_67 
REMARK       I    between atoms: C2_58  and  N_59 
REMARK       I    between atoms: C3_62  and  O3_81 
REMARK       I    between atoms: C4_69  and  O4_77 
ROOT
ATOM      1  C6  IDS d 506      26.890  32.249 112.792  0.00  0.00     0.206 C 
ATOM      2  O62 IDS d 506      27.738  32.443 113.646  0.00  0.00    -0.646 OA
ATOM      3  S   IDS d 506      20.722  32.785 113.799  0.00  0.00     0.252 S 
ATOM      4  O1S IDS d 506      21.017  32.653 115.193  0.00  0.00    -0.572 OA
ATOM      5  O3S IDS d 506      19.663  31.903 113.355  0.00  0.00    -0.572 OA
ATOM      6  O4  IDS d 506      24.611  33.355 114.399  0.00  0.00    -0.390 OA
ATOM      7  O3  IDS d 506      23.788  29.943 115.110  0.00  0.00    -0.390 OA
ATOM      8  C4  IDS d 506      24.886  31.974 114.415  0.00  0.00     0.097 C 
ATOM      9  O2  IDS d 506      22.032  32.286 113.051  0.00  0.00    -0.244 OA
ATOM     10  C2  IDS d 506      22.749  31.083 113.247  0.00  0.00     0.134 C 
ATOM     11  C1  IDS d 506      23.649  30.801 112.036  0.00  0.00     0.161 C 
ATOM     12  O2S IDS d 506      20.501  34.158 113.446  0.00  0.00    -0.572 OA
ATOM     13  O5  IDS d 506      24.699  31.734 112.038  0.00  0.00    -0.340 OA
ATOM     14  O61 IDS d 506      27.135  32.608 111.648  0.00  0.00    -0.646 OA
ATOM     15  C3  IDS d 506      23.537  31.240 114.577  0.00  0.00     0.094 C 
ATOM     16  C5  IDS d 506      25.572  31.568 113.107  0.00  0.00     0.152 C 
ATOM     17  H   IDS d 506      24.176  33.609 115.229  0.00  0.00     0.210 HD
ATOM     18  H   IDS d 506      24.281  30.025 115.941  0.00  0.00     0.210 HD
ATOM     19  H   IDS d 506      25.543  31.721 115.221  0.00  0.00     0.091 H 
ATOM     20  H   IDS d 506      22.100  30.235 113.327  0.00  0.00     0.097 H 
ATOM     21  H   IDS d 506      24.027  29.802 112.082  0.00  0.00     0.133 H 
ATOM     22  H   IDS d 506      22.934  31.838 115.229  0.00  0.00     0.091 H 
ATOM     23  H   IDS d 506      25.826  30.539 113.258  0.00  0.00     0.104 H 
ATOM     24  O62 IDS d 502      21.976  16.903 110.661  0.00  0.00    -0.646 OA
ATOM     25  O2  IDS d 502      19.143  18.802 106.158  0.00  0.00    -0.244 OA
ATOM     26  S   IDS d 502      17.967  19.787 105.849  0.00  0.00     0.252 S 
ATOM     27  O3  IDS d 502      18.256  15.829 107.953  0.00  0.00    -0.390 OA
ATOM     28  O2S IDS d 502      18.375  21.067 106.381  0.00  0.00    -0.572 OA
ATOM     29  C4  IDS d 502      19.601  17.617 108.838  0.00  0.00     0.103 C 
ATOM     30  C1  IDS d 502      20.468  16.836 106.186  0.00  0.00     0.158 C 
ATOM     31  O61 IDS d 502      23.028  17.895 109.175  0.00  0.00    -0.646 OA
ATOM     32  C6  IDS d 502      22.049  17.270 109.505  0.00  0.00     0.206 C 
ATOM     33  O1  IDS d 502      20.352  15.439 106.146  0.00  0.00    -0.368 OA
ATOM     34  C3  IDS d 502      18.546  17.204 107.794  0.00  0.00     0.094 C 
ATOM     35  O3S IDS d 502      17.838  19.768 104.415  0.00  0.00    -0.572 OA
ATOM     36  O5  IDS d 502      21.342  17.278 107.194  0.00  0.00    -0.340 OA
ATOM     37  C2  IDS d 502      19.070  17.418 106.371  0.00  0.00     0.134 C 
ATOM     38  O4  IDS d 502      19.753  19.013 108.828  0.00  0.00    -0.348 OA
ATOM     39  O1S IDS d 502      16.797  19.271 106.504  0.00  0.00    -0.572 OA
ATOM     40  C5  IDS d 502      20.939  16.957 108.511  0.00  0.00     0.152 C 
ATOM     41  H   IDS d 502      17.923  15.670 108.850  0.00  0.00     0.210 HD
ATOM     42  H   IDS d 502      19.279  17.299 109.808  0.00  0.00     0.092 H 
ATOM     43  H   IDS d 502      20.895  17.178 105.267  0.00  0.00     0.133 H 
ATOM     44  H   IDS d 502      19.965  15.123 106.978  0.00  0.00     0.212 HD
ATOM     45  H   IDS d 502      17.672  17.804 107.942  0.00  0.00     0.091 H 
ATOM     46  H   IDS d 502      18.413  16.929 105.683  0.00  0.00     0.097 H 
ATOM     47  H   IDS d 502      20.771  15.904 108.589  0.00  0.00     0.104 H 
ATOM     48  S2  SGN d 505      20.119  32.625 107.887  0.00  0.00     0.251 S 
ATOM     49  O6  SGN d 505      21.129  31.589 108.360  0.00  0.00    -0.254 OA
ATOM     50  O5S SGN d 505      20.131  32.513 106.450  0.00  0.00    -0.572 OA
ATOM     51  C6  SGN d 505      20.874  30.445 109.101  0.00  0.00     0.067 C 
ATOM     52  O2S SGN d 505      27.233  29.571 106.292  0.00  0.00    -0.296 OA
ATOM     53  S1  SGN d 505      26.591  28.280 106.373  0.00  0.00     0.156 S 
ATOM     54  O6S SGN d 505      18.833  32.257 108.464  0.00  0.00    -0.572 OA
ATOM     55  O4  SGN d 505      22.911  30.985 110.876  0.00  0.00    -0.348 OA
ATOM     56  O5  SGN d 505      22.389  29.293 107.788  0.00  0.00    -0.349 OA
ATOM     57  O4S SGN d 505      20.619  33.883 108.394  0.00  0.00    -0.572 OA
ATOM     58  C1  SGN d 505      23.481  28.430 107.638  0.00  0.00     0.150 C 
ATOM     59  O1S SGN d 505      25.522  28.134 105.407  0.00  0.00    -0.296 OA
ATOM     60  N   SGN d 505      25.904  28.234 107.900  0.00  0.00    -0.210 NA
ATOM     61  C3  SGN d 505      24.552  29.561 109.614  0.00  0.00     0.083 C 
ATOM     62  C2  SGN d 505      24.735  29.109 108.152  0.00  0.00     0.081 C 
ATOM     63  O3S SGN d 505      27.540  27.226 106.313  0.00  0.00    -0.296 OA
ATOM     64  C4  SGN d 505      23.310  30.500 109.611  0.00  0.00     0.095 C 
ATOM     65  C5  SGN d 505      22.162  29.688 109.106  0.00  0.00     0.091 C 
ATOM     66  O3  SGN d 505      25.715  30.273 110.015  0.00  0.00    -0.391 OA
ATOM     67  H   SGN d 505      20.100  29.867 108.643  0.00  0.00     0.080 H 
ATOM     68  H   SGN d 505      20.542  30.676 110.091  0.00  0.00     0.080 H 
ATOM     69  H   SGN d 505      26.560  30.269 106.335  0.00  0.00     0.231 HD
ATOM     70  H   SGN d 505      23.620  28.204 106.601  0.00  0.00     0.131 H 
ATOM     71  H   SGN d 505      24.905  28.878 105.492  0.00  0.00     0.231 HD
ATOM     72  H   SGN d 505      26.629  28.493 108.570  0.00  0.00     0.140 HD
ATOM     73  H   SGN d 505      24.411  28.742 110.288  0.00  0.00     0.089 H 
ATOM     74  H   SGN d 505      24.927  30.016 107.617  0.00  0.00     0.076 H 
ATOM     75  H   SGN d 505      28.230  27.375 106.979  0.00  0.00     0.231 HD
ATOM     76  H   SGN d 505      23.579  31.349 109.019  0.00  0.00     0.091 H 
ATOM     77  H   SGN d 505      22.087  28.852 109.771  0.00  0.00     0.090 H 
ATOM     78  H   SGN d 505      25.860  31.021 109.414  0.00  0.00     0.210 HD
ATOM     79  C6  SGN d 503      23.291  20.751 109.973  0.00  0.00     0.067 C 
ATOM     80  O6  SGN d 503      23.337  21.223 111.302  0.00  0.00    -0.254 OA
ATOM     81  C4  SGN d 503      21.163  22.118 109.593  0.00  0.00     0.095 C 
ATOM     82  O5  SGN d 503      21.231  19.843 110.412  0.00  0.00    -0.349 OA
ATOM     83  O4  SGN d 503      21.746  22.941 108.637  0.00  0.00    -0.348 OA
ATOM     84  S1  SGN d 503      16.723  20.223 111.108  0.00  0.00     0.156 S 
ATOM     85  O4S SGN d 503      25.633  20.601 111.708  0.00  0.00    -0.572 OA
ATOM     86  O2S SGN d 503      16.902  21.174 112.204  0.00  0.00    -0.296 OA
ATOM     87  C3  SGN d 503      19.677  21.977 109.269  0.00  0.00     0.083 C 
ATOM     88  S2  SGN d 503      24.390  20.820 112.368  0.00  0.00     0.251 S 
ATOM     89  O5S SGN d 503      24.469  21.917 113.328  0.00  0.00    -0.572 OA
ATOM     90  C1  SGN d 503      19.883  19.598 110.094  0.00  0.00     0.150 C 
ATOM     91  O1S SGN d 503      17.139  18.883 111.476  0.00  0.00    -0.296 OA
ATOM     92  O6S SGN d 503      23.895  19.605 112.886  0.00  0.00    -0.572 OA
ATOM     93  C2  SGN d 503      19.090  20.911 110.176  0.00  0.00     0.081 C 
ATOM     94  N   SGN d 503      17.688  20.677 109.878  0.00  0.00    -0.210 NA
ATOM     95  O3  SGN d 503      19.052  23.221 109.520  0.00  0.00    -0.391 OA
ATOM     96  C5  SGN d 503      21.849  20.742 109.545  0.00  0.00     0.091 C 
ATOM     97  O3S SGN d 503      15.402  20.250 110.520  0.00  0.00    -0.296 OA
ATOM     98  H   SGN d 503      23.858  21.397 109.336  0.00  0.00     0.080 H 
ATOM     99  H   SGN d 503      23.709  19.767 109.909  0.00  0.00     0.080 H 
ATOM    100  H   SGN d 503      21.275  22.534 110.573  0.00  0.00     0.091 H 
ATOM    101  H   SGN d 503      17.805  21.102 112.549  0.00  0.00     0.231 HD
ATOM    102  H   SGN d 503      19.529  21.698 108.248  0.00  0.00     0.089 H 
ATOM    103  H   SGN d 503      19.486  18.903 110.804  0.00  0.00     0.131 H 
ATOM    104  H   SGN d 503      18.027  18.916 111.865  0.00  0.00     0.231 HD
ATOM    105  H   SGN d 503      19.162  21.278 111.178  0.00  0.00     0.076 H 
ATOM    106  H   SGN d 503      17.309  21.543 109.496  0.00  0.00     0.140 HD
ATOM    107  H   SGN d 503      19.188  23.471 110.448  0.00  0.00     0.210 HD
ATOM    108  H   SGN d 503      21.774  20.462 108.515  0.00  0.00     0.090 H 
ATOM    109  H   SGN d 503      15.354  19.597 109.803  0.00  0.00     0.231 HD
ATOM    110  O61 IDS d 504      20.551  27.305 110.318  0.00  0.00    -0.646 OA
ATOM    111  O62 IDS d 504      19.370  27.244 108.575  0.00  0.00    -0.646 OA
ATOM    112  O3S IDS d 504      26.075  22.833 108.737  0.00  0.00    -0.572 OA
ATOM    113  S   IDS d 504      26.244  24.238 108.719  0.00  0.00     0.252 S 
ATOM    114  C6  IDS d 504      20.351  26.840 109.203  0.00  0.00     0.206 C 
ATOM    115  O3  IDS d 504      22.220  24.508 106.148  0.00  0.00    -0.390 OA
ATOM    116  C1  IDS d 504      22.626  23.892 109.164  0.00  0.00     0.161 C 
ATOM    117  O2  IDS d 504      24.803  24.778 108.758  0.00  0.00    -0.244 OA
ATOM    118  C5  IDS d 504      21.308  25.799 108.597  0.00  0.00     0.152 C 
ATOM    119  C4  IDS d 504      22.341  26.359 107.621  0.00  0.00     0.103 C 
ATOM    120  O5  IDS d 504      21.953  25.071 109.617  0.00  0.00    -0.340 OA
ATOM    121  O4  IDS d 504      23.242  27.219 108.302  0.00  0.00    -0.348 OA
ATOM    122  C2  IDS d 504      23.665  24.217 108.109  0.00  0.00     0.134 C 
ATOM    123  O1S IDS d 504      26.807  24.687 107.498  0.00  0.00    -0.572 OA
ATOM    124  O2S IDS d 504      26.940  24.775 109.851  0.00  0.00    -0.572 OA
ATOM    125  C3  IDS d 504      23.116  25.203 107.007  0.00  0.00     0.094 C 
ATOM    126  H   IDS d 504      21.884  25.117 105.472  0.00  0.00     0.210 HD
ATOM    127  H   IDS d 504      23.101  23.481 110.030  0.00  0.00     0.133 H 
ATOM    128  H   IDS d 504      20.683  25.156 108.014  0.00  0.00     0.104 H 
ATOM    129  H   IDS d 504      21.840  26.915 106.856  0.00  0.00     0.092 H 
ATOM    130  H   IDS d 504      23.928  23.313 107.600  0.00  0.00     0.097 H 
ATOM    131  H   IDS d 504      23.963  25.582 106.474  0.00  0.00     0.091 H 
ENDROOT
TORSDOF 40
ENDMDL
MODEL 72
REMARK VINA RESULT:      -8.2      4.860     10.299
REMARK  0 active torsions:
REMARK  status: ('A' for Active; 'I' for Inactive)
REMARK       I    between atoms: C6_1  and  C5_82 
REMARK       I    between atoms: O2_4  and  C2_65 
REMARK       I    between atoms: O2_4  and  S_6 
REMARK       I    between atoms: S2_5  and  O6_13 
REMARK       I    between atoms: C6_7  and  C5_66 
REMARK       I    between atoms: C6_7  and  O6_11 
REMARK       I    between atoms: S_8  and  O2_37 
REMARK       I    between atoms: O6_11  and  S2_34 
REMARK       I    between atoms: O6_13  and  C6_16 
REMARK       I    between atoms: C6_16  and  C5_76 
REMARK       I    between atoms: O2S_17  and  S1_21 
REMARK       I    between atoms: O4_18  and  C4_33 
REMARK       I    between atoms: C4_19  and  O4_25 
REMARK       I    between atoms: O3_20  and  C3_57 
REMARK       I    between atoms: S1_21  and  N_56 
REMARK       I    between atoms: S1_21  and  O1S_55 
REMARK       I    between atoms: S1_21  and  O3S_68 
REMARK       I    between atoms: O3_24  and  C3_80 
REMARK       I    between atoms: O4_25  and  C1_53 
REMARK       I    between atoms: S1_26  and  N_59 
REMARK       I    between atoms: S1_26  and  O1S_42 
REMARK       I    between atoms: S1_26  and  O2S_29 
REMARK       I    between atoms: S1_26  and  O3S_87 
REMARK       I    between atoms: S_30  and  O2_54 
REMARK       I    between atoms: C3_31  and  O3_61 
REMARK       I    between atoms: O4_36  and  C4_70 
REMARK       I    between atoms: O4_36  and  C1_52 
REMARK       I    between atoms: O2_37  and  C2_45 
REMARK       I    between atoms: C4_38  and  O4_71 
REMARK       I    between atoms: C1_39  and  O1_51 
REMARK       I    between atoms: C1_40  and  O4_71 
REMARK       I    between atoms: C6_46  and  C5_84 
REMARK       I    between atoms: C6_47  and  C5_64 
REMARK       I    between atoms: C1_48  and  O4_77 
REMARK       I    between atoms: O3_50  and  C3_86 
REMARK       I    between atoms: O2_54  and  C2_79 
REMARK       I    between atoms: N_56  and  C2_67 
REMARK       I    between atoms: C2_58  and  N_59 
REMARK       I    between atoms: C3_62  and  O3_81 
REMARK       I    between atoms: C4_69  and  O4_77 
ROOT
ATOM      1  C6  IDS d 506      16.565  30.231 107.970  0.00  0.00     0.206 C 
ATOM      2  O62 IDS d 506      15.388  30.030 107.725  0.00  0.00    -0.646 OA
ATOM      3  S   IDS d 506      20.773  32.043 103.686  0.00  0.00     0.252 S 
ATOM      4  O1S IDS d 506      19.861  31.557 102.697  0.00  0.00    -0.572 OA
ATOM      5  O3S IDS d 506      22.125  31.560 103.500  0.00  0.00    -0.572 OA
ATOM      6  O4  IDS d 506      17.192  31.504 105.327  0.00  0.00    -0.390 OA
ATOM      7  O3  IDS d 506      18.567  28.327 104.409  0.00  0.00    -0.390 OA
ATOM      8  C4  IDS d 506      17.406  30.125 105.518  0.00  0.00     0.097 C 
ATOM      9  O2  IDS d 506      20.278  31.405 105.054  0.00  0.00    -0.244 OA
ATOM     10  C2  IDS d 506      19.992  30.049 105.335  0.00  0.00     0.134 C 
ATOM     11  C1  IDS d 506      19.993  29.812 106.852  0.00  0.00     0.161 C 
ATOM     12  O2S IDS d 506      20.693  33.471 103.804  0.00  0.00    -0.572 OA
ATOM     13  O5  IDS d 506      18.859  30.438 107.398  0.00  0.00    -0.340 OA
ATOM     14  O61 IDS d 506      16.847  30.748 109.042  0.00  0.00    -0.646 OA
ATOM     15  C3  IDS d 506      18.628  29.728 104.663  0.00  0.00     0.094 C 
ATOM     16  C5  IDS d 506      17.667  29.844 107.002  0.00  0.00     0.152 C 
ATOM     17  H   IDS d 506      17.027  31.678 104.386  0.00  0.00     0.210 HD
ATOM     18  H   IDS d 506      17.720  28.111 103.989  0.00  0.00     0.210 HD
ATOM     19  H   IDS d 506      16.548  29.557 105.225  0.00  0.00     0.091 H 
ATOM     20  H   IDS d 506      20.736  29.388 104.941  0.00  0.00     0.097 H 
ATOM     21  H   IDS d 506      19.988  28.764 107.062  0.00  0.00     0.133 H 
ATOM     22  H   IDS d 506      18.579  30.306 103.764  0.00  0.00     0.091 H 
ATOM     23  H   IDS d 506      17.715  28.776 107.057  0.00  0.00     0.104 H 
ATOM     24  O62 IDS d 502      26.468  17.347 107.594  0.00  0.00    -0.646 OA
ATOM     25  O2  IDS d 502      30.440  20.777 109.688  0.00  0.00    -0.244 OA
ATOM     26  S   IDS d 502      31.219  22.062 109.253  0.00  0.00     0.252 S 
ATOM     27  O3  IDS d 502      31.166  17.806 107.818  0.00  0.00    -0.390 OA
ATOM     28  O2S IDS d 502      30.212  23.063 108.990  0.00  0.00    -0.572 OA
ATOM     29  C4  IDS d 502      29.069  18.985 107.762  0.00  0.00     0.103 C 
ATOM     30  C1  IDS d 502      30.000  18.584 110.475  0.00  0.00     0.158 C 
ATOM     31  O61 IDS d 502      26.084  18.337 109.375  0.00  0.00    -0.646 OA
ATOM     32  C6  IDS d 502      26.890  17.918 108.581  0.00  0.00     0.206 C 
ATOM     33  O1  IDS d 502      30.559  17.297 110.498  0.00  0.00    -0.368 OA
ATOM     34  C3  IDS d 502      30.578  19.070 108.058  0.00  0.00     0.094 C 
ATOM     35  O3S IDS d 502      32.069  22.373 110.373  0.00  0.00    -0.572 OA
ATOM     36  O5  IDS d 502      28.643  18.578 110.107  0.00  0.00    -0.340 OA
ATOM     37  C2  IDS d 502      30.830  19.439 109.523  0.00  0.00     0.134 C 
ATOM     38  O4  IDS d 502      28.508  20.272 107.801  0.00  0.00    -0.348 OA
ATOM     39  O1S IDS d 502      31.975  21.725 108.079  0.00  0.00    -0.572 OA
ATOM     40  C5  IDS d 502      28.385  18.100 108.802  0.00  0.00     0.152 C 
ATOM     41  H   IDS d 502      31.018  17.551 106.894  0.00  0.00     0.210 HD
ATOM     42  H   IDS d 502      28.926  18.562 106.789  0.00  0.00     0.092 H 
ATOM     43  H   IDS d 502      30.026  18.993 111.463  0.00  0.00     0.133 H 
ATOM     44  H   IDS d 502      30.537  16.920 109.604  0.00  0.00     0.212 HD
ATOM     45  H   IDS d 502      31.004  19.822 107.427  0.00  0.00     0.091 H 
ATOM     46  H   IDS d 502      31.863  19.280 109.748  0.00  0.00     0.097 H 
ATOM     47  H   IDS d 502      28.815  17.128 108.684  0.00  0.00     0.104 H 
ATOM     48  S2  SGN d 505      24.358  33.267 108.267  0.00  0.00     0.251 S 
ATOM     49  O6  SGN d 505      23.643  31.940 108.475  0.00  0.00    -0.254 OA
ATOM     50  O5S SGN d 505      25.127  33.456 109.472  0.00  0.00    -0.572 OA
ATOM     51  C6  SGN d 505      23.827  30.766 107.762  0.00  0.00     0.067 C 
ATOM     52  O2S SGN d 505      20.506  28.961 113.661  0.00  0.00    -0.296 OA
ATOM     53  S1  SGN d 505      21.387  27.879 113.287  0.00  0.00     0.156 S 
ATOM     54  O6S SGN d 505      25.199  33.114 107.088  0.00  0.00    -0.572 OA
ATOM     55  O4  SGN d 505      21.119  30.408 107.399  0.00  0.00    -0.348 OA
ATOM     56  O5  SGN d 505      23.670  29.575 109.738  0.00  0.00    -0.349 OA
ATOM     57  O4S SGN d 505      23.298  34.230 108.076  0.00  0.00    -0.572 OA
ATOM     58  C1  SGN d 505      23.156  28.521 110.502  0.00  0.00     0.150 C 
ATOM     59  O1S SGN d 505      22.782  28.203 113.500  0.00  0.00    -0.296 OA
ATOM     60  N   SGN d 505      21.158  27.687 111.638  0.00  0.00    -0.210 NA
ATOM     61  C3  SGN d 505      20.923  28.919 109.413  0.00  0.00     0.083 C 
ATOM     62  C2  SGN d 505      21.677  28.750 110.746  0.00  0.00     0.081 C 
ATOM     63  O3S SGN d 505      21.000  26.660 113.903  0.00  0.00    -0.296 OA
ATOM     64  C4  SGN d 505      21.611  30.113 108.689  0.00  0.00     0.095 C 
ATOM     65  C5  SGN d 505      23.043  29.731 108.502  0.00  0.00     0.091 C 
ATOM     66  O3  SGN d 505      19.564  29.225 109.699  0.00  0.00    -0.391 OA
ATOM     67  H   SGN d 505      24.864  30.503 107.734  0.00  0.00     0.080 H 
ATOM     68  H   SGN d 505      23.505  30.860 106.746  0.00  0.00     0.080 H 
ATOM     69  H   SGN d 505      20.795  29.778 113.225  0.00  0.00     0.231 HD
ATOM     70  H   SGN d 505      23.653  28.489 111.449  0.00  0.00     0.131 H 
ATOM     71  H   SGN d 505      22.990  29.042 113.058  0.00  0.00     0.231 HD
ATOM     72  H   SGN d 505      20.153  27.615 111.475  0.00  0.00     0.140 HD
ATOM     73  H   SGN d 505      20.948  28.038 108.806  0.00  0.00     0.089 H 
ATOM     74  H   SGN d 505      21.512  29.672 111.262  0.00  0.00     0.076 H 
ATOM     75  H   SGN d 505      20.061  26.493 113.728  0.00  0.00     0.231 HD
ATOM     76  H   SGN d 505      21.432  30.975 109.298  0.00  0.00     0.091 H 
ATOM     77  H   SGN d 505      23.026  28.821 107.940  0.00  0.00     0.090 H 
ATOM     78  H   SGN d 505      19.521  30.022 110.250  0.00  0.00     0.210 HD
ATOM     79  C6  SGN d 503      24.551  20.811 108.750  0.00  0.00     0.067 C 
ATOM     80  O6  SGN d 503      23.677  20.971 107.653  0.00  0.00    -0.254 OA
ATOM     81  C4  SGN d 503      26.001  22.707 107.830  0.00  0.00     0.095 C 
ATOM     82  O5  SGN d 503      26.250  20.367 107.274  0.00  0.00    -0.349 OA
ATOM     83  O4  SGN d 503      25.769  23.542 108.918  0.00  0.00    -0.348 OA
ATOM     84  S1  SGN d 503      29.351  21.688 104.178  0.00  0.00     0.156 S 
ATOM     85  O4S SGN d 503      21.842  19.734 108.615  0.00  0.00    -0.572 OA
ATOM     86  O2S SGN d 503      28.339  22.317 103.331  0.00  0.00    -0.296 OA
ATOM     87  C3  SGN d 503      27.394  23.006 107.279  0.00  0.00     0.083 C 
ATOM     88  S2  SGN d 503      22.418  20.110 107.369  0.00  0.00     0.251 S 
ATOM     89  O5S SGN d 503      21.509  20.930 106.573  0.00  0.00    -0.572 OA
ATOM     90  C1  SGN d 503      27.563  20.532 106.799  0.00  0.00     0.150 C 
ATOM     91  O1S SGN d 503      29.257  20.241 104.155  0.00  0.00    -0.296 OA
ATOM     92  O6S SGN d 503      22.931  18.973 106.710  0.00  0.00    -0.572 OA
ATOM     93  C2  SGN d 503      27.732  21.952 106.241  0.00  0.00     0.081 C 
ATOM     94  N   SGN d 503      29.075  22.136 105.718  0.00  0.00    -0.210 NA
ATOM     95  O3  SGN d 503      27.364  24.285 106.676  0.00  0.00    -0.391 OA
ATOM     96  C5  SGN d 503      25.921  21.246 108.304  0.00  0.00     0.091 C 
ATOM     97  O3S SGN d 503      30.695  22.160 103.932  0.00  0.00    -0.296 OA
ATOM     98  H   SGN d 503      24.223  21.417 109.569  0.00  0.00     0.080 H 
ATOM     99  H   SGN d 503      24.566  19.791 109.072  0.00  0.00     0.080 H 
ATOM    100  H   SGN d 503      25.273  22.870 107.063  0.00  0.00     0.091 H 
ATOM    101  H   SGN d 503      27.465  21.955 103.548  0.00  0.00     0.231 HD
ATOM    102  H   SGN d 503      28.129  22.990 108.056  0.00  0.00     0.089 H 
ATOM    103  H   SGN d 503      27.734  19.824 106.015  0.00  0.00     0.131 H 
ATOM    104  H   SGN d 503      28.340  19.974 104.324  0.00  0.00     0.231 HD
ATOM    105  H   SGN d 503      27.040  22.074 105.435  0.00  0.00     0.076 H 
ATOM    106  H   SGN d 503      29.297  23.129 105.792  0.00  0.00     0.140 HD
ATOM    107  H   SGN d 503      26.697  24.295 105.972  0.00  0.00     0.210 HD
ATOM    108  H   SGN d 503      26.602  21.213 109.129  0.00  0.00     0.090 H 
ATOM    109  H   SGN d 503      31.312  21.703 104.525  0.00  0.00     0.231 HD
ATOM    110  O61 IDS d 504      24.457  27.619 106.691  0.00  0.00    -0.646 OA
ATOM    111  O62 IDS d 504      26.315  28.213 107.485  0.00  0.00    -0.646 OA
ATOM    112  O3S IDS d 504      22.314  22.357 111.244  0.00  0.00    -0.572 OA
ATOM    113  S   IDS d 504      21.740  23.649 111.299  0.00  0.00     0.252 S 
ATOM    114  C6  IDS d 504      25.341  27.459 107.524  0.00  0.00     0.206 C 
ATOM    115  O3  IDS d 504      26.179  25.427 111.188  0.00  0.00    -0.390 OA
ATOM    116  C1  IDS d 504      24.494  24.117 108.933  0.00  0.00     0.161 C 
ATOM    117  O2  IDS d 504      22.692  24.506 110.445  0.00  0.00    -0.244 OA
ATOM    118  C5  IDS d 504      25.226  26.364 108.598  0.00  0.00     0.152 C 
ATOM    119  C4  IDS d 504      24.731  26.843 109.961  0.00  0.00     0.103 C 
ATOM    120  O5  IDS d 504      24.419  25.304 108.137  0.00  0.00    -0.340 OA
ATOM    121  O4  IDS d 504      23.389  27.296 109.863  0.00  0.00    -0.348 OA
ATOM    122  C2  IDS d 504      24.111  24.389 110.374  0.00  0.00     0.134 C 
ATOM    123  O1S IDS d 504      21.780  24.190 112.609  0.00  0.00    -0.572 OA
ATOM    124  O2S IDS d 504      20.430  23.752 110.725  0.00  0.00    -0.572 OA
ATOM    125  C3  IDS d 504      24.802  25.686 110.946  0.00  0.00     0.094 C 
ATOM    126  H   IDS d 504      26.601  26.226 111.540  0.00  0.00     0.210 HD
ATOM    127  H   IDS d 504      23.800  23.431 108.493  0.00  0.00     0.133 H 
ATOM    128  H   IDS d 504      26.229  26.030 108.760  0.00  0.00     0.104 H 
ATOM    129  H   IDS d 504      25.347  27.652 110.298  0.00  0.00     0.092 H 
ATOM    130  H   IDS d 504      24.454  23.574 110.977  0.00  0.00     0.097 H 
ATOM    131  H   IDS d 504      24.283  25.948 111.845  0.00  0.00     0.091 H 
ENDROOT
TORSDOF 40
ENDMDL
MODEL 73
REMARK VINA RESULT:      -8.1      3.936      6.915
REMARK  0 active torsions:
REMARK  status: ('A' for Active; 'I' for Inactive)
REMARK       I    between atoms: C6_1  and  C5_82 
REMARK       I    between atoms: O2_4  and  C2_65 
REMARK       I    between atoms: O2_4  and  S_6 
REMARK       I    between atoms: S2_5  and  O6_13 
REMARK       I    between atoms: C6_7  and  C5_66 
REMARK       I    between atoms: C6_7  and  O6_11 
REMARK       I    between atoms: S_8  and  O2_37 
REMARK       I    between atoms: O6_11  and  S2_34 
REMARK       I    between atoms: O6_13  and  C6_16 
REMARK       I    between atoms: C6_16  and  C5_76 
REMARK       I    between atoms: O2S_17  and  S1_21 
REMARK       I    between atoms: O4_18  and  C4_33 
REMARK       I    between atoms: C4_19  and  O4_25 
REMARK       I    between atoms: O3_20  and  C3_57 
REMARK       I    between atoms: S1_21  and  N_56 
REMARK       I    between atoms: S1_21  and  O1S_55 
REMARK       I    between atoms: S1_21  and  O3S_68 
REMARK       I    between atoms: O3_24  and  C3_80 
REMARK       I    between atoms: O4_25  and  C1_53 
REMARK       I    between atoms: S1_26  and  N_59 
REMARK       I    between atoms: S1_26  and  O1S_42 
REMARK       I    between atoms: S1_26  and  O2S_29 
REMARK       I    between atoms: S1_26  and  O3S_87 
REMARK       I    between atoms: S_30  and  O2_54 
REMARK       I    between atoms: C3_31  and  O3_61 
REMARK       I    between atoms: O4_36  and  C4_70 
REMARK       I    between atoms: O4_36  and  C1_52 
REMARK       I    between atoms: O2_37  and  C2_45 
REMARK       I    between atoms: C4_38  and  O4_71 
REMARK       I    between atoms: C1_39  and  O1_51 
REMARK       I    between atoms: C1_40  and  O4_71 
REMARK       I    between atoms: C6_46  and  C5_84 
REMARK       I    between atoms: C6_47  and  C5_64 
REMARK       I    between atoms: C1_48  and  O4_77 
REMARK       I    between atoms: O3_50  and  C3_86 
REMARK       I    between atoms: O2_54  and  C2_79 
REMARK       I    between atoms: N_56  and  C2_67 
REMARK       I    between atoms: C2_58  and  N_59 
REMARK       I    between atoms: C3_62  and  O3_81 
REMARK       I    between atoms: C4_69  and  O4_77 
ROOT
ATOM      1  C6  IDS d 506      15.006  20.022 106.025  0.00  0.00     0.206 C 
ATOM      2  O62 IDS d 506      14.548  19.404 105.079  0.00  0.00    -0.646 OA
ATOM      3  S   IDS d 506      15.119  26.284 106.386  0.00  0.00     0.252 S 
ATOM      4  O1S IDS d 506      14.953  26.292 104.965  0.00  0.00    -0.572 OA
ATOM      5  O3S IDS d 506      16.200  27.134 106.838  0.00  0.00    -0.572 OA
ATOM      6  O4  IDS d 506      13.937  22.690 105.163  0.00  0.00    -0.390 OA
ATOM      7  O3  IDS d 506      17.240  23.334 103.937  0.00  0.00    -0.390 OA
ATOM      8  C4  IDS d 506      15.243  22.301 104.807  0.00  0.00     0.097 C 
ATOM      9  O2  IDS d 506      15.567  24.802 106.742  0.00  0.00    -0.244 OA
ATOM     10  C2  IDS d 506      16.609  24.039 106.164  0.00  0.00     0.134 C 
ATOM     11  C1  IDS d 506      16.985  22.873 107.089  0.00  0.00     0.161 C 
ATOM     12  O2S IDS d 506      13.875  26.546 107.053  0.00  0.00    -0.572 OA
ATOM     13  O5  IDS d 506      15.936  21.938 107.072  0.00  0.00    -0.340 OA
ATOM     14  O61 IDS d 506      14.833  19.566 107.147  0.00  0.00    -0.646 OA
ATOM     15  C3  IDS d 506      16.107  23.579 104.767  0.00  0.00     0.094 C 
ATOM     16  C5  IDS d 506      15.787  21.310 105.841  0.00  0.00     0.152 C 
ATOM     17  H   IDS d 506      13.596  23.317 104.506  0.00  0.00     0.210 HD
ATOM     18  H   IDS d 506      16.942  23.045 103.060  0.00  0.00     0.210 HD
ATOM     19  H   IDS d 506      15.255  21.816 103.853  0.00  0.00     0.091 H 
ATOM     20  H   IDS d 506      17.506  24.609 106.039  0.00  0.00     0.097 H 
ATOM     21  H   IDS d 506      17.900  22.425 106.763  0.00  0.00     0.133 H 
ATOM     22  H   IDS d 506      15.486  24.362 104.384  0.00  0.00     0.091 H 
ATOM     23  H   IDS d 506      16.727  21.002 105.433  0.00  0.00     0.104 H 
ATOM     24  O62 IDS d 502      30.997  22.928 105.858  0.00  0.00    -0.646 OA
ATOM     25  O2  IDS d 502      30.348  24.865 111.125  0.00  0.00    -0.244 OA
ATOM     26  S   IDS d 502      29.602  26.029 111.857  0.00  0.00     0.252 S 
ATOM     27  O3  IDS d 502      33.034  25.849 108.964  0.00  0.00    -0.390 OA
ATOM     28  O2S IDS d 502      28.204  25.866 111.532  0.00  0.00    -0.572 OA
ATOM     29  C4  IDS d 502      30.951  24.900 108.221  0.00  0.00     0.103 C 
ATOM     30  C1  IDS d 502      32.082  23.405 110.430  0.00  0.00     0.158 C 
ATOM     31  O61 IDS d 502      30.163  21.671 107.280  0.00  0.00    -0.646 OA
ATOM     32  C6  IDS d 502      30.841  22.637 107.028  0.00  0.00     0.206 C 
ATOM     33  O1  IDS d 502      33.466  23.381 110.202  0.00  0.00    -0.368 OA
ATOM     34  C3  IDS d 502      31.685  25.658 109.344  0.00  0.00     0.094 C 
ATOM     35  O3S IDS d 502      29.900  25.837 113.252  0.00  0.00    -0.572 OA
ATOM     36  O5  IDS d 502      31.351  22.817 109.383  0.00  0.00    -0.340 OA
ATOM     37  C2  IDS d 502      31.667  24.856 110.649  0.00  0.00     0.134 C 
ATOM     38  O4  IDS d 502      29.573  24.877 108.490  0.00  0.00    -0.348 OA
ATOM     39  O1S IDS d 502      30.140  27.262 111.353  0.00  0.00    -0.572 OA
ATOM     40  C5  IDS d 502      31.476  23.468 108.134  0.00  0.00     0.152 C 
ATOM     41  H   IDS d 502      33.069  26.355 108.138  0.00  0.00     0.210 HD
ATOM     42  H   IDS d 502      31.126  25.397 107.290  0.00  0.00     0.092 H 
ATOM     43  H   IDS d 502      31.860  22.819 111.297  0.00  0.00     0.133 H 
ATOM     44  H   IDS d 502      33.673  23.910 109.416  0.00  0.00     0.212 HD
ATOM     45  H   IDS d 502      31.189  26.594 109.499  0.00  0.00     0.091 H 
ATOM     46  H   IDS d 502      32.357  25.299 111.336  0.00  0.00     0.097 H 
ATOM     47  H   IDS d 502      32.510  23.552 107.875  0.00  0.00     0.104 H 
ATOM     48  S2  SGN d 505      16.437  25.557 112.137  0.00  0.00     0.251 S 
ATOM     49  O6  SGN d 505      17.226  24.585 111.271  0.00  0.00    -0.254 OA
ATOM     50  O5S SGN d 505      16.808  25.219 113.489  0.00  0.00    -0.572 OA
ATOM     51  C6  SGN d 505      18.238  24.891 110.374  0.00  0.00     0.067 C 
ATOM     52  O2S SGN d 505      18.759  18.018 111.631  0.00  0.00    -0.296 OA
ATOM     53  S1  SGN d 505      20.087  18.542 111.413  0.00  0.00     0.156 S 
ATOM     54  O6S SGN d 505      16.861  26.899 111.762  0.00  0.00    -0.572 OA
ATOM     55  O4  SGN d 505      17.116  23.351 108.383  0.00  0.00    -0.348 OA
ATOM     56  O5  SGN d 505      19.400  23.026 111.095  0.00  0.00    -0.349 OA
ATOM     57  O4S SGN d 505      15.053  25.298 111.814  0.00  0.00    -0.572 OA
ATOM     58  C1  SGN d 505      20.123  21.854 110.845  0.00  0.00     0.150 C 
ATOM     59  O1S SGN d 505      20.549  19.355 112.519  0.00  0.00    -0.296 OA
ATOM     60  N   SGN d 505      19.944  19.541 110.075  0.00  0.00    -0.210 NA
ATOM     61  C3  SGN d 505      18.517  21.351 108.975  0.00  0.00     0.083 C 
ATOM     62  C2  SGN d 505      19.200  20.811 110.246  0.00  0.00     0.081 C 
ATOM     63  O3S SGN d 505      20.999  17.511 111.065  0.00  0.00    -0.296 OA
ATOM     64  C4  SGN d 505      17.768  22.642 109.416  0.00  0.00     0.095 C 
ATOM     65  C5  SGN d 505      18.804  23.572 109.958  0.00  0.00     0.091 C 
ATOM     66  O3  SGN d 505      17.595  20.374 108.508  0.00  0.00    -0.391 OA
ATOM     67  H   SGN d 505      18.989  25.490 110.846  0.00  0.00     0.080 H 
ATOM     68  H   SGN d 505      17.876  25.452 109.538  0.00  0.00     0.080 H 
ATOM     69  H   SGN d 505      18.160  18.745 111.867  0.00  0.00     0.231 HD
ATOM     70  H   SGN d 505      20.514  21.471 111.765  0.00  0.00     0.131 H 
ATOM     71  H   SGN d 505      19.890  20.040 112.713  0.00  0.00     0.231 HD
ATOM     72  H   SGN d 505      19.472  19.006 109.344  0.00  0.00     0.140 HD
ATOM     73  H   SGN d 505      19.210  21.561 108.186  0.00  0.00     0.089 H 
ATOM     74  H   SGN d 505      18.390  20.590 110.908  0.00  0.00     0.076 H 
ATOM     75  H   SGN d 505      20.640  17.000 110.322  0.00  0.00     0.231 HD
ATOM     76  H   SGN d 505      17.013  22.328 110.106  0.00  0.00     0.091 H 
ATOM     77  H   SGN d 505      19.506  23.715 109.163  0.00  0.00     0.090 H 
ATOM     78  H   SGN d 505      16.958  20.170 109.210  0.00  0.00     0.210 HD
ATOM     79  C6  SGN d 503      27.201  21.850 107.054  0.00  0.00     0.067 C 
ATOM     80  O6  SGN d 503      26.491  22.141 105.870  0.00  0.00    -0.254 OA
ATOM     81  C4  SGN d 503      26.221  23.959 108.122  0.00  0.00     0.095 C 
ATOM     82  O5  SGN d 503      28.277  23.866 106.852  0.00  0.00    -0.349 OA
ATOM     83  O4  SGN d 503      25.517  23.258 109.093  0.00  0.00    -0.348 OA
ATOM     84  S1  SGN d 503      28.379  28.432 107.153  0.00  0.00     0.156 S 
ATOM     85  O4S SGN d 503      26.718  19.944 104.899  0.00  0.00    -0.572 OA
ATOM     86  O2S SGN d 503      27.228  28.585 106.265  0.00  0.00    -0.296 OA
ATOM     87  C3  SGN d 503      26.615  25.318 108.695  0.00  0.00     0.083 C 
ATOM     88  S2  SGN d 503      26.548  21.315 104.557  0.00  0.00     0.251 S 
ATOM     89  O5S SGN d 503      25.294  21.550 103.849  0.00  0.00    -0.572 OA
ATOM     90  C1  SGN d 503      28.753  25.083 107.372  0.00  0.00     0.150 C 
ATOM     91  O1S SGN d 503      29.562  27.986 106.441  0.00  0.00    -0.296 OA
ATOM     92  O6S SGN d 503      27.703  21.799 103.907  0.00  0.00    -0.572 OA
ATOM     93  C2  SGN d 503      27.565  25.991 107.722  0.00  0.00     0.081 C 
ATOM     94  N   SGN d 503      28.034  27.266 108.235  0.00  0.00    -0.210 NA
ATOM     95  O3  SGN d 503      25.440  26.094 108.836  0.00  0.00    -0.391 OA
ATOM     96  C5  SGN d 503      27.479  23.157 107.748  0.00  0.00     0.091 C 
ATOM     97  O3S SGN d 503      28.636  29.588 107.983  0.00  0.00    -0.296 OA
ATOM     98  H   SGN d 503      26.612  21.219 107.687  0.00  0.00     0.080 H 
ATOM     99  H   SGN d 503      28.115  21.341 106.830  0.00  0.00     0.080 H 
ATOM    100  H   SGN d 503      25.622  24.103 107.247  0.00  0.00     0.091 H 
ATOM    101  H   SGN d 503      27.115  27.777 105.740  0.00  0.00     0.231 HD
ATOM    102  H   SGN d 503      27.094  25.213 109.646  0.00  0.00     0.089 H 
ATOM    103  H   SGN d 503      29.353  25.561 106.626  0.00  0.00     0.131 H 
ATOM    104  H   SGN d 503      29.340  27.212 105.900  0.00  0.00     0.231 HD
ATOM    105  H   SGN d 503      27.015  26.174 106.823  0.00  0.00     0.076 H 
ATOM    106  H   SGN d 503      27.311  27.629 108.855  0.00  0.00     0.140 HD
ATOM    107  H   SGN d 503      25.009  26.188 107.972  0.00  0.00     0.210 HD
ATOM    108  H   SGN d 503      27.950  22.978 108.691  0.00  0.00     0.090 H 
ATOM    109  H   SGN d 503      29.409  29.417 108.544  0.00  0.00     0.231 HD
ATOM    110  O61 IDS d 504      21.117  25.186 108.622  0.00  0.00    -0.646 OA
ATOM    111  O62 IDS d 504      21.652  25.944 110.512  0.00  0.00    -0.646 OA
ATOM    112  O3S IDS d 504      25.029  19.066 108.122  0.00  0.00    -0.572 OA
ATOM    113  S   IDS d 504      23.641  19.025 108.396  0.00  0.00     0.252 S 
ATOM    114  C6  IDS d 504      21.801  25.093 109.633  0.00  0.00     0.206 C 
ATOM    115  O3  IDS d 504      24.383  22.394 111.709  0.00  0.00    -0.390 OA
ATOM    116  C1  IDS d 504      24.377  22.605 108.612  0.00  0.00     0.161 C 
ATOM    117  O2  IDS d 504      23.299  20.482 108.755  0.00  0.00    -0.244 OA
ATOM    118  C5  IDS d 504      22.798  23.935 109.809  0.00  0.00     0.152 C 
ATOM    119  C4  IDS d 504      22.295  22.769 110.657  0.00  0.00     0.103 C 
ATOM    120  O5  IDS d 504      23.235  23.466 108.554  0.00  0.00    -0.340 OA
ATOM    121  O4  IDS d 504      21.212  22.122 110.005  0.00  0.00    -0.348 OA
ATOM    122  C2  IDS d 504      24.116  21.395 109.485  0.00  0.00     0.134 C 
ATOM    123  O1S IDS d 504      23.352  18.251 109.548  0.00  0.00    -0.572 OA
ATOM    124  O2S IDS d 504      22.818  18.646 107.285  0.00  0.00    -0.572 OA
ATOM    125  C3  IDS d 504      23.430  21.776 110.853  0.00  0.00     0.094 C 
ATOM    126  H   IDS d 504      23.958  22.628 112.550  0.00  0.00     0.210 HD
ATOM    127  H   IDS d 504      24.556  22.296 107.603  0.00  0.00     0.133 H 
ATOM    128  H   IDS d 504      23.614  24.356 110.359  0.00  0.00     0.104 H 
ATOM    129  H   IDS d 504      21.960  23.138 111.604  0.00  0.00     0.092 H 
ATOM    130  H   IDS d 504      25.054  20.945 109.734  0.00  0.00     0.097 H 
ATOM    131  H   IDS d 504      23.045  20.871 111.276  0.00  0.00     0.091 H 
ENDROOT
TORSDOF 40
ENDMDL
