MODEL 1
REMARK VINA RESULT:      -7.2      0.000      0.000
REMARK  0 active torsions:
REMARK  status: ('A' for Active; 'I' for Inactive)
REMARK       I    between atoms: O15_1  and  C10_4 
REMARK       I    between atoms: S20_2  and  N14_26 
REMARK       I    between atoms: S20_2  and  O28_25 
REMARK       I    between atoms: S20_2  and  O29_35 
REMARK       I    between atoms: S20_2  and  O30_33 
REMARK       I    between atoms: C7_3  and  O3_29 
REMARK       I    between atoms: C6_5  and  C2_23 
REMARK       I    between atoms: C6_5  and  O11_28 
REMARK       I    between atoms: S16_6  and  O11_28 
REMARK       I    between atoms: C19_8  and  C27_10 
REMARK       I    between atoms: C8_11  and  N14_26 
REMARK       I    between atoms: O9_14  and  C4_30 
REMARK       I    between atoms: S26_18  and  O18_24 
REMARK       I    between atoms: O25_19  and  C17_21 
REMARK       I    between atoms: C12_20  and  O18_24 
REMARK       I    between atoms: O3_29  and  C1_31 
ROOT
ATOM      1  O15 H1S d  68     -18.141  -0.991   5.507  0.00  0.00    -0.369 OA
ATOM      2  S20 H1S d  68     -17.143  -0.277   8.701  0.00  0.00     0.156 S 
ATOM      3  C7  H1S d  68     -23.977  -1.110   8.101  0.00  0.00     0.167 C 
ATOM      4  C10 H1S d  68     -19.298  -1.427   6.250  0.00  0.00     0.147 C 
ATOM      5  C6  H1S d  68     -21.709  -4.120   6.281  0.00  0.00     0.067 C 
ATOM      6  S16 H1S d  68     -22.460  -6.578   6.584  0.00  0.00     0.251 S 
ATOM      7  O13 H1S d  68     -24.054   0.214   7.472  0.00  0.00    -0.311 OA
ATOM      8  C19 H1S d  68     -25.338   0.713   7.521  0.00  0.00     0.147 C 
ATOM      9  O34 H1S d  68     -26.995   2.076   6.313  0.00  0.00    -0.642 OA
ATOM     10  C27 H1S d  68     -25.838   1.591   6.319  0.00  0.00     0.233 C 
ATOM     11  C8  H1S d  68     -19.439  -0.495   7.461  0.00  0.00     0.081 C 
ATOM     12  O22 H1S d  68     -23.204  -7.452   7.562  0.00  0.00    -0.572 OA
ATOM     13  O23 H1S d  68     -21.120  -7.239   6.332  0.00  0.00    -0.572 OA
ATOM     14  O9  H1S d  68     -21.344   0.710   6.924  0.00  0.00    -0.391 OA
ATOM     15  O21 H1S d  68     -23.241  -6.508   5.280  0.00  0.00    -0.572 OA
ATOM     16  C24 H1S d  68     -26.152   0.428   8.645  0.00  0.00    -0.034 C 
ATOM     17  O35 H1S d  68     -25.037   1.772   5.391  0.00  0.00    -0.642 OA
ATOM     18  S26 H1S d  68     -22.035  -1.959  10.726  0.00  0.00     0.252 S 
ATOM     19  O25 H1S d  68     -25.937   0.246  11.106  0.00  0.00    -0.389 OA
ATOM     20  C12 H1S d  68     -24.125  -0.793   9.624  0.00  0.00     0.135 C 
ATOM     21  C17 H1S d  68     -25.645  -0.443   9.848  0.00  0.00     0.086 C 
ATOM     22  O5  H1S d  68     -19.486  -2.857   6.642  0.00  0.00    -0.350 OA
ATOM     23  C2  H1S d  68     -20.888  -3.044   7.077  0.00  0.00     0.091 C 
ATOM     24  O18 H1S d  68     -23.536  -1.833  10.521  0.00  0.00    -0.244 OA
ATOM     25  O28 H1S d  68     -16.300  -1.204   7.864  0.00  0.00    -0.296 OA
ATOM     26  N14 H1S d  68     -18.705  -0.936   8.695  0.00  0.00    -0.210 NA
ATOM     27  O31 H1S d  68     -21.324  -0.634  10.514  0.00  0.00    -0.572 OA
ATOM     28  O11 H1S d  68     -22.261  -5.204   7.136  0.00  0.00    -0.254 OA
ATOM     29  O3  H1S d  68     -22.903  -2.068   7.771  0.00  0.00    -0.348 OA
ATOM     30  C4  H1S d  68     -20.931  -0.433   7.660  0.00  0.00     0.083 C 
ATOM     31  C1  H1S d  68     -21.674  -1.685   7.078  0.00  0.00     0.095 C 
ATOM     32  O33 H1S d  68     -21.470  -2.988   9.777  0.00  0.00    -0.572 OA
ATOM     33  O30 H1S d  68     -17.265   1.090   8.071  0.00  0.00    -0.296 OA
ATOM     34  O32 H1S d  68     -21.724  -2.517  12.105  0.00  0.00    -0.572 OA
ATOM     35  O29 H1S d  68     -16.498  -0.126  10.051  0.00  0.00    -0.296 OA
ATOM     36  H   H1S d  68     -18.021  -1.560   4.731  0.00  0.00     0.212 HD
ATOM     37  H   H1S d  68     -24.748  -1.716   7.673  0.00  0.00     0.134 H 
ATOM     38  H   H1S d  68     -20.085  -1.364   5.527  0.00  0.00     0.131 H 
ATOM     39  H   H1S d  68     -21.065  -4.562   5.548  0.00  0.00     0.080 H 
ATOM     40  H   H1S d  68     -22.543  -3.614   5.840  0.00  0.00     0.080 H 
ATOM     41  H   H1S d  68     -18.986   0.457   7.280  0.00  0.00     0.076 H 
ATOM     42  H   H1S d  68     -20.894   1.497   7.269  0.00  0.00     0.210 HD
ATOM     43  H   H1S d  68     -27.112   0.805   8.674  0.00  0.00     0.085 H 
ATOM     44  H   H1S d  68     -26.888   0.424  11.164  0.00  0.00     0.210 HD
ATOM     45  H   H1S d  68     -23.532   0.050   9.912  0.00  0.00     0.097 H 
ATOM     46  H   H1S d  68     -26.161  -1.378   9.907  0.00  0.00     0.093 H 
ATOM     47  H   H1S d  68     -20.794  -3.425   8.073  0.00  0.00     0.090 H 
ATOM     48  H   H1S d  68     -16.244  -2.070   8.298  0.00  0.00     0.231 HD
ATOM     49  H   H1S d  68     -19.210  -0.617   9.522  0.00  0.00     0.140 HD
ATOM     50  H   H1S d  68     -21.161  -0.397   8.705  0.00  0.00     0.089 H 
ATOM     51  H   H1S d  68     -21.832  -1.300   6.092  0.00  0.00     0.091 H 
ATOM     52  H   H1S d  68     -17.680   1.007   7.198  0.00  0.00     0.231 HD
ATOM     53  H   H1S d  68     -16.413  -0.997  10.468  0.00  0.00     0.231 HD
ENDROOT
TORSDOF 16
ENDMDL
MODEL 2
REMARK VINA RESULT:      -7.1      3.038      6.711
REMARK  0 active torsions:
REMARK  status: ('A' for Active; 'I' for Inactive)
REMARK       I    between atoms: O15_1  and  C10_4 
REMARK       I    between atoms: S20_2  and  N14_26 
REMARK       I    between atoms: S20_2  and  O28_25 
REMARK       I    between atoms: S20_2  and  O29_35 
REMARK       I    between atoms: S20_2  and  O30_33 
REMARK       I    between atoms: C7_3  and  O3_29 
REMARK       I    between atoms: C6_5  and  C2_23 
REMARK       I    between atoms: C6_5  and  O11_28 
REMARK       I    between atoms: S16_6  and  O11_28 
REMARK       I    between atoms: C19_8  and  C27_10 
REMARK       I    between atoms: C8_11  and  N14_26 
REMARK       I    between atoms: O9_14  and  C4_30 
REMARK       I    between atoms: S26_18  and  O18_24 
REMARK       I    between atoms: O25_19  and  C17_21 
REMARK       I    between atoms: C12_20  and  O18_24 
REMARK       I    between atoms: O3_29  and  C1_31 
ROOT
ATOM      1  O15 H1S d  68     -17.501   2.660  10.569  0.00  0.00    -0.369 OA
ATOM      2  S20 H1S d  68     -15.839   2.356   7.595  0.00  0.00     0.156 S 
ATOM      3  C7  H1S d  68     -21.326  -1.816   8.089  0.00  0.00     0.167 C 
ATOM      4  C10 H1S d  68     -18.513   2.018   9.765  0.00  0.00     0.147 C 
ATOM      5  C6  H1S d  68     -22.077   2.154   9.180  0.00  0.00     0.067 C 
ATOM      6  S16 H1S d  68     -24.268   3.261   8.359  0.00  0.00     0.251 S 
ATOM      7  O13 H1S d  68     -20.554  -2.677   8.992  0.00  0.00    -0.311 OA
ATOM      8  C19 H1S d  68     -21.105  -3.937   9.070  0.00  0.00     0.147 C 
ATOM      9  O34 H1S d  68     -21.505  -5.850  10.567  0.00  0.00    -0.642 OA
ATOM     10  C27 H1S d  68     -21.024  -4.698  10.441  0.00  0.00     0.233 C 
ATOM     11  C8  H1S d  68     -17.790   1.081   8.787  0.00  0.00     0.081 C 
ATOM     12  O22 H1S d  68     -25.258   3.175   7.224  0.00  0.00    -0.572 OA
ATOM     13  O23 H1S d  68     -23.818   4.705   8.444  0.00  0.00    -0.572 OA
ATOM     14  O9  H1S d  68     -18.376  -1.008   9.599  0.00  0.00    -0.391 OA
ATOM     15  O21 H1S d  68     -24.959   2.872   9.657  0.00  0.00    -0.572 OA
ATOM     16  C24 H1S d  68     -21.715  -4.501   7.921  0.00  0.00    -0.034 C 
ATOM     17  O35 H1S d  68     -20.468  -4.105  11.375  0.00  0.00    -0.642 OA
ATOM     18  S26 H1S d  68     -20.163  -0.284   5.317  0.00  0.00     0.252 S 
ATOM     19  O25 H1S d  68     -21.331  -4.624   5.478  0.00  0.00    -0.389 OA
ATOM     20  C12 H1S d  68     -20.989  -2.386   6.674  0.00  0.00     0.135 C 
ATOM     21  C17 H1S d  68     -21.786  -3.740   6.551  0.00  0.00     0.086 C 
ATOM     22  O5  H1S d  68     -19.581   2.803   9.073  0.00  0.00    -0.350 OA
ATOM     23  C2  H1S d  68     -20.636   1.867   8.627  0.00  0.00     0.091 C 
ATOM     24  O18 H1S d  68     -21.165  -1.401   5.564  0.00  0.00    -0.244 OA
ATOM     25  O28 H1S d  68     -16.008   3.727   8.198  0.00  0.00    -0.296 OA
ATOM     26  N14 H1S d  68     -17.399   1.703   7.477  0.00  0.00    -0.210 NA
ATOM     27  O31 H1S d  68     -18.773  -0.656   5.802  0.00  0.00    -0.572 OA
ATOM     28  O11 H1S d  68     -23.095   2.369   8.116  0.00  0.00    -0.254 OA
ATOM     29  O3  H1S d  68     -21.280  -0.343   8.188  0.00  0.00    -0.348 OA
ATOM     30  C4  H1S d  68     -18.771  -0.050   8.626  0.00  0.00     0.083 C 
ATOM     31  C1  H1S d  68     -20.248   0.377   8.932  0.00  0.00     0.095 C 
ATOM     32  O33 H1S d  68     -20.616   0.977   6.011  0.00  0.00    -0.572 OA
ATOM     33  O30 H1S d  68     -15.068   1.434   8.508  0.00  0.00    -0.296 OA
ATOM     34  O32 H1S d  68     -20.131   0.095   3.845  0.00  0.00    -0.572 OA
ATOM     35  O29 H1S d  68     -15.083   2.490   6.302  0.00  0.00    -0.296 OA
ATOM     36  H   H1S d  68     -17.924   3.262  11.201  0.00  0.00     0.212 HD
ATOM     37  H   H1S d  68     -22.352  -1.876   8.385  0.00  0.00     0.134 H 
ATOM     38  H   H1S d  68     -19.129   1.536  10.494  0.00  0.00     0.131 H 
ATOM     39  H   H1S d  68     -22.036   3.033   9.790  0.00  0.00     0.080 H 
ATOM     40  H   H1S d  68     -22.378   1.288   9.731  0.00  0.00     0.080 H 
ATOM     41  H   H1S d  68     -16.836   0.779   9.166  0.00  0.00     0.076 H 
ATOM     42  H   H1S d  68     -17.463  -1.286   9.428  0.00  0.00     0.210 HD
ATOM     43  H   H1S d  68     -22.126  -5.445   7.988  0.00  0.00     0.085 H 
ATOM     44  H   H1S d  68     -21.871  -5.430   5.472  0.00  0.00     0.210 HD
ATOM     45  H   H1S d  68     -19.945  -2.592   6.568  0.00  0.00     0.097 H 
ATOM     46  H   H1S d  68     -22.790  -3.472   6.297  0.00  0.00     0.093 H 
ATOM     47  H   H1S d  68     -20.689   2.034   7.571  0.00  0.00     0.090 H 
ATOM     48  H   H1S d  68     -16.506   4.290   7.585  0.00  0.00     0.231 HD
ATOM     49  H   H1S d  68     -17.414   0.992   6.746  0.00  0.00     0.140 HD
ATOM     50  H   H1S d  68     -18.757  -0.408   7.618  0.00  0.00     0.089 H 
ATOM     51  H   H1S d  68     -20.236   0.162   9.980  0.00  0.00     0.091 H 
ATOM     52  H   H1S d  68     -15.545   1.338   9.347  0.00  0.00     0.231 HD
ATOM     53  H   H1S d  68     -15.567   3.080   5.703  0.00  0.00     0.231 HD
ENDROOT
TORSDOF 16
ENDMDL
MODEL 3
REMARK VINA RESULT:      -7.1      2.588      6.753
REMARK  0 active torsions:
REMARK  status: ('A' for Active; 'I' for Inactive)
REMARK       I    between atoms: O15_1  and  C10_4 
REMARK       I    between atoms: S20_2  and  N14_26 
REMARK       I    between atoms: S20_2  and  O28_25 
REMARK       I    between atoms: S20_2  and  O29_35 
REMARK       I    between atoms: S20_2  and  O30_33 
REMARK       I    between atoms: C7_3  and  O3_29 
REMARK       I    between atoms: C6_5  and  C2_23 
REMARK       I    between atoms: C6_5  and  O11_28 
REMARK       I    between atoms: S16_6  and  O11_28 
REMARK       I    between atoms: C19_8  and  C27_10 
REMARK       I    between atoms: C8_11  and  N14_26 
REMARK       I    between atoms: O9_14  and  C4_30 
REMARK       I    between atoms: S26_18  and  O18_24 
REMARK       I    between atoms: O25_19  and  C17_21 
REMARK       I    between atoms: C12_20  and  O18_24 
REMARK       I    between atoms: O3_29  and  C1_31 
ROOT
ATOM      1  O15 H1S d  68     -23.286  -4.179   8.388  0.00  0.00    -0.369 OA
ATOM      2  S20 H1S d  68     -20.844  -4.460  10.767  0.00  0.00     0.156 S 
ATOM      3  C7  H1S d  68     -19.922   0.926   6.535  0.00  0.00     0.167 C 
ATOM      4  C10 H1S d  68     -22.728  -2.849   8.352  0.00  0.00     0.147 C 
ATOM      5  C6  H1S d  68     -23.797   0.593   8.079  0.00  0.00     0.067 C 
ATOM      6  S16 H1S d  68     -24.981   2.742   8.902  0.00  0.00     0.251 S 
ATOM      7  O13 H1S d  68     -19.479  -0.007   5.492  0.00  0.00    -0.311 OA
ATOM      8  C19 H1S d  68     -18.764   0.646   4.512  0.00  0.00     0.147 C 
ATOM      9  O34 H1S d  68     -18.268   0.694   2.101  0.00  0.00    -0.642 OA
ATOM     10  C27 H1S d  68     -18.901   0.140   3.032  0.00  0.00     0.233 C 
ATOM     11  C8  H1S d  68     -21.225  -2.979   8.642  0.00  0.00     0.081 C 
ATOM     12  O22 H1S d  68     -24.657   4.102   9.468  0.00  0.00    -0.572 OA
ATOM     13  O23 H1S d  68     -25.961   2.090   9.856  0.00  0.00    -0.572 OA
ATOM     14  O9  H1S d  68     -20.291  -2.465   6.584  0.00  0.00    -0.391 OA
ATOM     15  O21 H1S d  68     -25.639   2.910   7.541  0.00  0.00    -0.572 OA
ATOM     16  C24 H1S d  68     -17.932   1.737   4.870  0.00  0.00    -0.034 C 
ATOM     17  O35 H1S d  68     -19.657  -0.822   2.841  0.00  0.00    -0.642 OA
ATOM     18  S26 H1S d  68     -19.162   0.749   9.818  0.00  0.00     0.252 S 
ATOM     19  O25 H1S d  68     -16.376   2.378   6.685  0.00  0.00    -0.389 OA
ATOM     20  C12 H1S d  68     -18.600   1.266   7.296  0.00  0.00     0.135 C 
ATOM     21  C17 H1S d  68     -17.792   2.235   6.351  0.00  0.00     0.086 C 
ATOM     22  O5  H1S d  68     -23.333  -1.721   9.125  0.00  0.00    -0.350 OA
ATOM     23  C2  H1S d  68     -22.760  -0.451   8.627  0.00  0.00     0.091 C 
ATOM     24  O18 H1S d  68     -18.809   1.722   8.704  0.00  0.00    -0.244 OA
ATOM     25  O28 H1S d  68     -22.273  -4.746  11.152  0.00  0.00    -0.296 OA
ATOM     26  N14 H1S d  68     -20.847  -2.904  10.093  0.00  0.00    -0.210 NA
ATOM     27  O31 H1S d  68     -18.642  -0.649   9.531  0.00  0.00    -0.572 OA
ATOM     28  O11 H1S d  68     -23.750   1.906   8.777  0.00  0.00    -0.254 OA
ATOM     29  O3  H1S d  68     -21.076   0.629   7.406  0.00  0.00    -0.348 OA
ATOM     30  C4  H1S d  68     -20.633  -1.861   7.825  0.00  0.00     0.083 C 
ATOM     31  C1  H1S d  68     -21.655  -0.706   7.542  0.00  0.00     0.095 C 
ATOM     32  O33 H1S d  68     -20.659   0.699  10.003  0.00  0.00    -0.572 OA
ATOM     33  O30 H1S d  68     -20.362  -5.385   9.676  0.00  0.00    -0.296 OA
ATOM     34  O32 H1S d  68     -18.640   1.249  11.155  0.00  0.00    -0.572 OA
ATOM     35  O29 H1S d  68     -19.972  -4.651  11.977  0.00  0.00    -0.296 OA
ATOM     36  H   H1S d  68     -24.238  -4.135   8.208  0.00  0.00     0.212 HD
ATOM     37  H   H1S d  68     -20.406   1.746   6.050  0.00  0.00     0.134 H 
ATOM     38  H   H1S d  68     -22.979  -2.509   7.368  0.00  0.00     0.131 H 
ATOM     39  H   H1S d  68     -24.780   0.185   8.194  0.00  0.00     0.080 H 
ATOM     40  H   H1S d  68     -23.547   0.774   7.055  0.00  0.00     0.080 H 
ATOM     41  H   H1S d  68     -20.858  -3.949   8.381  0.00  0.00     0.076 H 
ATOM     42  H   H1S d  68     -19.659  -3.183   6.738  0.00  0.00     0.210 HD
ATOM     43  H   H1S d  68     -17.400   2.221   4.130  0.00  0.00     0.085 H 
ATOM     44  H   H1S d  68     -15.955   2.987   6.059  0.00  0.00     0.210 HD
ATOM     45  H   H1S d  68     -18.010   0.392   7.476  0.00  0.00     0.097 H 
ATOM     46  H   H1S d  68     -18.220   3.206   6.486  0.00  0.00     0.093 H 
ATOM     47  H   H1S d  68     -22.333  -0.008   9.503  0.00  0.00     0.090 H 
ATOM     48  H   H1S d  68     -22.547  -4.134  11.852  0.00  0.00     0.231 HD
ATOM     49  H   H1S d  68     -19.916  -2.496  10.179  0.00  0.00     0.140 HD
ATOM     50  H   H1S d  68     -19.809  -1.420   8.348  0.00  0.00     0.089 H 
ATOM     51  H   H1S d  68     -22.056  -1.102   6.632  0.00  0.00     0.091 H 
ATOM     52  H   H1S d  68     -20.917  -5.273   8.888  0.00  0.00     0.231 HD
ATOM     53  H   H1S d  68     -20.270  -4.061  12.687  0.00  0.00     0.231 HD
ENDROOT
TORSDOF 16
ENDMDL
MODEL 4
REMARK VINA RESULT:      -7.0      3.360      6.909
REMARK  0 active torsions:
REMARK  status: ('A' for Active; 'I' for Inactive)
REMARK       I    between atoms: O15_1  and  C10_4 
REMARK       I    between atoms: S20_2  and  N14_26 
REMARK       I    between atoms: S20_2  and  O28_25 
REMARK       I    between atoms: S20_2  and  O29_35 
REMARK       I    between atoms: S20_2  and  O30_33 
REMARK       I    between atoms: C7_3  and  O3_29 
REMARK       I    between atoms: C6_5  and  C2_23 
REMARK       I    between atoms: C6_5  and  O11_28 
REMARK       I    between atoms: S16_6  and  O11_28 
REMARK       I    between atoms: C19_8  and  C27_10 
REMARK       I    between atoms: C8_11  and  N14_26 
REMARK       I    between atoms: O9_14  and  C4_30 
REMARK       I    between atoms: S26_18  and  O18_24 
REMARK       I    between atoms: O25_19  and  C17_21 
REMARK       I    between atoms: C12_20  and  O18_24 
REMARK       I    between atoms: O3_29  and  C1_31 
ROOT
ATOM      1  O15 H1S d  68     -17.659   1.212  11.144  0.00  0.00    -0.369 OA
ATOM      2  S20 H1S d  68     -15.736   2.694   8.734  0.00  0.00     0.156 S 
ATOM      3  C7  H1S d  68     -21.028  -0.926   6.156  0.00  0.00     0.167 C 
ATOM      4  C10 H1S d  68     -18.565   1.172  10.022  0.00  0.00     0.147 C 
ATOM      5  C6  H1S d  68     -22.069   1.657   9.279  0.00  0.00     0.067 C 
ATOM      6  S16 H1S d  68     -24.235   3.055   9.048  0.00  0.00     0.251 S 
ATOM      7  O13 H1S d  68     -20.293  -2.160   6.456  0.00  0.00    -0.311 OA
ATOM      8  C19 H1S d  68     -20.785  -3.223   5.729  0.00  0.00     0.147 C 
ATOM      9  O34 H1S d  68     -21.213  -5.646   5.779  0.00  0.00    -0.642 OA
ATOM     10  C27 H1S d  68     -20.783  -4.643   6.397  0.00  0.00     0.233 C 
ATOM     11  C8  H1S d  68     -17.715   0.979   8.758  0.00  0.00     0.081 C 
ATOM     12  O22 H1S d  68     -25.119   3.659   7.986  0.00  0.00    -0.572 OA
ATOM     13  O23 H1S d  68     -23.867   4.171  10.004  0.00  0.00    -0.572 OA
ATOM     14  O9  H1S d  68     -18.262  -1.184   8.134  0.00  0.00    -0.391 OA
ATOM     15  O21 H1S d  68     -25.014   1.985   9.798  0.00  0.00    -0.572 OA
ATOM     16  C24 H1S d  68     -21.265  -3.000   4.414  0.00  0.00    -0.034 C 
ATOM     17  O35 H1S d  68     -20.338  -4.715   7.551  0.00  0.00    -0.642 OA
ATOM     18  S26 H1S d  68     -19.713   1.929   4.931  0.00  0.00     0.252 S 
ATOM     19  O25 H1S d  68     -20.670  -1.672   2.411  0.00  0.00    -0.389 OA
ATOM     20  C12 H1S d  68     -20.544  -0.562   4.715  0.00  0.00     0.135 C 
ATOM     21  C17 H1S d  68     -21.258  -1.581   3.747  0.00  0.00     0.086 C 
ATOM     22  O5  H1S d  68     -19.608   2.224   9.817  0.00  0.00    -0.350 OA
ATOM     23  C2  H1S d  68     -20.573   1.736   8.807  0.00  0.00     0.091 C 
ATOM     24  O18 H1S d  68     -20.674   0.888   4.379  0.00  0.00    -0.244 OA
ATOM     25  O28 H1S d  68     -16.026   3.452  10.004  0.00  0.00    -0.296 OA
ATOM     26  N14 H1S d  68     -17.246   2.248   8.105  0.00  0.00    -0.210 NA
ATOM     27  O31 H1S d  68     -18.352   1.330   5.241  0.00  0.00    -0.572 OA
ATOM     28  O11 H1S d  68     -23.002   2.464   8.447  0.00  0.00    -0.254 OA
ATOM     29  O3  H1S d  68     -21.065   0.208   7.100  0.00  0.00    -0.348 OA
ATOM     30  C4  H1S d  68     -18.620   0.166   7.871  0.00  0.00     0.083 C 
ATOM     31  C1  H1S d  68     -20.138   0.346   8.221  0.00  0.00     0.095 C 
ATOM     32  O33 H1S d  68     -20.286   2.547   6.182  0.00  0.00    -0.572 OA
ATOM     33  O30 H1S d  68     -15.001   1.404   9.007  0.00  0.00    -0.296 OA
ATOM     34  O32 H1S d  68     -19.575   3.098   3.969  0.00  0.00    -0.572 OA
ATOM     35  O29 H1S d  68     -14.881   3.553   7.844  0.00  0.00    -0.296 OA
ATOM     36  H   H1S d  68     -18.164   1.333  11.963  0.00  0.00     0.212 HD
ATOM     37  H   H1S d  68     -22.071  -1.140   6.258  0.00  0.00     0.134 H 
ATOM     38  H   H1S d  68     -19.216   0.359  10.267  0.00  0.00     0.131 H 
ATOM     39  H   H1S d  68     -22.124   2.011  10.288  0.00  0.00     0.080 H 
ATOM     40  H   H1S d  68     -22.372   0.635   9.188  0.00  0.00     0.080 H 
ATOM     41  H   H1S d  68     -16.783   0.504   8.980  0.00  0.00     0.076 H 
ATOM     42  H   H1S d  68     -17.325  -1.317   7.924  0.00  0.00     0.210 HD
ATOM     43  H   H1S d  68     -21.632  -3.801   3.876  0.00  0.00     0.085 H 
ATOM     44  H   H1S d  68     -21.166  -2.316   1.883  0.00  0.00     0.210 HD
ATOM     45  H   H1S d  68     -19.485  -0.676   4.613  0.00  0.00     0.097 H 
ATOM     46  H   H1S d  68     -22.250  -1.206   3.600  0.00  0.00     0.093 H 
ATOM     47  H   H1S d  68     -20.545   2.490   8.049  0.00  0.00     0.090 H 
ATOM     48  H   H1S d  68     -16.497   4.272   9.790  0.00  0.00     0.231 HD
ATOM     49  H   H1S d  68     -17.163   2.100   7.099  0.00  0.00     0.140 HD
ATOM     50  H   H1S d  68     -18.503   0.467   6.851  0.00  0.00     0.089 H 
ATOM     51  H   H1S d  68     -20.204  -0.442   8.941  0.00  0.00     0.091 H 
ATOM     52  H   H1S d  68     -15.542   0.839   9.581  0.00  0.00     0.231 HD
ATOM     53  H   H1S d  68     -15.342   4.387   7.659  0.00  0.00     0.231 HD
ENDROOT
TORSDOF 16
ENDMDL
MODEL 5
REMARK VINA RESULT:      -7.0      2.310      6.839
REMARK  0 active torsions:
REMARK  status: ('A' for Active; 'I' for Inactive)
REMARK       I    between atoms: O15_1  and  C10_4 
REMARK       I    between atoms: S20_2  and  N14_26 
REMARK       I    between atoms: S20_2  and  O28_25 
REMARK       I    between atoms: S20_2  and  O29_35 
REMARK       I    between atoms: S20_2  and  O30_33 
REMARK       I    between atoms: C7_3  and  O3_29 
REMARK       I    between atoms: C6_5  and  C2_23 
REMARK       I    between atoms: C6_5  and  O11_28 
REMARK       I    between atoms: S16_6  and  O11_28 
REMARK       I    between atoms: C19_8  and  C27_10 
REMARK       I    between atoms: C8_11  and  N14_26 
REMARK       I    between atoms: O9_14  and  C4_30 
REMARK       I    between atoms: S26_18  and  O18_24 
REMARK       I    between atoms: O25_19  and  C17_21 
REMARK       I    between atoms: C12_20  and  O18_24 
REMARK       I    between atoms: O3_29  and  C1_31 
ROOT
ATOM      1  O15 H1S d  68     -25.114   0.647   7.568  0.00  0.00    -0.369 OA
ATOM      2  S20 H1S d  68     -26.053  -0.098  10.772  0.00  0.00     0.156 S 
ATOM      3  C7  H1S d  68     -21.821  -4.810   8.005  0.00  0.00     0.167 C 
ATOM      4  C10 H1S d  68     -24.096  -0.311   7.925  0.00  0.00     0.147 C 
ATOM      5  C6  H1S d  68     -20.546  -0.853   7.520  0.00  0.00     0.067 C 
ATOM      6  S16 H1S d  68     -18.043  -0.314   7.899  0.00  0.00     0.251 S 
ATOM      7  O13 H1S d  68     -22.946  -5.307   7.204  0.00  0.00    -0.311 OA
ATOM      8  C19 H1S d  68     -22.701  -6.581   6.740  0.00  0.00     0.147 C 
ATOM      9  O34 H1S d  68     -23.070  -8.124   4.857  0.00  0.00    -0.642 OA
ATOM     10  C27 H1S d  68     -23.259  -6.975   5.326  0.00  0.00     0.233 C 
ATOM     11  C8  H1S d  68     -24.745  -1.333   8.869  0.00  0.00     0.081 C 
ATOM     12  O22 H1S d  68     -16.853  -0.813   8.680  0.00  0.00    -0.572 OA
ATOM     13  O23 H1S d  68     -18.192   1.160   8.216  0.00  0.00    -0.572 OA
ATOM     14  O9  H1S d  68     -24.812  -3.235   7.547  0.00  0.00    -0.391 OA
ATOM     15  O21 H1S d  68     -17.773  -0.485   6.412  0.00  0.00    -0.572 OA
ATOM     16  C24 H1S d  68     -21.967  -7.486   7.548  0.00  0.00    -0.034 C 
ATOM     17  O35 H1S d  68     -23.885  -6.101   4.712  0.00  0.00    -0.642 OA
ATOM     18  S26 H1S d  68     -21.954  -3.820  11.228  0.00  0.00     0.252 S 
ATOM     19  O25 H1S d  68     -21.780  -8.124   9.933  0.00  0.00    -0.389 OA
ATOM     20  C12 H1S d  68     -21.925  -5.641   9.324  0.00  0.00     0.135 C 
ATOM     21  C17 H1S d  68     -21.418  -7.090   8.964  0.00  0.00     0.086 C 
ATOM     22  O5  H1S d  68     -22.756   0.119   8.432  0.00  0.00    -0.350 OA
ATOM     23  C2  H1S d  68     -21.842  -1.043   8.384  0.00  0.00     0.091 C 
ATOM     24  O18 H1S d  68     -21.292  -4.985  10.508  0.00  0.00    -0.244 OA
ATOM     25  O28 H1S d  68     -25.751   1.335  10.415  0.00  0.00    -0.296 OA
ATOM     26  N14 H1S d  68     -24.679  -0.987  10.329  0.00  0.00    -0.210 NA
ATOM     27  O31 H1S d  68     -23.465  -3.854  11.083  0.00  0.00    -0.572 OA
ATOM     28  O11 H1S d  68     -19.284  -1.052   8.283  0.00  0.00    -0.254 OA
ATOM     29  O3  H1S d  68     -21.584  -3.366   8.203  0.00  0.00    -0.348 OA
ATOM     30  C4  H1S d  68     -24.010  -2.605   8.537  0.00  0.00     0.083 C 
ATOM     31  C1  H1S d  68     -22.591  -2.344   7.922  0.00  0.00     0.095 C 
ATOM     32  O33 H1S d  68     -21.428  -2.514  10.687  0.00  0.00    -0.572 OA
ATOM     33  O30 H1S d  68     -27.190  -0.652   9.949  0.00  0.00    -0.296 OA
ATOM     34  O32 H1S d  68     -21.559  -3.800  12.695  0.00  0.00    -0.572 OA
ATOM     35  O29 H1S d  68     -26.437  -0.162  12.224  0.00  0.00    -0.296 OA
ATOM     36  H   H1S d  68     -24.737   1.311   6.969  0.00  0.00     0.212 HD
ATOM     37  H   H1S d  68     -20.930  -4.951   7.431  0.00  0.00     0.134 H 
ATOM     38  H   H1S d  68     -23.783  -0.694   6.977  0.00  0.00     0.131 H 
ATOM     39  H   H1S d  68     -20.547   0.141   7.123  0.00  0.00     0.080 H 
ATOM     40  H   H1S d  68     -20.569  -1.600   6.754  0.00  0.00     0.080 H 
ATOM     41  H   H1S d  68     -25.802  -1.391   8.718  0.00  0.00     0.076 H 
ATOM     42  H   H1S d  68     -25.696  -3.405   7.907  0.00  0.00     0.210 HD
ATOM     43  H   H1S d  68     -21.788  -8.438   7.193  0.00  0.00     0.085 H 
ATOM     44  H   H1S d  68     -21.432  -8.980   9.638  0.00  0.00     0.210 HD
ATOM     45  H   H1S d  68     -22.934  -5.707   9.673  0.00  0.00     0.097 H 
ATOM     46  H   H1S d  68     -20.350  -7.044   8.977  0.00  0.00     0.093 H 
ATOM     47  H   H1S d  68     -21.508  -1.141   9.397  0.00  0.00     0.090 H 
ATOM     48  H   H1S d  68     -25.017   1.656  10.962  0.00  0.00     0.231 HD
ATOM     49  H   H1S d  68     -24.638  -1.845  10.879  0.00  0.00     0.140 HD
ATOM     50  H   H1S d  68     -23.858  -3.185   9.423  0.00  0.00     0.089 H 
ATOM     51  H   H1S d  68     -22.894  -2.301   6.897  0.00  0.00     0.091 H 
ATOM     52  H   H1S d  68     -26.956  -0.617   9.008  0.00  0.00     0.231 HD
ATOM     53  H   H1S d  68     -25.714   0.191  12.766  0.00  0.00     0.231 HD
ENDROOT
TORSDOF 16
ENDMDL
MODEL 6
REMARK VINA RESULT:      -6.9      2.534      6.265
REMARK  0 active torsions:
REMARK  status: ('A' for Active; 'I' for Inactive)
REMARK       I    between atoms: O15_1  and  C10_4 
REMARK       I    between atoms: S20_2  and  N14_26 
REMARK       I    between atoms: S20_2  and  O28_25 
REMARK       I    between atoms: S20_2  and  O29_35 
REMARK       I    between atoms: S20_2  and  O30_33 
REMARK       I    between atoms: C7_3  and  O3_29 
REMARK       I    between atoms: C6_5  and  C2_23 
REMARK       I    between atoms: C6_5  and  O11_28 
REMARK       I    between atoms: S16_6  and  O11_28 
REMARK       I    between atoms: C19_8  and  C27_10 
REMARK       I    between atoms: C8_11  and  N14_26 
REMARK       I    between atoms: O9_14  and  C4_30 
REMARK       I    between atoms: S26_18  and  O18_24 
REMARK       I    between atoms: O25_19  and  C17_21 
REMARK       I    between atoms: C12_20  and  O18_24 
REMARK       I    between atoms: O3_29  and  C1_31 
ROOT
ATOM      1  O15 H1S d  68     -18.464   1.497  11.258  0.00  0.00    -0.369 OA
ATOM      2  S20 H1S d  68     -16.188   0.597   8.868  0.00  0.00     0.156 S 
ATOM      3  C7  H1S d  68     -22.214  -2.735   8.286  0.00  0.00     0.167 C 
ATOM      4  C10 H1S d  68     -19.334   0.892  10.279  0.00  0.00     0.147 C 
ATOM      5  C6  H1S d  68     -22.576   1.407   8.767  0.00  0.00     0.067 C 
ATOM      6  S16 H1S d  68     -24.293   2.669   7.299  0.00  0.00     0.251 S 
ATOM      7  O13 H1S d  68     -21.834  -3.563   9.436  0.00  0.00    -0.311 OA
ATOM      8  C19 H1S d  68     -22.580  -4.721   9.484  0.00  0.00     0.147 C 
ATOM      9  O34 H1S d  68     -23.633  -6.355  10.994  0.00  0.00    -0.642 OA
ATOM     10  C27 H1S d  68     -22.961  -5.300  10.892  0.00  0.00     0.233 C 
ATOM     11  C8  H1S d  68     -18.549  -0.250   9.618  0.00  0.00     0.081 C 
ATOM     12  O22 H1S d  68     -24.973   2.564   5.956  0.00  0.00    -0.572 OA
ATOM     13  O23 H1S d  68     -23.656   4.042   7.364  0.00  0.00    -0.572 OA
ATOM     14  O9  H1S d  68     -19.639  -2.123  10.438  0.00  0.00    -0.391 OA
ATOM     15  O21 H1S d  68     -25.336   2.545   8.399  0.00  0.00    -0.572 OA
ATOM     16  C24 H1S d  68     -22.968  -5.346   8.272  0.00  0.00    -0.034 C 
ATOM     17  O35 H1S d  68     -22.566  -4.666  11.880  0.00  0.00    -0.642 OA
ATOM     18  S26 H1S d  68     -20.177  -1.740   5.787  0.00  0.00     0.252 S 
ATOM     19  O25 H1S d  68     -22.018  -5.836   6.039  0.00  0.00    -0.389 OA
ATOM     20  C12 H1S d  68     -21.633  -3.523   7.069  0.00  0.00     0.135 C 
ATOM     21  C17 H1S d  68     -22.578  -4.768   6.867  0.00  0.00     0.086 C 
ATOM     22  O5  H1S d  68     -20.060   1.710   9.260  0.00  0.00    -0.350 OA
ATOM     23  C2  H1S d  68     -21.107   0.868   8.641  0.00  0.00     0.091 C 
ATOM     24  O18 H1S d  68     -21.372  -2.677   5.865  0.00  0.00    -0.244 OA
ATOM     25  O28 H1S d  68     -16.283   2.046   9.275  0.00  0.00    -0.296 OA
ATOM     26  N14 H1S d  68     -17.753   0.141   8.405  0.00  0.00    -0.210 NA
ATOM     27  O31 H1S d  68     -19.026  -2.221   6.654  0.00  0.00    -0.572 OA
ATOM     28  O11 H1S d  68     -23.252   1.610   7.457  0.00  0.00    -0.254 OA
ATOM     29  O3  H1S d  68     -21.962  -1.280   8.256  0.00  0.00    -0.348 OA
ATOM     30  C4  H1S d  68     -19.625  -1.257   9.310  0.00  0.00     0.083 C 
ATOM     31  C1  H1S d  68     -21.046  -0.608   9.175  0.00  0.00     0.095 C 
ATOM     32  O33 H1S d  68     -20.582  -0.352   6.218  0.00  0.00    -0.572 OA
ATOM     33  O30 H1S d  68     -15.822  -0.289  10.033  0.00  0.00    -0.296 OA
ATOM     34  O32 H1S d  68     -19.723  -1.564   4.348  0.00  0.00    -0.572 OA
ATOM     35  O29 H1S d  68     -15.125   0.463   7.813  0.00  0.00    -0.296 OA
ATOM     36  H   H1S d  68     -18.929   2.226  11.697  0.00  0.00     0.212 HD
ATOM     37  H   H1S d  68     -23.278  -2.623   8.306  0.00  0.00     0.134 H 
ATOM     38  H   H1S d  68     -20.179   0.592  10.862  0.00  0.00     0.131 H 
ATOM     39  H   H1S d  68     -22.548   2.345   9.282  0.00  0.00     0.080 H 
ATOM     40  H   H1S d  68     -23.136   0.666   9.297  0.00  0.00     0.080 H 
ATOM     41  H   H1S d  68     -17.778  -0.621  10.260  0.00  0.00     0.076 H 
ATOM     42  H   H1S d  68     -18.768  -2.536  10.539  0.00  0.00     0.210 HD
ATOM     43  H   H1S d  68     -23.526  -6.213   8.316  0.00  0.00     0.085 H 
ATOM     44  H   H1S d  68     -22.660  -6.559   5.966  0.00  0.00     0.210 HD
ATOM     45  H   H1S d  68     -20.640  -3.873   7.261  0.00  0.00     0.097 H 
ATOM     46  H   H1S d  68     -23.434  -4.409   6.334  0.00  0.00     0.093 H 
ATOM     47  H   H1S d  68     -20.870   0.900   7.598  0.00  0.00     0.090 H 
ATOM     48  H   H1S d  68     -16.519   2.583   8.503  0.00  0.00     0.231 HD
ATOM     49  H   H1S d  68     -17.700  -0.652   7.765  0.00  0.00     0.140 HD
ATOM     50  H   H1S d  68     -19.420  -1.742   8.379  0.00  0.00     0.089 H 
ATOM     51  H   H1S d  68     -21.327  -0.684  10.205  0.00  0.00     0.091 H 
ATOM     52  H   H1S d  68     -16.500  -0.212  10.723  0.00  0.00     0.231 HD
ATOM     53  H   H1S d  68     -15.347   1.028   7.056  0.00  0.00     0.231 HD
ENDROOT
TORSDOF 16
ENDMDL
MODEL 7
REMARK VINA RESULT:      -6.9      2.885      6.460
REMARK  0 active torsions:
REMARK  status: ('A' for Active; 'I' for Inactive)
REMARK       I    between atoms: O15_1  and  C10_4 
REMARK       I    between atoms: S20_2  and  N14_26 
REMARK       I    between atoms: S20_2  and  O28_25 
REMARK       I    between atoms: S20_2  and  O29_35 
REMARK       I    between atoms: S20_2  and  O30_33 
REMARK       I    between atoms: C7_3  and  O3_29 
REMARK       I    between atoms: C6_5  and  C2_23 
REMARK       I    between atoms: C6_5  and  O11_28 
REMARK       I    between atoms: S16_6  and  O11_28 
REMARK       I    between atoms: C19_8  and  C27_10 
REMARK       I    between atoms: C8_11  and  N14_26 
REMARK       I    between atoms: O9_14  and  C4_30 
REMARK       I    between atoms: S26_18  and  O18_24 
REMARK       I    between atoms: O25_19  and  C17_21 
REMARK       I    between atoms: C12_20  and  O18_24 
REMARK       I    between atoms: O3_29  and  C1_31 
ROOT
ATOM      1  O15 H1S d  68     -17.956   1.476  11.353  0.00  0.00    -0.369 OA
ATOM      2  S20 H1S d  68     -15.960   1.009   8.614  0.00  0.00     0.156 S 
ATOM      3  C7  H1S d  68     -22.251  -1.765   7.909  0.00  0.00     0.167 C 
ATOM      4  C10 H1S d  68     -18.948   1.156  10.355  0.00  0.00     0.147 C 
ATOM      5  C6  H1S d  68     -22.254   2.177   9.315  0.00  0.00     0.067 C 
ATOM      6  S16 H1S d  68     -23.986   3.830   8.332  0.00  0.00     0.251 S 
ATOM      7  O13 H1S d  68     -21.841  -2.850   8.809  0.00  0.00    -0.311 OA
ATOM      8  C19 H1S d  68     -22.667  -3.945   8.675  0.00  0.00     0.147 C 
ATOM      9  O34 H1S d  68     -23.713  -5.814   9.887  0.00  0.00    -0.642 OA
ATOM     10  C27 H1S d  68     -22.973  -4.803   9.953  0.00  0.00     0.233 C 
ATOM     11  C8  H1S d  68     -18.309   0.149   9.387  0.00  0.00     0.081 C 
ATOM     12  O22 H1S d  68     -24.780   4.067   7.072  0.00  0.00    -0.572 OA
ATOM     13  O23 H1S d  68     -23.243   5.116   8.633  0.00  0.00    -0.572 OA
ATOM     14  O9  H1S d  68     -19.468  -1.796   9.881  0.00  0.00    -0.391 OA
ATOM     15  O21 H1S d  68     -24.941   3.521   9.475  0.00  0.00    -0.572 OA
ATOM     16  C24 H1S d  68     -23.200  -4.261   7.400  0.00  0.00    -0.034 C 
ATOM     17  O35 H1S d  68     -22.450  -4.430  11.012  0.00  0.00    -0.642 OA
ATOM     18  S26 H1S d  68     -20.356  -0.351   5.502  0.00  0.00     0.252 S 
ATOM     19  O25 H1S d  68     -22.477  -4.289   5.032  0.00  0.00    -0.389 OA
ATOM     20  C12 H1S d  68     -21.833  -2.292   6.499  0.00  0.00     0.135 C 
ATOM     21  C17 H1S d  68     -22.885  -3.405   6.123  0.00  0.00     0.086 C 
ATOM     22  O5  H1S d  68     -19.691   2.221   9.615  0.00  0.00    -0.350 OA
ATOM     23  C2  H1S d  68     -20.846   1.598   8.932  0.00  0.00     0.091 C 
ATOM     24  O18 H1S d  68     -21.609  -1.214   5.489  0.00  0.00    -0.244 OA
ATOM     25  O28 H1S d  68     -15.911   2.332   9.335  0.00  0.00    -0.296 OA
ATOM     26  N14 H1S d  68     -17.589   0.756   8.218  0.00  0.00    -0.210 NA
ATOM     27  O31 H1S d  68     -19.178  -1.078   6.127  0.00  0.00    -0.572 OA
ATOM     28  O11 H1S d  68     -23.019   2.706   8.153  0.00  0.00    -0.254 OA
ATOM     29  O3  H1S d  68     -21.892  -0.357   8.173  0.00  0.00    -0.348 OA
ATOM     30  C4  H1S d  68     -19.481  -0.702   8.974  0.00  0.00     0.083 C 
ATOM     31  C1  H1S d  68     -20.854   0.040   9.123  0.00  0.00     0.095 C 
ATOM     32  O33 H1S d  68     -20.618   0.926   6.262  0.00  0.00    -0.572 OA
ATOM     33  O30 H1S d  68     -15.568  -0.135   9.517  0.00  0.00    -0.296 OA
ATOM     34  O32 H1S d  68     -20.011   0.118   4.098  0.00  0.00    -0.572 OA
ATOM     35  O29 H1S d  68     -15.002   1.055   7.457  0.00  0.00    -0.296 OA
ATOM     36  H   H1S d  68     -18.326   2.113  11.984  0.00  0.00     0.212 HD
ATOM     37  H   H1S d  68     -23.297  -1.601   8.057  0.00  0.00     0.134 H 
ATOM     38  H   H1S d  68     -19.762   0.780  10.938  0.00  0.00     0.131 H 
ATOM     39  H   H1S d  68     -22.113   2.973  10.017  0.00  0.00     0.080 H 
ATOM     40  H   H1S d  68     -22.824   1.369   9.723  0.00  0.00     0.080 H 
ATOM     41  H   H1S d  68     -17.518  -0.399   9.856  0.00  0.00     0.076 H 
ATOM     42  H   H1S d  68     -18.625  -2.269   9.805  0.00  0.00     0.210 HD
ATOM     43  H   H1S d  68     -23.817  -5.082   7.308  0.00  0.00     0.085 H 
ATOM     44  H   H1S d  68     -23.176  -4.941   4.866  0.00  0.00     0.210 HD
ATOM     45  H   H1S d  68     -20.858  -2.731   6.512  0.00  0.00     0.097 H 
ATOM     46  H   H1S d  68     -23.751  -2.888   5.768  0.00  0.00     0.093 H 
ATOM     47  H   H1S d  68     -20.695   1.851   7.903  0.00  0.00     0.090 H 
ATOM     48  H   H1S d  68     -16.168   3.041   8.725  0.00  0.00     0.231 HD
ATOM     49  H   H1S d  68     -17.649   0.125   7.418  0.00  0.00     0.140 HD
ATOM     50  H   H1S d  68     -19.391  -0.977   7.944  0.00  0.00     0.089 H 
ATOM     51  H   H1S d  68     -21.054  -0.249  10.133  0.00  0.00     0.091 H 
ATOM     52  H   H1S d  68     -16.179  -0.177  10.269  0.00  0.00     0.231 HD
ATOM     53  H   H1S d  68     -15.241   1.787   6.866  0.00  0.00     0.231 HD
ENDROOT
TORSDOF 16
ENDMDL
MODEL 8
REMARK VINA RESULT:      -6.8      3.378      6.953
REMARK  0 active torsions:
REMARK  status: ('A' for Active; 'I' for Inactive)
REMARK       I    between atoms: O15_1  and  C10_4 
REMARK       I    between atoms: S20_2  and  N14_26 
REMARK       I    between atoms: S20_2  and  O28_25 
REMARK       I    between atoms: S20_2  and  O29_35 
REMARK       I    between atoms: S20_2  and  O30_33 
REMARK       I    between atoms: C7_3  and  O3_29 
REMARK       I    between atoms: C6_5  and  C2_23 
REMARK       I    between atoms: C6_5  and  O11_28 
REMARK       I    between atoms: S16_6  and  O11_28 
REMARK       I    between atoms: C19_8  and  C27_10 
REMARK       I    between atoms: C8_11  and  N14_26 
REMARK       I    between atoms: O9_14  and  C4_30 
REMARK       I    between atoms: S26_18  and  O18_24 
REMARK       I    between atoms: O25_19  and  C17_21 
REMARK       I    between atoms: C12_20  and  O18_24 
REMARK       I    between atoms: O3_29  and  C1_31 
ROOT
ATOM      1  O15 H1S d  68     -18.015  -0.823   4.064  0.00  0.00    -0.369 OA
ATOM      2  S20 H1S d  68     -20.990   0.131   2.672  0.00  0.00     0.156 S 
ATOM      3  C7  H1S d  68     -21.185  -0.185   9.573  0.00  0.00     0.167 C 
ATOM      4  C10 H1S d  68     -18.662  -0.228   5.207  0.00  0.00     0.147 C 
ATOM      5  C6  H1S d  68     -17.888   1.885   8.035  0.00  0.00     0.067 C 
ATOM      6  S16 H1S d  68     -17.192   4.103   9.171  0.00  0.00     0.251 S 
ATOM      7  O13 H1S d  68     -21.225  -1.649   9.476  0.00  0.00    -0.311 OA
ATOM      8  C19 H1S d  68     -21.693  -2.212  10.643  0.00  0.00     0.147 C 
ATOM      9  O34 H1S d  68     -21.492  -4.155  12.141  0.00  0.00    -0.642 OA
ATOM     10  C27 H1S d  68     -21.098  -3.594  11.090  0.00  0.00     0.233 C 
ATOM     11  C8  H1S d  68     -20.166  -0.507   5.074  0.00  0.00     0.081 C 
ATOM     12  O22 H1S d  68     -17.788   5.239   9.964  0.00  0.00    -0.572 OA
ATOM     13  O23 H1S d  68     -16.463   4.721   7.995  0.00  0.00    -0.572 OA
ATOM     14  O9  H1S d  68     -20.527  -2.031   6.781  0.00  0.00    -0.391 OA
ATOM     15  O21 H1S d  68     -16.196   3.353  10.043  0.00  0.00    -0.572 OA
ATOM     16  C24 H1S d  68     -22.691  -1.535  11.389  0.00  0.00    -0.034 C 
ATOM     17  O35 H1S d  68     -20.231  -4.090  10.357  0.00  0.00    -0.642 OA
ATOM     18  S26 H1S d  68     -22.819   1.990   7.577  0.00  0.00     0.252 S 
ATOM     19  O25 H1S d  68     -24.749  -0.219  10.986  0.00  0.00    -0.389 OA
ATOM     20  C12 H1S d  68     -22.693   0.220   9.524  0.00  0.00     0.135 C 
ATOM     21  C17 H1S d  68     -23.289  -0.158  10.934  0.00  0.00     0.086 C 
ATOM     22  O5  H1S d  68     -18.409   1.191   5.604  0.00  0.00    -0.350 OA
ATOM     23  C2  H1S d  68     -18.934   1.396   6.972  0.00  0.00     0.091 C 
ATOM     24  O18 H1S d  68     -22.933   1.615   9.046  0.00  0.00    -0.244 OA
ATOM     25  O28 H1S d  68     -19.708   0.658   2.081  0.00  0.00    -0.296 OA
ATOM     26  N14 H1S d  68     -20.944   0.532   4.318  0.00  0.00    -0.210 NA
ATOM     27  O31 H1S d  68     -23.103   0.806   6.670  0.00  0.00    -0.572 OA
ATOM     28  O11 H1S d  68     -18.253   3.171   8.687  0.00  0.00    -0.254 OA
ATOM     29  O3  H1S d  68     -20.299   0.628   8.715  0.00  0.00    -0.348 OA
ATOM     30  C4  H1S d  68     -20.608  -0.639   6.508  0.00  0.00     0.083 C 
ATOM     31  C1  H1S d  68     -19.660   0.111   7.507  0.00  0.00     0.095 C 
ATOM     32  O33 H1S d  68     -21.437   2.524   7.288  0.00  0.00    -0.572 OA
ATOM     33  O30 H1S d  68     -21.057  -1.376   2.612  0.00  0.00    -0.296 OA
ATOM     34  O32 H1S d  68     -23.741   3.151   7.244  0.00  0.00    -0.572 OA
ATOM     35  O29 H1S d  68     -22.146   0.692   1.891  0.00  0.00    -0.296 OA
ATOM     36  H   H1S d  68     -17.059  -0.665   4.115  0.00  0.00     0.212 HD
ATOM     37  H   H1S d  68     -20.662   0.064  10.472  0.00  0.00     0.134 H 
ATOM     38  H   H1S d  68     -18.178  -0.705   6.033  0.00  0.00     0.131 H 
ATOM     39  H   H1S d  68     -16.943   2.010   7.547  0.00  0.00     0.080 H 
ATOM     40  H   H1S d  68     -17.855   1.142   8.805  0.00  0.00     0.080 H 
ATOM     41  H   H1S d  68     -20.353  -1.378   4.480  0.00  0.00     0.076 H 
ATOM     42  H   H1S d  68     -21.107  -2.515   6.173  0.00  0.00     0.210 HD
ATOM     43  H   H1S d  68     -23.036  -1.963  12.262  0.00  0.00     0.085 H 
ATOM     44  H   H1S d  68     -25.031  -0.456  11.883  0.00  0.00     0.210 HD
ATOM     45  H   H1S d  68     -23.225  -0.322   8.771  0.00  0.00     0.097 H 
ATOM     46  H   H1S d  68     -23.010   0.635  11.597  0.00  0.00     0.093 H 
ATOM     47  H   H1S d  68     -19.631   2.200   6.855  0.00  0.00     0.090 H 
ATOM     48  H   H1S d  68     -19.701   1.626   2.137  0.00  0.00     0.231 HD
ATOM     49  H   H1S d  68     -21.896   0.575   4.683  0.00  0.00     0.140 HD
ATOM     50  H   H1S d  68     -21.582  -0.216   6.633  0.00  0.00     0.089 H 
ATOM     51  H   H1S d  68     -18.984  -0.699   7.684  0.00  0.00     0.091 H 
ATOM     52  H   H1S d  68     -20.316  -1.752   3.112  0.00  0.00     0.231 HD
ATOM     53  H   H1S d  68     -22.117   1.661   1.921  0.00  0.00     0.231 HD
ENDROOT
TORSDOF 16
ENDMDL
MODEL 9
REMARK VINA RESULT:      -6.8      3.382      5.744
REMARK  0 active torsions:
REMARK  status: ('A' for Active; 'I' for Inactive)
REMARK       I    between atoms: O15_1  and  C10_4 
REMARK       I    between atoms: S20_2  and  N14_26 
REMARK       I    between atoms: S20_2  and  O28_25 
REMARK       I    between atoms: S20_2  and  O29_35 
REMARK       I    between atoms: S20_2  and  O30_33 
REMARK       I    between atoms: C7_3  and  O3_29 
REMARK       I    between atoms: C6_5  and  C2_23 
REMARK       I    between atoms: C6_5  and  O11_28 
REMARK       I    between atoms: S16_6  and  O11_28 
REMARK       I    between atoms: C19_8  and  C27_10 
REMARK       I    between atoms: C8_11  and  N14_26 
REMARK       I    between atoms: O9_14  and  C4_30 
REMARK       I    between atoms: S26_18  and  O18_24 
REMARK       I    between atoms: O25_19  and  C17_21 
REMARK       I    between atoms: C12_20  and  O18_24 
REMARK       I    between atoms: O3_29  and  C1_31 
ROOT
ATOM      1  O15 H1S d  68     -19.410   5.843   6.876  0.00  0.00    -0.369 OA
ATOM      2  S20 H1S d  68     -16.947   5.282   9.181  0.00  0.00     0.156 S 
ATOM      3  C7  H1S d  68     -20.907  -0.261   8.018  0.00  0.00     0.167 C 
ATOM      4  C10 H1S d  68     -19.368   4.401   6.871  0.00  0.00     0.147 C 
ATOM      5  C6  H1S d  68     -19.540   1.638   4.548  0.00  0.00     0.067 C 
ATOM      6  S16 H1S d  68     -18.677   0.167   2.601  0.00  0.00     0.251 S 
ATOM      7  O13 H1S d  68     -21.969   0.367   8.812  0.00  0.00    -0.311 OA
ATOM      8  C19 H1S d  68     -22.891  -0.565   9.236  0.00  0.00     0.147 C 
ATOM      9  O34 H1S d  68     -25.275  -0.934   9.727  0.00  0.00    -0.642 OA
ATOM     10  C27 H1S d  68     -24.395  -0.127   9.340  0.00  0.00     0.233 C 
ATOM     11  C8  H1S d  68     -19.022   3.952   8.298  0.00  0.00     0.081 C 
ATOM     12  O22 H1S d  68     -18.042  -1.179   2.356  0.00  0.00    -0.572 OA
ATOM     13  O23 H1S d  68     -17.793   1.200   1.933  0.00  0.00    -0.572 OA
ATOM     14  O9  H1S d  68     -21.015   3.003   9.001  0.00  0.00    -0.391 OA
ATOM     15  O21 H1S d  68     -20.056   0.194   1.960  0.00  0.00    -0.572 OA
ATOM     16  C24 H1S d  68     -22.453  -1.872   9.568  0.00  0.00    -0.034 C 
ATOM     17  O35 H1S d  68     -24.657   1.041   9.024  0.00  0.00    -0.642 OA
ATOM     18  S26 H1S d  68     -17.606  -0.215   8.715  0.00  0.00     0.252 S 
ATOM     19  O25 H1S d  68     -20.550  -2.968  10.710  0.00  0.00    -0.389 OA
ATOM     20  C12 H1S d  68     -20.078  -1.047   9.085  0.00  0.00     0.135 C 
ATOM     21  C17 H1S d  68     -20.948  -2.304   9.470  0.00  0.00     0.086 C 
ATOM     22  O5  H1S d  68     -18.574   3.642   5.857  0.00  0.00    -0.350 OA
ATOM     23  C2  H1S d  68     -18.994   2.224   5.898  0.00  0.00     0.091 C 
ATOM     24  O18 H1S d  68     -18.663  -1.308   8.684  0.00  0.00    -0.244 OA
ATOM     25  O28 H1S d  68     -16.633   6.122   7.969  0.00  0.00    -0.296 OA
ATOM     26  N14 H1S d  68     -17.554   3.815   8.586  0.00  0.00    -0.210 NA
ATOM     27  O31 H1S d  68     -17.930   0.853   9.745  0.00  0.00    -0.572 OA
ATOM     28  O11 H1S d  68     -18.786   0.450   4.063  0.00  0.00    -0.254 OA
ATOM     29  O3  H1S d  68     -20.098   0.508   7.052  0.00  0.00    -0.348 OA
ATOM     30  C4  H1S d  68     -19.765   2.648   8.424  0.00  0.00     0.083 C 
ATOM     31  C1  H1S d  68     -20.042   1.969   7.039  0.00  0.00     0.095 C 
ATOM     32  O33 H1S d  68     -17.485   0.423   7.353  0.00  0.00    -0.572 OA
ATOM     33  O30 H1S d  68     -18.054   5.885  10.010  0.00  0.00    -0.296 OA
ATOM     34  O32 H1S d  68     -16.229  -0.804   8.971  0.00  0.00    -0.572 OA
ATOM     35  O29 H1S d  68     -15.711   5.184  10.032  0.00  0.00    -0.296 OA
ATOM     36  H   H1S d  68     -19.627   6.163   5.986  0.00  0.00     0.212 HD
ATOM     37  H   H1S d  68     -21.377  -0.854   7.262  0.00  0.00     0.134 H 
ATOM     38  H   H1S d  68     -20.345   4.133   6.528  0.00  0.00     0.131 H 
ATOM     39  H   H1S d  68     -19.483   2.402   3.800  0.00  0.00     0.080 H 
ATOM     40  H   H1S d  68     -20.545   1.318   4.730  0.00  0.00     0.080 H 
ATOM     41  H   H1S d  68     -19.307   4.687   9.021  0.00  0.00     0.076 H 
ATOM     42  H   H1S d  68     -20.866   3.426   9.861  0.00  0.00     0.210 HD
ATOM     43  H   H1S d  68     -23.150  -2.565   9.884  0.00  0.00     0.085 H 
ATOM     44  H   H1S d  68     -21.132  -3.726  10.873  0.00  0.00     0.210 HD
ATOM     45  H   H1S d  68     -19.911  -0.462   9.965  0.00  0.00     0.097 H 
ATOM     46  H   H1S d  68     -20.791  -3.023   8.694  0.00  0.00     0.093 H 
ATOM     47  H   H1S d  68     -18.083   1.698   6.099  0.00  0.00     0.090 H 
ATOM     48  H   H1S d  68     -15.920   5.704   7.463  0.00  0.00     0.231 HD
ATOM     49  H   H1S d  68     -17.412   3.083   9.281  0.00  0.00     0.140 HD
ATOM     50  H   H1S d  68     -19.191   1.952   8.999  0.00  0.00     0.089 H 
ATOM     51  H   H1S d  68     -20.983   2.439   6.844  0.00  0.00     0.091 H 
ATOM     52  H   H1S d  68     -18.859   5.955   9.473  0.00  0.00     0.231 HD
ATOM     53  H   H1S d  68     -14.989   4.796   9.512  0.00  0.00     0.231 HD
ENDROOT
TORSDOF 16
ENDMDL
MODEL 10
REMARK VINA RESULT:      -6.7      2.824      6.256
REMARK  0 active torsions:
REMARK  status: ('A' for Active; 'I' for Inactive)
REMARK       I    between atoms: O15_1  and  C10_4 
REMARK       I    between atoms: S20_2  and  N14_26 
REMARK       I    between atoms: S20_2  and  O28_25 
REMARK       I    between atoms: S20_2  and  O29_35 
REMARK       I    between atoms: S20_2  and  O30_33 
REMARK       I    between atoms: C7_3  and  O3_29 
REMARK       I    between atoms: C6_5  and  C2_23 
REMARK       I    between atoms: C6_5  and  O11_28 
REMARK       I    between atoms: S16_6  and  O11_28 
REMARK       I    between atoms: C19_8  and  C27_10 
REMARK       I    between atoms: C8_11  and  N14_26 
REMARK       I    between atoms: O9_14  and  C4_30 
REMARK       I    between atoms: S26_18  and  O18_24 
REMARK       I    between atoms: O25_19  and  C17_21 
REMARK       I    between atoms: C12_20  and  O18_24 
REMARK       I    between atoms: O3_29  and  C1_31 
ROOT
ATOM      1  O15 H1S d  68     -20.789   1.995   9.668  0.00  0.00    -0.369 OA
ATOM      2  S20 H1S d  68     -18.483   1.470   7.196  0.00  0.00     0.156 S 
ATOM      3  C7  H1S d  68     -21.893  -4.262   9.005  0.00  0.00     0.167 C 
ATOM      4  C10 H1S d  68     -21.254   0.738   9.135  0.00  0.00     0.147 C 
ATOM      5  C6  H1S d  68     -24.347  -0.942   8.316  0.00  0.00     0.067 C 
ATOM      6  S16 H1S d  68     -26.532  -1.288   6.972  0.00  0.00     0.251 S 
ATOM      7  O13 H1S d  68     -21.088  -4.320  10.230  0.00  0.00    -0.311 OA
ATOM      8  C19 H1S d  68     -21.114  -5.581  10.784  0.00  0.00     0.147 C 
ATOM      9  O34 H1S d  68     -21.091  -6.829  12.906  0.00  0.00    -0.642 OA
ATOM     10  C27 H1S d  68     -21.075  -5.705  12.349  0.00  0.00     0.233 C 
ATOM     11  C8  H1S d  68     -20.017  -0.048   8.678  0.00  0.00     0.081 C 
ATOM     12  O22 H1S d  68     -27.113  -2.189   5.912  0.00  0.00    -0.572 OA
ATOM     13  O23 H1S d  68     -26.706   0.136   6.485  0.00  0.00    -0.572 OA
ATOM     14  O9  H1S d  68     -19.930  -1.760  10.238  0.00  0.00    -0.391 OA
ATOM     15  O21 H1S d  68     -27.308  -1.475   8.268  0.00  0.00    -0.572 OA
ATOM     16  C24 H1S d  68     -21.169  -6.712   9.932  0.00  0.00    -0.034 C 
ATOM     17  O35 H1S d  68     -21.028  -4.646  12.990  0.00  0.00    -0.642 OA
ATOM     18  S26 H1S d  68     -20.786  -3.424   5.930  0.00  0.00     0.252 S 
ATOM     19  O25 H1S d  68     -20.199  -7.479   7.786  0.00  0.00    -0.389 OA
ATOM     20  C12 H1S d  68     -21.037  -5.066   7.975  0.00  0.00     0.135 C 
ATOM     21  C17 H1S d  68     -21.199  -6.584   8.368  0.00  0.00     0.086 C 
ATOM     22  O5  H1S d  68     -22.344   0.673   8.113  0.00  0.00    -0.350 OA
ATOM     23  C2  H1S d  68     -22.820  -0.725   8.024  0.00  0.00     0.091 C 
ATOM     24  O18 H1S d  68     -21.309  -4.711   6.549  0.00  0.00    -0.244 OA
ATOM     25  O28 H1S d  68     -19.304   2.734   7.170  0.00  0.00    -0.296 OA
ATOM     26  N14 H1S d  68     -19.596   0.193   7.257  0.00  0.00    -0.210 NA
ATOM     27  O31 H1S d  68     -19.518  -2.944   6.615  0.00  0.00    -0.572 OA
ATOM     28  O11 H1S d  68     -25.085  -1.584   7.194  0.00  0.00    -0.254 OA
ATOM     29  O3  H1S d  68     -22.441  -2.990   8.493  0.00  0.00    -0.348 OA
ATOM     30  C4  H1S d  68     -20.419  -1.477   8.933  0.00  0.00     0.083 C 
ATOM     31  C1  H1S d  68     -21.974  -1.679   8.940  0.00  0.00     0.095 C 
ATOM     32  O33 H1S d  68     -21.839  -2.347   6.014  0.00  0.00    -0.572 OA
ATOM     33  O30 H1S d  68     -17.658   1.364   8.456  0.00  0.00    -0.296 OA
ATOM     34  O32 H1S d  68     -20.553  -3.600   4.439  0.00  0.00    -0.572 OA
ATOM     35  O29 H1S d  68     -17.553   1.476   6.015  0.00  0.00    -0.296 OA
ATOM     36  H   H1S d  68     -21.547   2.520   9.967  0.00  0.00     0.212 HD
ATOM     37  H   H1S d  68     -22.856  -4.669   9.233  0.00  0.00     0.134 H 
ATOM     38  H   H1S d  68     -21.792   0.313   9.956  0.00  0.00     0.131 H 
ATOM     39  H   H1S d  68     -24.793   0.011   8.512  0.00  0.00     0.080 H 
ATOM     40  H   H1S d  68     -24.414  -1.605   9.154  0.00  0.00     0.080 H 
ATOM     41  H   H1S d  68     -19.140   0.258   9.209  0.00  0.00     0.076 H 
ATOM     42  H   H1S d  68     -18.968  -1.640  10.256  0.00  0.00     0.210 HD
ATOM     43  H   H1S d  68     -21.189  -7.654  10.354  0.00  0.00     0.085 H 
ATOM     44  H   H1S d  68     -20.370  -8.388   8.077  0.00  0.00     0.210 HD
ATOM     45  H   H1S d  68     -20.001  -4.806   8.031  0.00  0.00     0.097 H 
ATOM     46  H   H1S d  68     -22.138  -6.898   7.962  0.00  0.00     0.093 H 
ATOM     47  H   H1S d  68     -22.681  -0.972   6.992  0.00  0.00     0.090 H 
ATOM     48  H   H1S d  68     -19.819   2.768   6.349  0.00  0.00     0.231 HD
ATOM     49  H   H1S d  68     -19.163  -0.651   6.884  0.00  0.00     0.140 HD
ATOM     50  H   H1S d  68     -20.030  -2.111   8.165  0.00  0.00     0.089 H 
ATOM     51  H   H1S d  68     -22.129  -1.493   9.982  0.00  0.00     0.091 H 
ATOM     52  H   H1S d  68     -18.246   1.360   9.228  0.00  0.00     0.231 HD
ATOM     53  H   H1S d  68     -18.069   1.544   5.196  0.00  0.00     0.231 HD
ENDROOT
TORSDOF 16
ENDMDL
MODEL 11
REMARK VINA RESULT:      -6.7      2.198      6.795
REMARK  0 active torsions:
REMARK  status: ('A' for Active; 'I' for Inactive)
REMARK       I    between atoms: O15_1  and  C10_4 
REMARK       I    between atoms: S20_2  and  N14_26 
REMARK       I    between atoms: S20_2  and  O28_25 
REMARK       I    between atoms: S20_2  and  O29_35 
REMARK       I    between atoms: S20_2  and  O30_33 
REMARK       I    between atoms: C7_3  and  O3_29 
REMARK       I    between atoms: C6_5  and  C2_23 
REMARK       I    between atoms: C6_5  and  O11_28 
REMARK       I    between atoms: S16_6  and  O11_28 
REMARK       I    between atoms: C19_8  and  C27_10 
REMARK       I    between atoms: C8_11  and  N14_26 
REMARK       I    between atoms: O9_14  and  C4_30 
REMARK       I    between atoms: S26_18  and  O18_24 
REMARK       I    between atoms: O25_19  and  C17_21 
REMARK       I    between atoms: C12_20  and  O18_24 
REMARK       I    between atoms: O3_29  and  C1_31 
ROOT
ATOM      1  O15 H1S d  68     -23.888   1.462   7.350  0.00  0.00    -0.369 OA
ATOM      2  S20 H1S d  68     -25.447   0.256  10.146  0.00  0.00     0.156 S 
ATOM      3  C7  H1S d  68     -20.779  -4.115   7.526  0.00  0.00     0.167 C 
ATOM      4  C10 H1S d  68     -22.966   0.423   7.739  0.00  0.00     0.147 C 
ATOM      5  C6  H1S d  68     -19.410  -0.182   7.948  0.00  0.00     0.067 C 
ATOM      6  S16 H1S d  68     -17.028   0.195   8.889  0.00  0.00     0.251 S 
ATOM      7  O13 H1S d  68     -21.725  -4.436   6.452  0.00  0.00    -0.311 OA
ATOM      8  C19 H1S d  68     -21.401  -5.629   5.843  0.00  0.00     0.147 C 
ATOM      9  O34 H1S d  68     -21.399  -6.839   3.700  0.00  0.00    -0.642 OA
ATOM     10  C27 H1S d  68     -21.670  -5.773   4.303  0.00  0.00     0.233 C 
ATOM     11  C8  H1S d  68     -23.796  -0.711   8.359  0.00  0.00     0.081 C 
ATOM     12  O22 H1S d  68     -16.019  -0.466   9.794  0.00  0.00    -0.572 OA
ATOM     13  O23 H1S d  68     -17.229   1.605   9.407  0.00  0.00    -0.572 OA
ATOM     14  O9  H1S d  68     -23.611  -2.376   6.758  0.00  0.00    -0.391 OA
ATOM     15  O21 H1S d  68     -16.471   0.252   7.475  0.00  0.00    -0.572 OA
ATOM     16  C24 H1S d  68     -20.847  -6.677   6.621  0.00  0.00    -0.034 C 
ATOM     17  O35 H1S d  68     -22.157  -4.790   3.729  0.00  0.00    -0.642 OA
ATOM     18  S26 H1S d  68     -21.541  -3.644  10.779  0.00  0.00     0.252 S 
ATOM     19  O25 H1S d  68     -21.139  -7.692   8.861  0.00  0.00    -0.389 OA
ATOM     20  C12 H1S d  68     -21.146  -5.140   8.647  0.00  0.00     0.135 C 
ATOM     21  C17 H1S d  68     -20.587  -6.532   8.161  0.00  0.00     0.086 C 
ATOM     22  O5  H1S d  68     -21.751   0.716   8.559  0.00  0.00    -0.350 OA
ATOM     23  C2  H1S d  68     -20.853  -0.458   8.501  0.00  0.00     0.091 C 
ATOM     24  O18 H1S d  68     -20.756  -4.703  10.021  0.00  0.00    -0.244 OA
ATOM     25  O28 H1S d  68     -25.072   1.715  10.093  0.00  0.00    -0.296 OA
ATOM     26  N14 H1S d  68     -24.018  -0.602   9.840  0.00  0.00    -0.210 NA
ATOM     27  O31 H1S d  68     -22.994  -3.597  10.339  0.00  0.00    -0.572 OA
ATOM     28  O11 H1S d  68     -18.325  -0.547   8.899  0.00  0.00    -0.254 OA
ATOM     29  O3  H1S d  68     -20.577  -2.730   7.998  0.00  0.00    -0.348 OA
ATOM     30  C4  H1S d  68     -23.016  -1.941   7.974  0.00  0.00     0.083 C 
ATOM     31  C1  H1S d  68     -21.502  -1.640   7.697  0.00  0.00     0.095 C 
ATOM     32  O33 H1S d  68     -20.910  -2.289  10.570  0.00  0.00    -0.572 OA
ATOM     33  O30 H1S d  68     -26.402  -0.117   9.039  0.00  0.00    -0.296 OA
ATOM     34  O32 H1S d  68     -21.444  -3.870  12.278  0.00  0.00    -0.572 OA
ATOM     35  O29 H1S d  68     -26.112  -0.023  11.466  0.00  0.00    -0.296 OA
ATOM     36  H   H1S d  68     -23.397   2.198   6.953  0.00  0.00     0.212 HD
ATOM     37  H   H1S d  68     -19.792  -4.197   7.121  0.00  0.00     0.134 H 
ATOM     38  H   H1S d  68     -22.474   0.183   6.819  0.00  0.00     0.131 H 
ATOM     39  H   H1S d  68     -19.327   0.861   7.725  0.00  0.00     0.080 H 
ATOM     40  H   H1S d  68     -19.285  -0.797   7.081  0.00  0.00     0.080 H 
ATOM     41  H   H1S d  68     -24.803  -0.704   7.998  0.00  0.00     0.076 H 
ATOM     42  H   H1S d  68     -24.549  -2.567   6.907  0.00  0.00     0.210 HD
ATOM     43  H   H1S d  68     -20.606  -7.567   6.158  0.00  0.00     0.085 H 
ATOM     44  H   H1S d  68     -20.744  -8.503   8.503  0.00  0.00     0.210 HD
ATOM     45  H   H1S d  68     -22.205  -5.222   8.777  0.00  0.00     0.097 H 
ATOM     46  H   H1S d  68     -19.542  -6.528   8.389  0.00  0.00     0.093 H 
ATOM     47  H   H1S d  68     -20.726  -0.727   9.530  0.00  0.00     0.090 H 
ATOM     48  H   H1S d  68     -24.460   1.918  10.817  0.00  0.00     0.231 HD
ATOM     49  H   H1S d  68     -24.092  -1.538  10.241  0.00  0.00     0.140 HD
ATOM     50  H   H1S d  68     -23.047  -2.659   8.766  0.00  0.00     0.089 H 
ATOM     51  H   H1S d  68     -21.597  -1.423   6.654  0.00  0.00     0.091 H 
ATOM     52  H   H1S d  68     -25.986   0.057   8.180  0.00  0.00     0.231 HD
ATOM     53  H   H1S d  68     -25.508   0.213  12.188  0.00  0.00     0.231 HD
ENDROOT
TORSDOF 16
ENDMDL
MODEL 12
REMARK VINA RESULT:      -6.7      3.188      5.865
REMARK  0 active torsions:
REMARK  status: ('A' for Active; 'I' for Inactive)
REMARK       I    between atoms: O15_1  and  C10_4 
REMARK       I    between atoms: S20_2  and  N14_26 
REMARK       I    between atoms: S20_2  and  O28_25 
REMARK       I    between atoms: S20_2  and  O29_35 
REMARK       I    between atoms: S20_2  and  O30_33 
REMARK       I    between atoms: C7_3  and  O3_29 
REMARK       I    between atoms: C6_5  and  C2_23 
REMARK       I    between atoms: C6_5  and  O11_28 
REMARK       I    between atoms: S16_6  and  O11_28 
REMARK       I    between atoms: C19_8  and  C27_10 
REMARK       I    between atoms: C8_11  and  N14_26 
REMARK       I    between atoms: O9_14  and  C4_30 
REMARK       I    between atoms: S26_18  and  O18_24 
REMARK       I    between atoms: O25_19  and  C17_21 
REMARK       I    between atoms: C12_20  and  O18_24 
REMARK       I    between atoms: O3_29  and  C1_31 
ROOT
ATOM      1  O15 H1S d  68     -20.816  -7.331  10.031  0.00  0.00    -0.369 OA
ATOM      2  S20 H1S d  68     -23.282  -6.844  12.351  0.00  0.00     0.156 S 
ATOM      3  C7  H1S d  68     -21.707  -1.126   8.802  0.00  0.00     0.167 C 
ATOM      4  C10 H1S d  68     -21.397  -6.104   9.545  0.00  0.00     0.147 C 
ATOM      5  C6  H1S d  68     -22.304  -4.519   6.426  0.00  0.00     0.067 C 
ATOM      6  S16 H1S d  68     -23.680  -4.267   4.248  0.00  0.00     0.251 S 
ATOM      7  O13 H1S d  68     -20.477  -1.009   9.594  0.00  0.00    -0.311 OA
ATOM      8  C19 H1S d  68     -19.968   0.270   9.535  0.00  0.00     0.147 C 
ATOM      9  O34 H1S d  68     -17.891   1.592   9.510  0.00  0.00    -0.642 OA
ATOM     10  C27 H1S d  68     -18.408   0.449   9.555  0.00  0.00     0.233 C 
ATOM     11  C8  H1S d  68     -21.869  -5.308  10.770  0.00  0.00     0.081 C 
ATOM     12  O22 H1S d  68     -24.777  -3.416   3.660  0.00  0.00    -0.572 OA
ATOM     13  O23 H1S d  68     -24.119  -5.711   4.110  0.00  0.00    -0.572 OA
ATOM     14  O9  H1S d  68     -20.369  -3.542  10.805  0.00  0.00    -0.391 OA
ATOM     15  O21 H1S d  68     -22.399  -4.052   3.455  0.00  0.00    -0.572 OA
ATOM     16  C24 H1S d  68     -20.860   1.370   9.466  0.00  0.00    -0.034 C 
ATOM     17  O35 H1S d  68     -17.730  -0.585   9.617  0.00  0.00    -0.642 OA
ATOM     18  S26 H1S d  68     -24.740  -2.047   9.959  0.00  0.00     0.252 S 
ATOM     19  O25 H1S d  68     -23.022   2.082  10.441  0.00  0.00    -0.389 OA
ATOM     20  C12 H1S d  68     -22.757  -0.340   9.652  0.00  0.00     0.135 C 
ATOM     21  C17 H1S d  68     -22.418   1.187   9.454  0.00  0.00     0.086 C 
ATOM     22  O5  H1S d  68     -22.431  -6.097   8.464  0.00  0.00    -0.350 OA
ATOM     23  C2  H1S d  68     -22.573  -4.714   7.960  0.00  0.00     0.091 C 
ATOM     24  O18 H1S d  68     -24.172  -0.751   9.402  0.00  0.00    -0.244 OA
ATOM     25  O28 H1S d  68     -23.272  -8.125  11.557  0.00  0.00    -0.296 OA
ATOM     26  N14 H1S d  68     -23.277  -5.590  11.211  0.00  0.00    -0.210 NA
ATOM     27  O31 H1S d  68     -24.027  -2.475  11.229  0.00  0.00    -0.572 OA
ATOM     28  O11 H1S d  68     -23.454  -3.933   5.686  0.00  0.00    -0.254 OA
ATOM     29  O3  H1S d  68     -22.180  -2.427   8.287  0.00  0.00    -0.348 OA
ATOM     30  C4  H1S d  68     -21.668  -3.880  10.335  0.00  0.00     0.083 C 
ATOM     31  C1  H1S d  68     -21.683  -3.711   8.777  0.00  0.00     0.095 C 
ATOM     32  O33 H1S d  68     -24.629  -3.143   8.928  0.00  0.00    -0.572 OA
ATOM     33  O30 H1S d  68     -22.019  -6.677  13.160  0.00  0.00    -0.296 OA
ATOM     34  O32 H1S d  68     -26.235  -1.918  10.203  0.00  0.00    -0.572 OA
ATOM     35  O29 H1S d  68     -24.453  -6.871  13.293  0.00  0.00    -0.296 OA
ATOM     36  H   H1S d  68     -20.505  -7.862   9.281  0.00  0.00     0.212 HD
ATOM     37  H   H1S d  68     -21.503  -0.732   7.829  0.00  0.00     0.134 H 
ATOM     38  H   H1S d  68     -20.596  -5.662   8.990  0.00  0.00     0.131 H 
ATOM     39  H   H1S d  68     -22.079  -5.474   5.998  0.00  0.00     0.080 H 
ATOM     40  H   H1S d  68     -21.490  -3.830   6.336  0.00  0.00     0.080 H 
ATOM     41  H   H1S d  68     -21.319  -5.576  11.648  0.00  0.00     0.076 H 
ATOM     42  H   H1S d  68     -20.338  -3.640  11.769  0.00  0.00     0.210 HD
ATOM     43  H   H1S d  68     -20.471   2.325   9.422  0.00  0.00     0.085 H 
ATOM     44  H   H1S d  68     -22.764   2.997  10.248  0.00  0.00     0.210 HD
ATOM     45  H   H1S d  68     -22.682  -0.576  10.692  0.00  0.00     0.097 H 
ATOM     46  H   H1S d  68     -22.844   1.467   8.513  0.00  0.00     0.093 H 
ATOM     47  H   H1S d  68     -23.612  -4.500   8.105  0.00  0.00     0.090 H 
ATOM     48  H   H1S d  68     -24.096  -8.198  11.051  0.00  0.00     0.231 HD
ATOM     49  H   H1S d  68     -23.675  -4.749  11.630  0.00  0.00     0.140 HD
ATOM     50  H   H1S d  68     -22.454  -3.264  10.719  0.00  0.00     0.089 H 
ATOM     51  H   H1S d  68     -20.637  -3.864   8.615  0.00  0.00     0.091 H 
ATOM     52  H   H1S d  68     -21.253  -6.658  12.564  0.00  0.00     0.231 HD
ATOM     53  H   H1S d  68     -25.274  -6.978  12.787  0.00  0.00     0.231 HD
ENDROOT
TORSDOF 16
ENDMDL
MODEL 13
REMARK VINA RESULT:      -6.7      3.176      6.732
REMARK  0 active torsions:
REMARK  status: ('A' for Active; 'I' for Inactive)
REMARK       I    between atoms: O15_1  and  C10_4 
REMARK       I    between atoms: S20_2  and  N14_26 
REMARK       I    between atoms: S20_2  and  O28_25 
REMARK       I    between atoms: S20_2  and  O29_35 
REMARK       I    between atoms: S20_2  and  O30_33 
REMARK       I    between atoms: C7_3  and  O3_29 
REMARK       I    between atoms: C6_5  and  C2_23 
REMARK       I    between atoms: C6_5  and  O11_28 
REMARK       I    between atoms: S16_6  and  O11_28 
REMARK       I    between atoms: C19_8  and  C27_10 
REMARK       I    between atoms: C8_11  and  N14_26 
REMARK       I    between atoms: O9_14  and  C4_30 
REMARK       I    between atoms: S26_18  and  O18_24 
REMARK       I    between atoms: O25_19  and  C17_21 
REMARK       I    between atoms: C12_20  and  O18_24 
REMARK       I    between atoms: O3_29  and  C1_31 
ROOT
ATOM      1  O15 H1S d  68     -17.862   3.001  10.160  0.00  0.00    -0.369 OA
ATOM      2  S20 H1S d  68     -15.585   2.446   7.668  0.00  0.00     0.156 S 
ATOM      3  C7  H1S d  68     -20.966  -1.886   7.459  0.00  0.00     0.167 C 
ATOM      4  C10 H1S d  68     -18.661   2.231   9.238  0.00  0.00     0.147 C 
ATOM      5  C6  H1S d  68     -22.013   2.143   7.891  0.00  0.00     0.067 C 
ATOM      6  S16 H1S d  68     -23.993   3.054   6.495  0.00  0.00     0.251 S 
ATOM      7  O13 H1S d  68     -20.392  -2.607   8.601  0.00  0.00    -0.311 OA
ATOM      8  C19 H1S d  68     -20.924  -3.874   8.707  0.00  0.00     0.147 C 
ATOM      9  O34 H1S d  68     -21.603  -5.627  10.296  0.00  0.00    -0.642 OA
ATOM     10  C27 H1S d  68     -21.129  -4.475  10.142  0.00  0.00     0.233 C 
ATOM     11  C8  H1S d  68     -17.724   1.224   8.555  0.00  0.00     0.081 C 
ATOM     12  O22 H1S d  68     -24.710   2.800   5.193  0.00  0.00    -0.572 OA
ATOM     13  O23 H1S d  68     -23.601   4.518   6.505  0.00  0.00    -0.572 OA
ATOM     14  O9  H1S d  68     -18.433  -0.787   9.462  0.00  0.00    -0.391 OA
ATOM     15  O21 H1S d  68     -24.944   2.780   7.651  0.00  0.00    -0.572 OA
ATOM     16  C24 H1S d  68     -21.256  -4.588   7.528  0.00  0.00    -0.034 C 
ATOM     17  O35 H1S d  68     -20.801  -3.758  11.098  0.00  0.00    -0.642 OA
ATOM     18  S26 H1S d  68     -19.256  -0.619   4.841  0.00  0.00     0.252 S 
ATOM     19  O25 H1S d  68     -20.347  -4.962   5.255  0.00  0.00    -0.389 OA
ATOM     20  C12 H1S d  68     -20.317  -2.593   6.226  0.00  0.00     0.135 C 
ATOM     21  C17 H1S d  68     -21.042  -3.987   6.095  0.00  0.00     0.086 C 
ATOM     22  O5  H1S d  68     -19.567   2.886   8.246  0.00  0.00    -0.350 OA
ATOM     23  C2  H1S d  68     -20.481   1.861   7.697  0.00  0.00     0.091 C 
ATOM     24  O18 H1S d  68     -20.266  -1.745   4.997  0.00  0.00    -0.244 OA
ATOM     25  O28 H1S d  68     -15.908   3.866   8.056  0.00  0.00    -0.296 OA
ATOM     26  N14 H1S d  68     -17.068   1.715   7.296  0.00  0.00    -0.210 NA
ATOM     27  O31 H1S d  68     -17.999  -0.873   5.654  0.00  0.00    -0.572 OA
ATOM     28  O11 H1S d  68     -22.778   2.194   6.616  0.00  0.00    -0.254 OA
ATOM     29  O3  H1S d  68     -20.971  -0.411   7.393  0.00  0.00    -0.348 OA
ATOM     30  C4  H1S d  68     -18.624   0.040   8.321  0.00  0.00     0.083 C 
ATOM     31  C1  H1S d  68     -20.140   0.432   8.251  0.00  0.00     0.095 C 
ATOM     32  O33 H1S d  68     -19.874   0.690   5.269  0.00  0.00    -0.572 OA
ATOM     33  O30 H1S d  68     -15.015   1.664   8.827  0.00  0.00    -0.296 OA
ATOM     34  O32 H1S d  68     -18.911  -0.403   3.377  0.00  0.00    -0.572 OA
ATOM     35  O29 H1S d  68     -14.568   2.469   6.561  0.00  0.00    -0.296 OA
ATOM     36  H   H1S d  68     -18.423   3.650  10.611  0.00  0.00     0.212 HD
ATOM     37  H   H1S d  68     -22.030  -1.958   7.534  0.00  0.00     0.134 H 
ATOM     38  H   H1S d  68     -19.412   1.804   9.870  0.00  0.00     0.131 H 
ATOM     39  H   H1S d  68     -22.123   3.085   8.388  0.00  0.00     0.080 H 
ATOM     40  H   H1S d  68     -22.411   1.331   8.462  0.00  0.00     0.080 H 
ATOM     41  H   H1S d  68     -16.870   1.008   9.162  0.00  0.00     0.076 H 
ATOM     42  H   H1S d  68     -17.499  -1.041   9.524  0.00  0.00     0.210 HD
ATOM     43  H   H1S d  68     -21.654  -5.536   7.615  0.00  0.00     0.085 H 
ATOM     44  H   H1S d  68     -20.857  -5.787   5.228  0.00  0.00     0.210 HD
ATOM     45  H   H1S d  68     -19.271  -2.762   6.371  0.00  0.00     0.097 H 
ATOM     46  H   H1S d  68     -21.972  -3.793   5.602  0.00  0.00     0.093 H 
ATOM     47  H   H1S d  68     -20.306   1.908   6.642  0.00  0.00     0.090 H 
ATOM     48  H   H1S d  68     -16.271   4.335   7.289  0.00  0.00     0.231 HD
ATOM     49  H   H1S d  68     -16.910   0.928   6.667  0.00  0.00     0.140 HD
ATOM     50  H   H1S d  68     -18.384  -0.426   7.388  0.00  0.00     0.089 H 
ATOM     51  H   H1S d  68     -20.353   0.335   9.295  0.00  0.00     0.091 H 
ATOM     52  H   H1S d  68     -15.661   1.641   9.550  0.00  0.00     0.231 HD
ATOM     53  H   H1S d  68     -14.921   2.968   5.807  0.00  0.00     0.231 HD
ENDROOT
TORSDOF 16
ENDMDL
MODEL 14
REMARK VINA RESULT:      -6.6      3.735      7.948
REMARK  0 active torsions:
REMARK  status: ('A' for Active; 'I' for Inactive)
REMARK       I    between atoms: O15_1  and  C10_4 
REMARK       I    between atoms: S20_2  and  N14_26 
REMARK       I    between atoms: S20_2  and  O28_25 
REMARK       I    between atoms: S20_2  and  O29_35 
REMARK       I    between atoms: S20_2  and  O30_33 
REMARK       I    between atoms: C7_3  and  O3_29 
REMARK       I    between atoms: C6_5  and  C2_23 
REMARK       I    between atoms: C6_5  and  O11_28 
REMARK       I    between atoms: S16_6  and  O11_28 
REMARK       I    between atoms: C19_8  and  C27_10 
REMARK       I    between atoms: C8_11  and  N14_26 
REMARK       I    between atoms: O9_14  and  C4_30 
REMARK       I    between atoms: S26_18  and  O18_24 
REMARK       I    between atoms: O25_19  and  C17_21 
REMARK       I    between atoms: C12_20  and  O18_24 
REMARK       I    between atoms: O3_29  and  C1_31 
ROOT
ATOM      1  O15 H1S d  68     -22.181  -1.350   5.362  0.00  0.00    -0.369 OA
ATOM      2  S20 H1S d  68     -20.932  -3.100   8.023  0.00  0.00     0.156 S 
ATOM      3  C7  H1S d  68     -17.849   3.014   7.092  0.00  0.00     0.167 C 
ATOM      4  C10 H1S d  68     -21.520  -0.293   6.087  0.00  0.00     0.147 C 
ATOM      5  C6  H1S d  68     -22.030   3.164   7.011  0.00  0.00     0.067 C 
ATOM      6  S16 H1S d  68     -23.215   5.097   8.260  0.00  0.00     0.251 S 
ATOM      7  O13 H1S d  68     -17.126   2.443   5.949  0.00  0.00    -0.311 OA
ATOM      8  C19 H1S d  68     -16.016   3.197   5.635  0.00  0.00     0.147 C 
ATOM      9  O34 H1S d  68     -14.598   3.984   3.783  0.00  0.00    -0.642 OA
ATOM     10  C27 H1S d  68     -15.603   3.316   4.125  0.00  0.00     0.233 C 
ATOM     11  C8  H1S d  68     -20.280  -0.905   6.754  0.00  0.00     0.081 C 
ATOM     12  O22 H1S d  68     -23.004   6.024   9.430  0.00  0.00    -0.572 OA
ATOM     13  O23 H1S d  68     -24.556   4.422   8.467  0.00  0.00    -0.572 OA
ATOM     14  O9  H1S d  68     -18.555   0.058   5.543  0.00  0.00    -0.391 OA
ATOM     15  O21 H1S d  68     -23.254   5.912   6.976  0.00  0.00    -0.572 OA
ATOM     16  C24 H1S d  68     -15.288   3.827   6.676  0.00  0.00    -0.034 C 
ATOM     17  O35 H1S d  68     -16.316   2.721   3.305  0.00  0.00    -0.642 OA
ATOM     18  S26 H1S d  68     -18.483   1.467  10.022  0.00  0.00     0.252 S 
ATOM     19  O25 H1S d  68     -14.527   3.337   8.980  0.00  0.00    -0.389 OA
ATOM     20  C12 H1S d  68     -16.912   2.698   8.302  0.00  0.00     0.135 C 
ATOM     21  C17 H1S d  68     -15.699   3.698   8.184  0.00  0.00     0.086 C 
ATOM     22  O5  H1S d  68     -22.263   0.593   7.035  0.00  0.00    -0.350 OA
ATOM     23  C2  H1S d  68     -21.411   1.761   7.349  0.00  0.00     0.091 C 
ATOM     24  O18 H1S d  68     -17.616   2.650   9.619  0.00  0.00    -0.244 OA
ATOM     25  O28 H1S d  68     -22.418  -3.125   7.767  0.00  0.00    -0.296 OA
ATOM     26  N14 H1S d  68     -20.505  -1.463   8.130  0.00  0.00    -0.210 NA
ATOM     27  O31 H1S d  68     -18.039   0.185   9.339  0.00  0.00    -0.572 OA
ATOM     28  O11 H1S d  68     -22.129   4.073   8.184  0.00  0.00    -0.254 OA
ATOM     29  O3  H1S d  68     -19.279   2.733   7.328  0.00  0.00    -0.348 OA
ATOM     30  C4  H1S d  68     -19.298   0.237   6.741  0.00  0.00     0.083 C 
ATOM     31  C1  H1S d  68     -19.998   1.639   6.678  0.00  0.00     0.095 C 
ATOM     32  O33 H1S d  68     -19.926   1.745   9.679  0.00  0.00    -0.572 OA
ATOM     33  O30 H1S d  68     -20.154  -3.659   6.856  0.00  0.00    -0.296 OA
ATOM     34  O32 H1S d  68     -18.488   1.294  11.532  0.00  0.00    -0.572 OA
ATOM     35  O29 H1S d  68     -20.639  -3.937   9.237  0.00  0.00    -0.296 OA
ATOM     36  H   H1S d  68     -22.972  -0.998   4.925  0.00  0.00     0.212 HD
ATOM     37  H   H1S d  68     -18.012   4.050   6.884  0.00  0.00     0.134 H 
ATOM     38  H   H1S d  68     -21.322   0.433   5.326  0.00  0.00     0.131 H 
ATOM     39  H   H1S d  68     -23.014   3.013   6.616  0.00  0.00     0.080 H 
ATOM     40  H   H1S d  68     -21.375   3.632   6.306  0.00  0.00     0.080 H 
ATOM     41  H   H1S d  68     -19.941  -1.774   6.231  0.00  0.00     0.076 H 
ATOM     42  H   H1S d  68     -18.114  -0.805   5.561  0.00  0.00     0.210 HD
ATOM     43  H   H1S d  68     -14.458   4.390   6.433  0.00  0.00     0.085 H 
ATOM     44  H   H1S d  68     -13.831   4.000   8.851  0.00  0.00     0.210 HD
ATOM     45  H   H1S d  68     -16.537   1.697   8.262  0.00  0.00     0.097 H 
ATOM     46  H   H1S d  68     -16.042   4.630   8.583  0.00  0.00     0.093 H 
ATOM     47  H   H1S d  68     -21.325   1.729   8.416  0.00  0.00     0.090 H 
ATOM     48  H   H1S d  68     -22.883  -2.760   8.535  0.00  0.00     0.231 HD
ATOM     49  H   H1S d  68     -19.649  -1.372   8.677  0.00  0.00     0.140 HD
ATOM     50  H   H1S d  68     -18.711   0.228   7.635  0.00  0.00     0.089 H 
ATOM     51  H   H1S d  68     -20.041   1.719   5.611  0.00  0.00     0.091 H 
ATOM     52  H   H1S d  68     -20.334  -3.128   6.064  0.00  0.00     0.231 HD
ATOM     53  H   H1S d  68     -21.133  -3.589   9.997  0.00  0.00     0.231 HD
ENDROOT
TORSDOF 16
ENDMDL
MODEL 15
REMARK VINA RESULT:      -6.5      1.099      1.137
REMARK  0 active torsions:
REMARK  status: ('A' for Active; 'I' for Inactive)
REMARK       I    between atoms: O15_1  and  C10_4 
REMARK       I    between atoms: S20_2  and  N14_26 
REMARK       I    between atoms: S20_2  and  O28_25 
REMARK       I    between atoms: S20_2  and  O29_35 
REMARK       I    between atoms: S20_2  and  O30_33 
REMARK       I    between atoms: C7_3  and  O3_29 
REMARK       I    between atoms: C6_5  and  C2_23 
REMARK       I    between atoms: C6_5  and  O11_28 
REMARK       I    between atoms: S16_6  and  O11_28 
REMARK       I    between atoms: C19_8  and  C27_10 
REMARK       I    between atoms: C8_11  and  N14_26 
REMARK       I    between atoms: O9_14  and  C4_30 
REMARK       I    between atoms: S26_18  and  O18_24 
REMARK       I    between atoms: O25_19  and  C17_21 
REMARK       I    between atoms: C12_20  and  O18_24 
REMARK       I    between atoms: O3_29  and  C1_31 
ROOT
ATOM      1  O15 H1S d  68     -18.179  -0.369   5.902  0.00  0.00    -0.369 OA
ATOM      2  S20 H1S d  68     -17.419  -0.023   9.219  0.00  0.00     0.156 S 
ATOM      3  C7  H1S d  68     -23.899  -2.154   8.115  0.00  0.00     0.167 C 
ATOM      4  C10 H1S d  68     -19.229  -1.160   6.497  0.00  0.00     0.147 C 
ATOM      5  C6  H1S d  68     -21.001  -4.262   5.952  0.00  0.00     0.067 C 
ATOM      6  S16 H1S d  68     -21.210  -6.837   5.805  0.00  0.00     0.251 S 
ATOM      7  O13 H1S d  68     -24.249  -0.788   7.709  0.00  0.00    -0.311 OA
ATOM      8  C19 H1S d  68     -25.611  -0.584   7.768  0.00  0.00     0.147 C 
ATOM      9  O34 H1S d  68     -27.500   0.588   6.711  0.00  0.00    -0.642 OA
ATOM     10  C27 H1S d  68     -26.266   0.362   6.700  0.00  0.00     0.233 C 
ATOM     11  C8  H1S d  68     -19.590  -0.501   7.836  0.00  0.00     0.081 C 
ATOM     12  O22 H1S d  68     -21.765  -8.004   6.583  0.00  0.00    -0.572 OA
ATOM     13  O23 H1S d  68     -19.754  -7.149   5.522  0.00  0.00    -0.572 OA
ATOM     14  O9  H1S d  68     -21.700   0.352   7.400  0.00  0.00    -0.391 OA
ATOM     15  O21 H1S d  68     -21.963  -6.709   4.490  0.00  0.00    -0.572 OA
ATOM     16  C24 H1S d  68     -26.365  -1.224   8.784  0.00  0.00    -0.034 C 
ATOM     17  O35 H1S d  68     -25.506   0.865   5.861  0.00  0.00    -0.642 OA
ATOM     18  S26 H1S d  68     -21.869  -3.017  10.667  0.00  0.00     0.252 S 
ATOM     19  O25 H1S d  68     -26.161  -1.777  11.188  0.00  0.00    -0.389 OA
ATOM     20  C12 H1S d  68     -24.140  -2.143   9.658  0.00  0.00     0.135 C 
ATOM     21  C17 H1S d  68     -25.705  -2.163   9.853  0.00  0.00     0.086 C 
ATOM     22  O5  H1S d  68     -19.111  -2.643   6.639  0.00  0.00    -0.350 OA
ATOM     23  C2  H1S d  68     -20.447  -3.191   6.958  0.00  0.00     0.091 C 
ATOM     24  O18 H1S d  68     -23.358  -3.175  10.404  0.00  0.00    -0.244 OA
ATOM     25  O28 H1S d  68     -16.380  -0.595   8.289  0.00  0.00    -0.296 OA
ATOM     26  N14 H1S d  68     -18.801  -0.984   9.019  0.00  0.00    -0.210 NA
ATOM     27  O31 H1S d  68     -21.458  -1.556  10.716  0.00  0.00    -0.572 OA
ATOM     28  O11 H1S d  68     -21.322  -5.569   6.586  0.00  0.00    -0.254 OA
ATOM     29  O3  H1S d  68     -22.638  -2.794   7.692  0.00  0.00    -0.348 OA
ATOM     30  C4  H1S d  68     -21.063  -0.788   7.960  0.00  0.00     0.083 C 
ATOM     31  C1  H1S d  68     -21.508  -2.048   7.140  0.00  0.00     0.095 C 
ATOM     32  O33 H1S d  68     -21.078  -3.725   9.595  0.00  0.00    -0.572 OA
ATOM     33  O30 H1S d  68     -17.822   1.375   8.817  0.00  0.00    -0.296 OA
ATOM     34  O32 H1S d  68     -21.471  -3.727  11.951  0.00  0.00    -0.572 OA
ATOM     35  O29 H1S d  68     -16.847   0.024  10.609  0.00  0.00    -0.296 OA
ATOM     36  H   H1S d  68     -17.925  -0.758   5.051  0.00  0.00     0.212 HD
ATOM     37  H   H1S d  68     -24.513  -2.825   7.550  0.00  0.00     0.134 H 
ATOM     38  H   H1S d  68     -19.997  -1.139   5.753  0.00  0.00     0.131 H 
ATOM     39  H   H1S d  68     -20.264  -4.426   5.194  0.00  0.00     0.080 H 
ATOM     40  H   H1S d  68     -21.916  -3.874   5.556  0.00  0.00     0.080 H 
ATOM     41  H   H1S d  68     -19.350   0.541   7.839  0.00  0.00     0.076 H 
ATOM     42  H   H1S d  68     -21.437   1.144   7.894  0.00  0.00     0.210 HD
ATOM     43  H   H1S d  68     -27.384  -1.066   8.821  0.00  0.00     0.085 H 
ATOM     44  H   H1S d  68     -27.130  -1.816  11.223  0.00  0.00     0.210 HD
ATOM     45  H   H1S d  68     -23.749  -1.257  10.114  0.00  0.00     0.097 H 
ATOM     46  H   H1S d  68     -26.007  -3.181   9.728  0.00  0.00     0.093 H 
ATOM     47  H   H1S d  68     -20.291  -3.710   7.882  0.00  0.00     0.090 H 
ATOM     48  H   H1S d  68     -16.146  -1.491   8.578  0.00  0.00     0.231 HD
ATOM     49  H   H1S d  68     -19.378  -0.926   9.858  0.00  0.00     0.140 HD
ATOM     50  H   H1S d  68     -21.316  -0.982   8.982  0.00  0.00     0.089 H 
ATOM     51  H   H1S d  68     -21.727  -1.541   6.223  0.00  0.00     0.091 H 
ATOM     52  H   H1S d  68     -18.193   1.359   7.921  0.00  0.00     0.231 HD
ATOM     53  H   H1S d  68     -16.584  -0.869  10.882  0.00  0.00     0.231 HD
ENDROOT
TORSDOF 16
ENDMDL
MODEL 16
REMARK VINA RESULT:      -6.5      2.824      6.515
REMARK  0 active torsions:
REMARK  status: ('A' for Active; 'I' for Inactive)
REMARK       I    between atoms: O15_1  and  C10_4 
REMARK       I    between atoms: S20_2  and  N14_26 
REMARK       I    between atoms: S20_2  and  O28_25 
REMARK       I    between atoms: S20_2  and  O29_35 
REMARK       I    between atoms: S20_2  and  O30_33 
REMARK       I    between atoms: C7_3  and  O3_29 
REMARK       I    between atoms: C6_5  and  C2_23 
REMARK       I    between atoms: C6_5  and  O11_28 
REMARK       I    between atoms: S16_6  and  O11_28 
REMARK       I    between atoms: C19_8  and  C27_10 
REMARK       I    between atoms: C8_11  and  N14_26 
REMARK       I    between atoms: O9_14  and  C4_30 
REMARK       I    between atoms: S26_18  and  O18_24 
REMARK       I    between atoms: O25_19  and  C17_21 
REMARK       I    between atoms: C12_20  and  O18_24 
REMARK       I    between atoms: O3_29  and  C1_31 
ROOT
ATOM      1  O15 H1S d  68     -19.277   1.623  10.481  0.00  0.00    -0.369 OA
ATOM      2  S20 H1S d  68     -18.238   0.910   7.301  0.00  0.00     0.156 S 
ATOM      3  C7  H1S d  68     -22.559  -3.825   9.883  0.00  0.00     0.167 C 
ATOM      4  C10 H1S d  68     -20.284   0.670  10.081  0.00  0.00     0.147 C 
ATOM      5  C6  H1S d  68     -23.846   0.128  10.368  0.00  0.00     0.067 C 
ATOM      6  S16 H1S d  68     -26.335   0.673   9.916  0.00  0.00     0.251 S 
ATOM      7  O13 H1S d  68     -21.461  -4.332  10.714  0.00  0.00    -0.311 OA
ATOM      8  C19 H1S d  68     -21.721  -5.611  11.157  0.00  0.00     0.147 C 
ATOM      9  O34 H1S d  68     -21.413  -7.173  13.034  0.00  0.00    -0.642 OA
ATOM     10  C27 H1S d  68     -21.209  -6.020  12.583  0.00  0.00     0.233 C 
ATOM     11  C8  H1S d  68     -19.606  -0.343   9.148  0.00  0.00     0.081 C 
ATOM     12  O22 H1S d  68     -27.500   0.184   9.093  0.00  0.00    -0.572 OA
ATOM     13  O23 H1S d  68     -26.175   2.151   9.619  0.00  0.00    -0.572 OA
ATOM     14  O9  H1S d  68     -19.583  -2.259  10.452  0.00  0.00    -0.391 OA
ATOM     15  O21 H1S d  68     -26.652   0.488  11.392  0.00  0.00    -0.572 OA
ATOM     16  C24 H1S d  68     -22.429  -6.506  10.316  0.00  0.00    -0.034 C 
ATOM     17  O35 H1S d  68     -20.601  -5.153  13.226  0.00  0.00    -0.642 OA
ATOM     18  S26 H1S d  68     -22.323  -2.802   6.676  0.00  0.00     0.252 S 
ATOM     19  O25 H1S d  68     -22.542  -7.119   7.920  0.00  0.00    -0.389 OA
ATOM     20  C12 H1S d  68     -22.414  -4.643   8.559  0.00  0.00     0.135 C 
ATOM     21  C17 H1S d  68     -22.933  -6.095   8.888  0.00  0.00     0.086 C 
ATOM     22  O5  H1S d  68     -21.607   1.107   9.537  0.00  0.00    -0.350 OA
ATOM     23  C2  H1S d  68     -22.522  -0.055   9.544  0.00  0.00     0.091 C 
ATOM     24  O18 H1S d  68     -23.008  -3.973   7.363  0.00  0.00    -0.244 OA
ATOM     25  O28 H1S d  68     -18.550   2.340   7.663  0.00  0.00    -0.296 OA
ATOM     26  N14 H1S d  68     -19.626   0.019   7.691  0.00  0.00    -0.210 NA
ATOM     27  O31 H1S d  68     -20.817  -2.840   6.869  0.00  0.00    -0.572 OA
ATOM     28  O11 H1S d  68     -25.083  -0.061   9.564  0.00  0.00    -0.254 OA
ATOM     29  O3  H1S d  68     -22.788  -2.379   9.693  0.00  0.00    -0.348 OA
ATOM     30  C4  H1S d  68     -20.353  -1.617   9.444  0.00  0.00     0.083 C 
ATOM     31  C1  H1S d  68     -21.790  -1.361  10.016  0.00  0.00     0.095 C 
ATOM     32  O33 H1S d  68     -22.865  -1.501   7.214  0.00  0.00    -0.572 OA
ATOM     33  O30 H1S d  68     -17.127   0.346   8.154  0.00  0.00    -0.296 OA
ATOM     34  O32 H1S d  68     -22.671  -2.766   5.197  0.00  0.00    -0.572 OA
ATOM     35  O29 H1S d  68     -17.807   0.861   5.861  0.00  0.00    -0.296 OA
ATOM     36  H   H1S d  68     -19.672   2.281  11.074  0.00  0.00     0.212 HD
ATOM     37  H   H1S d  68     -23.468  -3.972  10.426  0.00  0.00     0.134 H 
ATOM     38  H   H1S d  68     -20.628   0.277  11.016  0.00  0.00     0.131 H 
ATOM     39  H   H1S d  68     -23.856   1.117  10.776  0.00  0.00     0.080 H 
ATOM     40  H   H1S d  68     -23.848  -0.627  11.127  0.00  0.00     0.080 H 
ATOM     41  H   H1S d  68     -18.554  -0.404   9.332  0.00  0.00     0.076 H 
ATOM     42  H   H1S d  68     -18.688  -2.426  10.118  0.00  0.00     0.210 HD
ATOM     43  H   H1S d  68     -22.621  -7.461  10.655  0.00  0.00     0.085 H 
ATOM     44  H   H1S d  68     -22.899  -7.978   8.195  0.00  0.00     0.210 HD
ATOM     45  H   H1S d  68     -21.394  -4.706   8.242  0.00  0.00     0.097 H 
ATOM     46  H   H1S d  68     -24.000  -6.047   8.842  0.00  0.00     0.093 H 
ATOM     47  H   H1S d  68     -22.824  -0.142   8.520  0.00  0.00     0.090 H 
ATOM     48  H   H1S d  68     -19.265   2.668   7.096  0.00  0.00     0.231 HD
ATOM     49  H   H1S d  68     -19.649  -0.833   7.131  0.00  0.00     0.140 HD
ATOM     50  H   H1S d  68     -20.476  -2.188   8.547  0.00  0.00     0.089 H 
ATOM     51  H   H1S d  68     -21.519  -1.329  11.050  0.00  0.00     0.091 H 
ATOM     52  H   H1S d  68     -17.392   0.372   9.087  0.00  0.00     0.231 HD
ATOM     53  H   H1S d  68     -18.512   1.220   5.300  0.00  0.00     0.231 HD
ENDROOT
TORSDOF 16
ENDMDL
MODEL 17
REMARK VINA RESULT:      -6.5      3.541      6.426
REMARK  0 active torsions:
REMARK  status: ('A' for Active; 'I' for Inactive)
REMARK       I    between atoms: O15_1  and  C10_4 
REMARK       I    between atoms: S20_2  and  N14_26 
REMARK       I    between atoms: S20_2  and  O28_25 
REMARK       I    between atoms: S20_2  and  O29_35 
REMARK       I    between atoms: S20_2  and  O30_33 
REMARK       I    between atoms: C7_3  and  O3_29 
REMARK       I    between atoms: C6_5  and  C2_23 
REMARK       I    between atoms: C6_5  and  O11_28 
REMARK       I    between atoms: S16_6  and  O11_28 
REMARK       I    between atoms: C19_8  and  C27_10 
REMARK       I    between atoms: C8_11  and  N14_26 
REMARK       I    between atoms: O9_14  and  C4_30 
REMARK       I    between atoms: S26_18  and  O18_24 
REMARK       I    between atoms: O25_19  and  C17_21 
REMARK       I    between atoms: C12_20  and  O18_24 
REMARK       I    between atoms: O3_29  and  C1_31 
ROOT
ATOM      1  O15 H1S d  68     -26.882  -0.686   7.816  0.00  0.00    -0.369 OA
ATOM      2  S20 H1S d  68     -24.938   1.632   9.411  0.00  0.00     0.156 S 
ATOM      3  C7  H1S d  68     -22.788  -4.863  10.385  0.00  0.00     0.167 C 
ATOM      4  C10 H1S d  68     -25.689  -1.461   8.054  0.00  0.00     0.147 C 
ATOM      5  C6  H1S d  68     -23.597  -3.897   6.394  0.00  0.00     0.067 C 
ATOM      6  S16 H1S d  68     -21.939  -4.699   4.576  0.00  0.00     0.251 S 
ATOM      7  O13 H1S d  68     -23.904  -5.062  11.318  0.00  0.00    -0.311 OA
ATOM      8  C19 H1S d  68     -23.679  -6.146  12.139  0.00  0.00     0.147 C 
ATOM      9  O34 H1S d  68     -24.766  -8.007  13.327  0.00  0.00    -0.642 OA
ATOM     10  C27 H1S d  68     -24.913  -7.013  12.576  0.00  0.00     0.233 C 
ATOM     11  C8  H1S d  68     -25.093  -0.981   9.385  0.00  0.00     0.081 C 
ATOM     12  O22 H1S d  68     -20.482  -5.047   4.405  0.00  0.00    -0.572 OA
ATOM     13  O23 H1S d  68     -22.273  -3.666   3.518  0.00  0.00    -0.572 OA
ATOM     14  O9  H1S d  68     -25.477  -2.800  10.769  0.00  0.00    -0.391 OA
ATOM     15  O21 H1S d  68     -22.782  -5.945   4.347  0.00  0.00    -0.572 OA
ATOM     16  C24 H1S d  68     -22.357  -6.434  12.561  0.00  0.00    -0.034 C 
ATOM     17  O35 H1S d  68     -26.020  -6.664  12.144  0.00  0.00    -0.642 OA
ATOM     18  S26 H1S d  68     -20.879  -2.094  10.122  0.00  0.00     0.252 S 
ATOM     19  O25 H1S d  68     -20.331  -5.222  13.307  0.00  0.00    -0.389 OA
ATOM     20  C12 H1S d  68     -21.645  -4.321  11.302  0.00  0.00     0.135 C 
ATOM     21  C17 H1S d  68     -21.128  -5.561  12.128  0.00  0.00     0.086 C 
ATOM     22  O5  H1S d  68     -24.629  -1.612   7.010  0.00  0.00    -0.350 OA
ATOM     23  C2  H1S d  68     -23.725  -2.711   7.415  0.00  0.00     0.091 C 
ATOM     24  O18 H1S d  68     -20.613  -3.520  10.578  0.00  0.00    -0.244 OA
ATOM     25  O28 H1S d  68     -25.460   1.944   8.032  0.00  0.00    -0.296 OA
ATOM     26  N14 H1S d  68     -24.117   0.155   9.275  0.00  0.00    -0.210 NA
ATOM     27  O31 H1S d  68     -21.913  -1.407  10.997  0.00  0.00    -0.572 OA
ATOM     28  O11 H1S d  68     -22.203  -4.145   5.938  0.00  0.00    -0.254 OA
ATOM     29  O3  H1S d  68     -22.958  -4.133   9.113  0.00  0.00    -0.348 OA
ATOM     30  C4  H1S d  68     -24.470  -2.235   9.940  0.00  0.00     0.083 C 
ATOM     31  C1  H1S d  68     -24.109  -3.279   8.828  0.00  0.00     0.095 C 
ATOM     32  O33 H1S d  68     -21.353  -2.091   8.689  0.00  0.00    -0.572 OA
ATOM     33  O30 H1S d  68     -26.059   1.398  10.394  0.00  0.00    -0.296 OA
ATOM     34  O32 H1S d  68     -19.590  -1.290  10.087  0.00  0.00    -0.572 OA
ATOM     35  O29 H1S d  68     -24.117   2.798   9.890  0.00  0.00    -0.296 OA
ATOM     36  H   H1S d  68     -27.287  -0.964   6.979  0.00  0.00     0.212 HD
ATOM     37  H   H1S d  68     -22.599  -5.800   9.906  0.00  0.00     0.134 H 
ATOM     38  H   H1S d  68     -26.051  -2.468   8.048  0.00  0.00     0.131 H 
ATOM     39  H   H1S d  68     -24.198  -3.671   5.537  0.00  0.00     0.080 H 
ATOM     40  H   H1S d  68     -23.923  -4.781   6.900  0.00  0.00     0.080 H 
ATOM     41  H   H1S d  68     -25.841  -0.551  10.018  0.00  0.00     0.076 H 
ATOM     42  H   H1S d  68     -25.715  -2.168  11.465  0.00  0.00     0.210 HD
ATOM     43  H   H1S d  68     -22.197  -7.248  13.175  0.00  0.00     0.085 H 
ATOM     44  H   H1S d  68     -20.055  -6.036  13.755  0.00  0.00     0.210 HD
ATOM     45  H   H1S d  68     -22.003  -3.579  11.985  0.00  0.00     0.097 H 
ATOM     46  H   H1S d  68     -20.469  -6.097  11.479  0.00  0.00     0.093 H 
ATOM     47  H   H1S d  68     -22.762  -2.245   7.446  0.00  0.00     0.090 H 
ATOM     48  H   H1S d  68     -24.714   2.088   7.429  0.00  0.00     0.231 HD
ATOM     49  H   H1S d  68     -23.426   0.082  10.022  0.00  0.00     0.140 HD
ATOM     50  H   H1S d  68     -23.557  -1.998  10.447  0.00  0.00     0.089 H 
ATOM     51  H   H1S d  68     -25.045  -3.797   8.821  0.00  0.00     0.091 H 
ATOM     52  H   H1S d  68     -26.597   0.647  10.097  0.00  0.00     0.231 HD
ATOM     53  H   H1S d  68     -23.392   2.961   9.267  0.00  0.00     0.231 HD
ENDROOT
TORSDOF 16
ENDMDL
MODEL 18
REMARK VINA RESULT:      -6.4      2.484      7.100
REMARK  0 active torsions:
REMARK  status: ('A' for Active; 'I' for Inactive)
REMARK       I    between atoms: O15_1  and  C10_4 
REMARK       I    between atoms: S20_2  and  N14_26 
REMARK       I    between atoms: S20_2  and  O28_25 
REMARK       I    between atoms: S20_2  and  O29_35 
REMARK       I    between atoms: S20_2  and  O30_33 
REMARK       I    between atoms: C7_3  and  O3_29 
REMARK       I    between atoms: C6_5  and  C2_23 
REMARK       I    between atoms: C6_5  and  O11_28 
REMARK       I    between atoms: S16_6  and  O11_28 
REMARK       I    between atoms: C19_8  and  C27_10 
REMARK       I    between atoms: C8_11  and  N14_26 
REMARK       I    between atoms: O9_14  and  C4_30 
REMARK       I    between atoms: S26_18  and  O18_24 
REMARK       I    between atoms: O25_19  and  C17_21 
REMARK       I    between atoms: C12_20  and  O18_24 
REMARK       I    between atoms: O3_29  and  C1_31 
ROOT
ATOM      1  O15 H1S d  68     -25.009   0.596   8.835  0.00  0.00    -0.369 OA
ATOM      2  S20 H1S d  68     -26.034  -1.790  11.061  0.00  0.00     0.156 S 
ATOM      3  C7  H1S d  68     -20.772  -3.853   7.085  0.00  0.00     0.167 C 
ATOM      4  C10 H1S d  68     -23.856  -0.272   8.841  0.00  0.00     0.147 C 
ATOM      5  C6  H1S d  68     -20.248  -0.077   8.814  0.00  0.00     0.067 C 
ATOM      6  S16 H1S d  68     -17.933   0.505   9.814  0.00  0.00     0.251 S 
ATOM      7  O13 H1S d  68     -21.713  -4.010   5.971  0.00  0.00    -0.311 OA
ATOM      8  C19 H1S d  68     -21.192  -4.827   4.990  0.00  0.00     0.147 C 
ATOM      9  O34 H1S d  68     -21.109  -5.226   2.563  0.00  0.00    -0.642 OA
ATOM     10  C27 H1S d  68     -21.551  -4.512   3.495  0.00  0.00     0.233 C 
ATOM     11  C8  H1S d  68     -24.369  -1.705   9.043  0.00  0.00     0.081 C 
ATOM     12  O22 H1S d  68     -16.734  -0.166  10.435  0.00  0.00    -0.572 OA
ATOM     13  O23 H1S d  68     -18.387   1.579  10.782  0.00  0.00    -0.572 OA
ATOM     14  O9  H1S d  68     -23.964  -2.658   6.970  0.00  0.00    -0.391 OA
ATOM     15  O21 H1S d  68     -17.520   1.153   8.501  0.00  0.00    -0.572 OA
ATOM     16  C24 H1S d  68     -20.363  -5.915   5.362  0.00  0.00    -0.034 C 
ATOM     17  O35 H1S d  68     -22.284  -3.534   3.292  0.00  0.00    -0.642 OA
ATOM     18  S26 H1S d  68     -21.344  -4.671  10.308  0.00  0.00     0.252 S 
ATOM     19  O25 H1S d  68     -20.244  -7.651   7.124  0.00  0.00    -0.389 OA
ATOM     20  C12 H1S d  68     -20.816  -5.246   7.792  0.00  0.00     0.135 C 
ATOM     21  C17 H1S d  68     -20.014  -6.231   6.858  0.00  0.00     0.086 C 
ATOM     22  O5  H1S d  68     -22.669   0.005   9.706  0.00  0.00    -0.350 OA
ATOM     23  C2  H1S d  68     -21.547  -0.844   9.248  0.00  0.00     0.091 C 
ATOM     24  O18 H1S d  68     -20.416  -5.210   9.231  0.00  0.00    -0.244 OA
ATOM     25  O28 H1S d  68     -25.987  -0.351  11.506  0.00  0.00    -0.296 OA
ATOM     26  N14 H1S d  68     -24.485  -2.146  10.474  0.00  0.00    -0.210 NA
ATOM     27  O31 H1S d  68     -22.805  -4.817   9.918  0.00  0.00    -0.572 OA
ATOM     28  O11 H1S d  68     -19.035  -0.475   9.578  0.00  0.00    -0.254 OA
ATOM     29  O3  H1S d  68     -20.833  -2.695   7.999  0.00  0.00    -0.348 OA
ATOM     30  C4  H1S d  68     -23.378  -2.525   8.258  0.00  0.00     0.083 C 
ATOM     31  C1  H1S d  68     -21.993  -1.810   8.093  0.00  0.00     0.095 C 
ATOM     32  O33 H1S d  68     -21.038  -3.216  10.570  0.00  0.00    -0.572 OA
ATOM     33  O30 H1S d  68     -26.976  -1.986   9.898  0.00  0.00    -0.296 OA
ATOM     34  O32 H1S d  68     -21.076  -5.351  11.640  0.00  0.00    -0.572 OA
ATOM     35  O29 H1S d  68     -26.512  -2.634  12.211  0.00  0.00    -0.296 OA
ATOM     36  H   H1S d  68     -24.722   1.514   8.709  0.00  0.00     0.212 HD
ATOM     37  H   H1S d  68     -19.827  -3.568   6.671  0.00  0.00     0.134 H 
ATOM     38  H   H1S d  68     -23.402  -0.075   7.893  0.00  0.00     0.131 H 
ATOM     39  H   H1S d  68     -20.410   0.971   8.958  0.00  0.00     0.080 H 
ATOM     40  H   H1S d  68     -20.066  -0.325   7.789  0.00  0.00     0.080 H 
ATOM     41  H   H1S d  68     -25.380  -1.812   8.711  0.00  0.00     0.076 H 
ATOM     42  H   H1S d  68     -24.824  -3.099   7.050  0.00  0.00     0.210 HD
ATOM     43  H   H1S d  68     -19.977  -6.522   4.622  0.00  0.00     0.085 H 
ATOM     44  H   H1S d  68     -19.716  -8.184   6.510  0.00  0.00     0.210 HD
ATOM     45  H   H1S d  68     -21.818  -5.607   7.892  0.00  0.00     0.097 H 
ATOM     46  H   H1S d  68     -18.978  -6.062   7.068  0.00  0.00     0.093 H 
ATOM     47  H   H1S d  68     -21.281  -1.401  10.122  0.00  0.00     0.090 H 
ATOM     48  H   H1S d  68     -25.374  -0.263  12.252  0.00  0.00     0.231 HD
ATOM     49  H   H1S d  68     -24.323  -3.152  10.533  0.00  0.00     0.140 HD
ATOM     50  H   H1S d  68     -23.188  -3.451   8.759  0.00  0.00     0.089 H 
ATOM     51  H   H1S d  68     -22.218  -1.289   7.186  0.00  0.00     0.091 H 
ATOM     52  H   H1S d  68     -26.680  -1.447   9.148  0.00  0.00     0.231 HD
ATOM     53  H   H1S d  68     -25.915  -2.518  12.967  0.00  0.00     0.231 HD
ENDROOT
TORSDOF 16
ENDMDL
MODEL 19
REMARK VINA RESULT:      -6.3      1.793      1.935
REMARK  0 active torsions:
REMARK  status: ('A' for Active; 'I' for Inactive)
REMARK       I    between atoms: O15_1  and  C10_4 
REMARK       I    between atoms: S20_2  and  N14_26 
REMARK       I    between atoms: S20_2  and  O28_25 
REMARK       I    between atoms: S20_2  and  O29_35 
REMARK       I    between atoms: S20_2  and  O30_33 
REMARK       I    between atoms: C7_3  and  O3_29 
REMARK       I    between atoms: C6_5  and  C2_23 
REMARK       I    between atoms: C6_5  and  O11_28 
REMARK       I    between atoms: S16_6  and  O11_28 
REMARK       I    between atoms: C19_8  and  C27_10 
REMARK       I    between atoms: C8_11  and  N14_26 
REMARK       I    between atoms: O9_14  and  C4_30 
REMARK       I    between atoms: S26_18  and  O18_24 
REMARK       I    between atoms: O25_19  and  C17_21 
REMARK       I    between atoms: C12_20  and  O18_24 
REMARK       I    between atoms: O3_29  and  C1_31 
ROOT
ATOM      1  O15 H1S d  68     -18.211   0.718   6.380  0.00  0.00    -0.369 OA
ATOM      2  S20 H1S d  68     -18.123   1.330   9.744  0.00  0.00     0.156 S 
ATOM      3  C7  H1S d  68     -23.654  -2.318   7.780  0.00  0.00     0.167 C 
ATOM      4  C10 H1S d  68     -19.135  -0.283   6.855  0.00  0.00     0.147 C 
ATOM      5  C6  H1S d  68     -20.025  -3.733   6.249  0.00  0.00     0.067 C 
ATOM      6  S16 H1S d  68     -19.605  -6.287   6.246  0.00  0.00     0.251 S 
ATOM      7  O13 H1S d  68     -24.236  -1.087   7.233  0.00  0.00    -0.311 OA
ATOM      8  C19 H1S d  68     -25.598  -1.212   7.062  0.00  0.00     0.147 C 
ATOM      9  O34 H1S d  68     -27.500  -0.556   5.645  0.00  0.00    -0.642 OA
ATOM     10  C27 H1S d  68     -26.263  -0.481   5.844  0.00  0.00     0.233 C 
ATOM     11  C8  H1S d  68     -19.860   0.309   8.072  0.00  0.00     0.081 C 
ATOM     12  O22 H1S d  68     -20.000  -7.529   7.004  0.00  0.00    -0.572 OA
ATOM     13  O23 H1S d  68     -18.091  -6.250   6.217  0.00  0.00    -0.572 OA
ATOM     14  O9  H1S d  68     -22.004   0.620   7.252  0.00  0.00    -0.391 OA
ATOM     15  O21 H1S d  68     -20.134  -6.379   4.823  0.00  0.00    -0.572 OA
ATOM     16  C24 H1S d  68     -26.344  -1.984   7.988  0.00  0.00    -0.034 C 
ATOM     17  O35 H1S d  68     -25.509   0.165   5.102  0.00  0.00    -0.642 OA
ATOM     18  S26 H1S d  68     -21.941  -2.597  10.673  0.00  0.00     0.252 S 
ATOM     19  O25 H1S d  68     -26.428  -2.404  10.427  0.00  0.00    -0.389 OA
ATOM     20  C12 H1S d  68     -24.149  -2.320   9.262  0.00  0.00     0.135 C 
ATOM     21  C17 H1S d  68     -25.676  -2.707   9.209  0.00  0.00     0.086 C 
ATOM     22  O5  H1S d  68     -18.703  -1.691   7.113  0.00  0.00    -0.350 OA
ATOM     23  C2  H1S d  68     -19.911  -2.533   7.255  0.00  0.00     0.091 C 
ATOM     24  O18 H1S d  68     -23.287  -3.113  10.190  0.00  0.00    -0.244 OA
ATOM     25  O28 H1S d  68     -16.838   0.997   9.031  0.00  0.00    -0.296 OA
ATOM     26  N14 H1S d  68     -19.192   0.062   9.395  0.00  0.00    -0.210 NA
ATOM     27  O31 H1S d  68     -21.893  -1.079  10.687  0.00  0.00    -0.572 OA
ATOM     28  O11 H1S d  68     -20.138  -5.060   6.912  0.00  0.00    -0.254 OA
ATOM     29  O3  H1S d  68     -22.226  -2.649   7.605  0.00  0.00    -0.348 OA
ATOM     30  C4  H1S d  68     -21.226  -0.319   7.982  0.00  0.00     0.083 C 
ATOM     31  C1  H1S d  68     -21.223  -1.672   7.189  0.00  0.00     0.095 C 
ATOM     32  O33 H1S d  68     -20.838  -3.126   9.790  0.00  0.00    -0.572 OA
ATOM     33  O30 H1S d  68     -18.764   2.580   9.190  0.00  0.00    -0.296 OA
ATOM     34  O32 H1S d  68     -21.613  -3.154  12.049  0.00  0.00    -0.572 OA
ATOM     35  O29 H1S d  68     -17.821   1.553  11.201  0.00  0.00    -0.296 OA
ATOM     36  H   H1S d  68     -17.733   0.378   5.608  0.00  0.00     0.212 HD
ATOM     37  H   H1S d  68     -23.992  -3.131   7.173  0.00  0.00     0.134 H 
ATOM     38  H   H1S d  68     -19.750  -0.468   5.999  0.00  0.00     0.131 H 
ATOM     39  H   H1S d  68     -19.153  -3.738   5.629  0.00  0.00     0.080 H 
ATOM     40  H   H1S d  68     -20.924  -3.586   5.688  0.00  0.00     0.080 H 
ATOM     41  H   H1S d  68     -19.870   1.378   8.042  0.00  0.00     0.076 H 
ATOM     42  H   H1S d  68     -22.019   1.466   7.726  0.00  0.00     0.210 HD
ATOM     43  H   H1S d  68     -27.363  -2.074   7.854  0.00  0.00     0.085 H 
ATOM     44  H   H1S d  68     -27.353  -2.672  10.311  0.00  0.00     0.210 HD
ATOM     45  H   H1S d  68     -24.055  -1.354   9.712  0.00  0.00     0.097 H 
ATOM     46  H   H1S d  68     -25.709  -3.772   9.108  0.00  0.00     0.093 H 
ATOM     47  H   H1S d  68     -19.798  -2.972   8.224  0.00  0.00     0.090 H 
ATOM     48  H   H1S d  68     -16.456   0.191   9.412  0.00  0.00     0.231 HD
ATOM     49  H   H1S d  68     -19.900   0.005  10.126  0.00  0.00     0.140 HD
ATOM     50  H   H1S d  68     -21.595  -0.538   8.962  0.00  0.00     0.089 H 
ATOM     51  H   H1S d  68     -21.394  -1.258   6.217  0.00  0.00     0.091 H 
ATOM     52  H   H1S d  68     -18.964   2.450   8.250  0.00  0.00     0.231 HD
ATOM     53  H   H1S d  68     -17.409   0.757  11.571  0.00  0.00     0.231 HD
ENDROOT
TORSDOF 16
ENDMDL
MODEL 20
REMARK VINA RESULT:      -6.3      2.781      6.446
REMARK  0 active torsions:
REMARK  status: ('A' for Active; 'I' for Inactive)
REMARK       I    between atoms: O15_1  and  C10_4 
REMARK       I    between atoms: S20_2  and  N14_26 
REMARK       I    between atoms: S20_2  and  O28_25 
REMARK       I    between atoms: S20_2  and  O29_35 
REMARK       I    between atoms: S20_2  and  O30_33 
REMARK       I    between atoms: C7_3  and  O3_29 
REMARK       I    between atoms: C6_5  and  C2_23 
REMARK       I    between atoms: C6_5  and  O11_28 
REMARK       I    between atoms: S16_6  and  O11_28 
REMARK       I    between atoms: C19_8  and  C27_10 
REMARK       I    between atoms: C8_11  and  N14_26 
REMARK       I    between atoms: O9_14  and  C4_30 
REMARK       I    between atoms: S26_18  and  O18_24 
REMARK       I    between atoms: O25_19  and  C17_21 
REMARK       I    between atoms: C12_20  and  O18_24 
REMARK       I    between atoms: O3_29  and  C1_31 
ROOT
ATOM      1  O15 H1S d  68     -21.955   1.557  10.411  0.00  0.00    -0.369 OA
ATOM      2  S20 H1S d  68     -19.182   2.350   8.573  0.00  0.00     0.156 S 
ATOM      3  C7  H1S d  68     -21.487  -4.059   7.403  0.00  0.00     0.167 C 
ATOM      4  C10 H1S d  68     -22.022   0.547   9.383  0.00  0.00     0.147 C 
ATOM      5  C6  H1S d  68     -24.458  -1.113   7.292  0.00  0.00     0.067 C 
ATOM      6  S16 H1S d  68     -26.228  -1.224   5.407  0.00  0.00     0.251 S 
ATOM      7  O13 H1S d  68     -20.925  -4.466   8.696  0.00  0.00    -0.311 OA
ATOM      8  C19 H1S d  68     -20.767  -5.834   8.761  0.00  0.00     0.147 C 
ATOM      9  O34 H1S d  68     -20.849  -7.782  10.264  0.00  0.00    -0.642 OA
ATOM     10  C27 H1S d  68     -20.986  -6.540  10.146  0.00  0.00     0.233 C 
ATOM     11  C8  H1S d  68     -20.578   0.179   9.013  0.00  0.00     0.081 C 
ATOM     12  O22 H1S d  68     -26.390  -1.724   3.994  0.00  0.00    -0.572 OA
ATOM     13  O23 H1S d  68     -26.626   0.238   5.407  0.00  0.00    -0.572 OA
ATOM     14  O9  H1S d  68     -20.393  -1.968   9.865  0.00  0.00    -0.391 OA
ATOM     15  O21 H1S d  68     -27.164  -2.000   6.323  0.00  0.00    -0.572 OA
ATOM     16  C24 H1S d  68     -20.411  -6.548   7.590  0.00  0.00    -0.034 C 
ATOM     17  O35 H1S d  68     -21.295  -5.812  11.099  0.00  0.00    -0.642 OA
ATOM     18  S26 H1S d  68     -20.058  -1.961   5.181  0.00  0.00     0.252 S 
ATOM     19  O25 H1S d  68     -18.922  -6.290   5.629  0.00  0.00    -0.389 OA
ATOM     20  C12 H1S d  68     -20.300  -4.278   6.410  0.00  0.00     0.135 C 
ATOM     21  C17 H1S d  68     -20.186  -5.838   6.210  0.00  0.00     0.086 C 
ATOM     22  O5  H1S d  68     -22.866   0.723   8.162  0.00  0.00    -0.350 OA
ATOM     23  C2  H1S d  68     -22.992  -0.586   7.485  0.00  0.00     0.091 C 
ATOM     24  O18 H1S d  68     -20.382  -3.447   5.172  0.00  0.00    -0.244 OA
ATOM     25  O28 H1S d  68     -20.247   3.397   8.773  0.00  0.00    -0.296 OA
ATOM     26  N14 H1S d  68     -19.972   1.003   7.914  0.00  0.00    -0.210 NA
ATOM     27  O31 H1S d  68     -19.076  -1.605   6.283  0.00  0.00    -0.572 OA
ATOM     28  O11 H1S d  68     -24.817  -1.374   5.872  0.00  0.00    -0.254 OA
ATOM     29  O3  H1S d  68     -22.205  -2.780   7.234  0.00  0.00    -0.348 OA
ATOM     30  C4  H1S d  68     -20.688  -1.280   8.657  0.00  0.00     0.083 C 
ATOM     31  C1  H1S d  68     -22.133  -1.688   8.203  0.00  0.00     0.095 C 
ATOM     32  O33 H1S d  68     -21.324  -1.159   5.358  0.00  0.00    -0.572 OA
ATOM     33  O30 H1S d  68     -18.597   1.888   9.886  0.00  0.00    -0.296 OA
ATOM     34  O32 H1S d  68     -19.526  -1.518   3.828  0.00  0.00    -0.572 OA
ATOM     35  O29 H1S d  68     -18.078   2.939   7.738  0.00  0.00    -0.296 OA
ATOM     36  H   H1S d  68     -22.854   1.814  10.671  0.00  0.00     0.212 HD
ATOM     37  H   H1S d  68     -22.359  -4.654   7.229  0.00  0.00     0.134 H 
ATOM     38  H   H1S d  68     -22.590  -0.232   9.848  0.00  0.00     0.131 H 
ATOM     39  H   H1S d  68     -25.134  -0.381   7.682  0.00  0.00     0.080 H 
ATOM     40  H   H1S d  68     -24.525  -2.048   7.808  0.00  0.00     0.080 H 
ATOM     41  H   H1S d  68     -19.903   0.380   9.818  0.00  0.00     0.076 H 
ATOM     42  H   H1S d  68     -19.502  -1.729  10.164  0.00  0.00     0.210 HD
ATOM     43  H   H1S d  68     -20.295  -7.572   7.647  0.00  0.00     0.085 H 
ATOM     44  H   H1S d  68     -18.934  -7.255   5.540  0.00  0.00     0.210 HD
ATOM     45  H   H1S d  68     -19.377  -3.915   6.810  0.00  0.00     0.097 H 
ATOM     46  H   H1S d  68     -20.940  -6.102   5.499  0.00  0.00     0.093 H 
ATOM     47  H   H1S d  68     -22.615  -0.397   6.501  0.00  0.00     0.090 H 
ATOM     48  H   H1S d  68     -20.599   3.669   7.912  0.00  0.00     0.231 HD
ATOM     49  H   H1S d  68     -19.300   0.436   7.397  0.00  0.00     0.140 HD
ATOM     50  H   H1S d  68     -20.034  -1.510   7.842  0.00  0.00     0.089 H 
ATOM     51  H   H1S d  68     -22.512  -1.938   9.171  0.00  0.00     0.091 H 
ATOM     52  H   H1S d  68     -19.298   1.505  10.435  0.00  0.00     0.231 HD
ATOM     53  H   H1S d  68     -18.440   3.240   6.890  0.00  0.00     0.231 HD
ENDROOT
TORSDOF 16
ENDMDL
MODEL 21
REMARK VINA RESULT:      -6.2      2.887      6.497
REMARK  0 active torsions:
REMARK  status: ('A' for Active; 'I' for Inactive)
REMARK       I    between atoms: O15_1  and  C10_4 
REMARK       I    between atoms: S20_2  and  N14_26 
REMARK       I    between atoms: S20_2  and  O28_25 
REMARK       I    between atoms: S20_2  and  O29_35 
REMARK       I    between atoms: S20_2  and  O30_33 
REMARK       I    between atoms: C7_3  and  O3_29 
REMARK       I    between atoms: C6_5  and  C2_23 
REMARK       I    between atoms: C6_5  and  O11_28 
REMARK       I    between atoms: S16_6  and  O11_28 
REMARK       I    between atoms: C19_8  and  C27_10 
REMARK       I    between atoms: C8_11  and  N14_26 
REMARK       I    between atoms: O9_14  and  C4_30 
REMARK       I    between atoms: S26_18  and  O18_24 
REMARK       I    between atoms: O25_19  and  C17_21 
REMARK       I    between atoms: C12_20  and  O18_24 
REMARK       I    between atoms: O3_29  and  C1_31 
ROOT
ATOM      1  O15 H1S d  68     -20.739  -3.539   4.147  0.00  0.00    -0.369 OA
ATOM      2  S20 H1S d  68     -20.235  -4.951   7.222  0.00  0.00     0.156 S 
ATOM      3  C7  H1S d  68     -19.345   1.903   7.189  0.00  0.00     0.167 C 
ATOM      4  C10 H1S d  68     -20.858  -2.377   4.994  0.00  0.00     0.147 C 
ATOM      5  C6  H1S d  68     -22.861   0.613   5.320  0.00  0.00     0.067 C 
ATOM      6  S16 H1S d  68     -25.047   1.921   5.779  0.00  0.00     0.251 S 
ATOM      7  O13 H1S d  68     -18.057   1.703   6.516  0.00  0.00    -0.311 OA
ATOM      8  C19 H1S d  68     -17.251   2.813   6.644  0.00  0.00     0.147 C 
ATOM      9  O34 H1S d  68     -15.541   4.178   5.515  0.00  0.00    -0.642 OA
ATOM     10  C27 H1S d  68     -16.300   3.181   5.450  0.00  0.00     0.233 C 
ATOM     11  C8  H1S d  68     -19.896  -2.575   6.175  0.00  0.00     0.081 C 
ATOM     12  O22 H1S d  68     -25.688   2.772   6.845  0.00  0.00    -0.572 OA
ATOM     13  O23 H1S d  68     -26.027   0.813   5.450  0.00  0.00    -0.572 OA
ATOM     14  O9  H1S d  68     -18.264  -0.989   5.739  0.00  0.00    -0.391 OA
ATOM     15  O21 H1S d  68     -24.809   2.768   4.538  0.00  0.00    -0.572 OA
ATOM     16  C24 H1S d  68     -17.302   3.574   7.839  0.00  0.00    -0.034 C 
ATOM     17  O35 H1S d  68     -16.342   2.442   4.457  0.00  0.00    -0.642 OA
ATOM     18  S26 H1S d  68     -20.601   0.015   9.687  0.00  0.00     0.252 S 
ATOM     19  O25 H1S d  68     -17.484   3.202  10.280  0.00  0.00    -0.389 OA
ATOM     20  C12 H1S d  68     -18.972   1.837   8.705  0.00  0.00     0.135 C 
ATOM     21  C17 H1S d  68     -18.248   3.198   9.033  0.00  0.00     0.086 C 
ATOM     22  O5  H1S d  68     -22.188  -1.875   5.457  0.00  0.00    -0.350 OA
ATOM     23  C2  H1S d  68     -22.009  -0.513   6.006  0.00  0.00     0.091 C 
ATOM     24  O18 H1S d  68     -20.108   1.450   9.595  0.00  0.00    -0.244 OA
ATOM     25  O28 H1S d  68     -21.361  -5.464   6.360  0.00  0.00    -0.296 OA
ATOM     26  N14 H1S d  68     -20.483  -3.280   7.364  0.00  0.00    -0.210 NA
ATOM     27  O31 H1S d  68     -19.500  -0.981   9.368  0.00  0.00    -0.572 OA
ATOM     28  O11 H1S d  68     -23.756   1.342   6.259  0.00  0.00    -0.254 OA
ATOM     29  O3  H1S d  68     -20.547   1.131   6.815  0.00  0.00    -0.348 OA
ATOM     30  C4  H1S d  68     -19.460  -1.168   6.487  0.00  0.00     0.083 C 
ATOM     31  C1  H1S d  68     -20.497  -0.091   6.014  0.00  0.00     0.095 C 
ATOM     32  O33 H1S d  68     -21.757  -0.195   8.739  0.00  0.00    -0.572 OA
ATOM     33  O30 H1S d  68     -18.894  -5.117   6.550  0.00  0.00    -0.296 OA
ATOM     34  O32 H1S d  68     -21.193  -0.265  11.059  0.00  0.00    -0.572 OA
ATOM     35  O29 H1S d  68     -20.224  -5.725   8.511  0.00  0.00    -0.296 OA
ATOM     36  H   H1S d  68     -21.335  -3.448   3.388  0.00  0.00     0.212 HD
ATOM     37  H   H1S d  68     -19.747   2.833   6.846  0.00  0.00     0.134 H 
ATOM     38  H   H1S d  68     -20.614  -1.572   4.333  0.00  0.00     0.131 H 
ATOM     39  H   H1S d  68     -23.464   0.164   4.558  0.00  0.00     0.080 H 
ATOM     40  H   H1S d  68     -22.171   1.330   4.926  0.00  0.00     0.080 H 
ATOM     41  H   H1S d  68     -19.092  -3.233   5.921  0.00  0.00     0.076 H 
ATOM     42  H   H1S d  68     -17.608  -1.647   6.016  0.00  0.00     0.210 HD
ATOM     43  H   H1S d  68     -16.696   4.405   7.927  0.00  0.00     0.085 H 
ATOM     44  H   H1S d  68     -17.073   4.071  10.405  0.00  0.00     0.210 HD
ATOM     45  H   H1S d  68     -18.299   1.032   8.913  0.00  0.00     0.097 H 
ATOM     46  H   H1S d  68     -19.024   3.922   9.168  0.00  0.00     0.093 H 
ATOM     47  H   H1S d  68     -22.382  -0.595   7.006  0.00  0.00     0.090 H 
ATOM     48  H   H1S d  68     -22.204  -5.341   6.823  0.00  0.00     0.231 HD
ATOM     49  H   H1S d  68     -20.032  -2.942   8.215  0.00  0.00     0.140 HD
ATOM     50  H   H1S d  68     -19.348  -1.043   7.543  0.00  0.00     0.089 H 
ATOM     51  H   H1S d  68     -20.105   0.050   5.029  0.00  0.00     0.091 H 
ATOM     52  H   H1S d  68     -18.887  -4.622   5.716  0.00  0.00     0.231 HD
ATOM     53  H   H1S d  68     -21.081  -5.627   8.955  0.00  0.00     0.231 HD
ENDROOT
TORSDOF 16
ENDMDL
MODEL 22
REMARK VINA RESULT:      -6.2      3.497      4.883
REMARK  0 active torsions:
REMARK  status: ('A' for Active; 'I' for Inactive)
REMARK       I    between atoms: O15_1  and  C10_4 
REMARK       I    between atoms: S20_2  and  N14_26 
REMARK       I    between atoms: S20_2  and  O28_25 
REMARK       I    between atoms: S20_2  and  O29_35 
REMARK       I    between atoms: S20_2  and  O30_33 
REMARK       I    between atoms: C7_3  and  O3_29 
REMARK       I    between atoms: C6_5  and  C2_23 
REMARK       I    between atoms: C6_5  and  O11_28 
REMARK       I    between atoms: S16_6  and  O11_28 
REMARK       I    between atoms: C19_8  and  C27_10 
REMARK       I    between atoms: C8_11  and  N14_26 
REMARK       I    between atoms: O9_14  and  C4_30 
REMARK       I    between atoms: S26_18  and  O18_24 
REMARK       I    between atoms: O25_19  and  C17_21 
REMARK       I    between atoms: C12_20  and  O18_24 
REMARK       I    between atoms: O3_29  and  C1_31 
ROOT
ATOM      1  O15 H1S d  68     -20.097  -4.993  10.215  0.00  0.00    -0.369 OA
ATOM      2  S20 H1S d  68     -22.454  -5.660  12.603  0.00  0.00     0.156 S 
ATOM      3  C7  H1S d  68     -23.994  -0.158   8.713  0.00  0.00     0.167 C 
ATOM      4  C10 H1S d  68     -21.221  -4.254   9.691  0.00  0.00     0.147 C 
ATOM      5  C6  H1S d  68     -22.828  -3.536   6.535  0.00  0.00     0.067 C 
ATOM      6  S16 H1S d  68     -24.163  -4.144   4.403  0.00  0.00     0.251 S 
ATOM      7  O13 H1S d  68     -22.982   0.609   9.449  0.00  0.00    -0.311 OA
ATOM      8  C19 H1S d  68     -23.184   1.964   9.306  0.00  0.00     0.147 C 
ATOM      9  O34 H1S d  68     -22.051   4.143   9.133  0.00  0.00    -0.642 OA
ATOM     10  C27 H1S d  68     -21.925   2.901   9.256  0.00  0.00     0.233 C 
ATOM     11  C8  H1S d  68     -22.017  -3.726  10.893  0.00  0.00     0.081 C 
ATOM     12  O22 H1S d  68     -25.545  -3.995   3.816  0.00  0.00    -0.572 OA
ATOM     13  O23 H1S d  68     -23.820  -5.619   4.354  0.00  0.00    -0.572 OA
ATOM     14  O9  H1S d  68     -21.606  -1.448  10.780  0.00  0.00    -0.391 OA
ATOM     15  O21 H1S d  68     -23.171  -3.368   3.550  0.00  0.00    -0.572 OA
ATOM     16  C24 H1S d  68     -24.508   2.463   9.217  0.00  0.00    -0.034 C 
ATOM     17  O35 H1S d  68     -20.818   2.351   9.344  0.00  0.00    -0.642 OA
ATOM     18  S26 H1S d  68     -26.145  -2.398  10.033  0.00  0.00     0.252 S 
ATOM     19  O25 H1S d  68     -26.726   2.057  10.240  0.00  0.00    -0.389 OA
ATOM     20  C12 H1S d  68     -25.289   0.049   9.563  0.00  0.00     0.135 C 
ATOM     21  C17 H1S d  68     -25.763   1.525   9.276  0.00  0.00     0.086 C 
ATOM     22  O5  H1S d  68     -22.127  -4.834   8.653  0.00  0.00    -0.350 OA
ATOM     23  C2  H1S d  68     -22.949  -3.742   8.086  0.00  0.00     0.091 C 
ATOM     24  O18 H1S d  68     -26.308  -1.029   9.390  0.00  0.00    -0.244 OA
ATOM     25  O28 H1S d  68     -21.810  -6.811  11.874  0.00  0.00    -0.296 OA
ATOM     26  N14 H1S d  68     -23.089  -4.646  11.402  0.00  0.00    -0.210 NA
ATOM     27  O31 H1S d  68     -25.301  -2.331  11.294  0.00  0.00    -0.572 OA
ATOM     28  O11 H1S d  68     -24.123  -3.652   5.812  0.00  0.00    -0.254 OA
ATOM     29  O3  H1S d  68     -23.754  -1.550   8.282  0.00  0.00    -0.348 OA
ATOM     30  C4  H1S d  68     -22.564  -2.420  10.379  0.00  0.00     0.083 C 
ATOM     31  C1  H1S d  68     -22.676  -2.379   8.816  0.00  0.00     0.095 C 
ATOM     32  O33 H1S d  68     -25.508  -3.354   9.054  0.00  0.00    -0.572 OA
ATOM     33  O30 H1S d  68     -21.439  -4.832  13.352  0.00  0.00    -0.296 OA
ATOM     34  O32 H1S d  68     -27.500  -3.019  10.329  0.00  0.00    -0.572 OA
ATOM     35  O29 H1S d  68     -23.446  -6.210  13.590  0.00  0.00    -0.296 OA
ATOM     36  H   H1S d  68     -19.569  -5.343   9.480  0.00  0.00     0.212 HD
ATOM     37  H   H1S d  68     -24.023   0.223   7.714  0.00  0.00     0.134 H 
ATOM     38  H   H1S d  68     -20.754  -3.507   9.084  0.00  0.00     0.131 H 
ATOM     39  H   H1S d  68     -22.157  -4.275   6.147  0.00  0.00     0.080 H 
ATOM     40  H   H1S d  68     -22.471  -2.539   6.379  0.00  0.00     0.080 H 
ATOM     41  H   H1S d  68     -21.400  -3.627  11.760  0.00  0.00     0.076 H 
ATOM     42  H   H1S d  68     -21.521  -1.457  11.746  0.00  0.00     0.210 HD
ATOM     43  H   H1S d  68     -24.651   3.479   9.110  0.00  0.00     0.085 H 
ATOM     44  H   H1S d  68     -26.964   2.964   9.991  0.00  0.00     0.210 HD
ATOM     45  H   H1S d  68     -25.096  -0.052  10.610  0.00  0.00     0.097 H 
ATOM     46  H   H1S d  68     -26.280   1.494   8.340  0.00  0.00     0.093 H 
ATOM     47  H   H1S d  68     -23.953  -4.068   8.261  0.00  0.00     0.090 H 
ATOM     48  H   H1S d  68     -22.490  -7.318  11.405  0.00  0.00     0.231 HD
ATOM     49  H   H1S d  68     -23.852  -4.093  11.794  0.00  0.00     0.140 HD
ATOM     50  H   H1S d  68     -23.549  -2.257  10.762  0.00  0.00     0.089 H 
ATOM     51  H   H1S d  68     -21.695  -1.998   8.621  0.00  0.00     0.091 H 
ATOM     52  H   H1S d  68     -20.792  -4.470  12.726  0.00  0.00     0.231 HD
ATOM     53  H   H1S d  68     -24.106  -6.745  13.122  0.00  0.00     0.231 HD
ENDROOT
TORSDOF 16
ENDMDL
MODEL 23
REMARK VINA RESULT:      -6.2      3.080      5.247
REMARK  0 active torsions:
REMARK  status: ('A' for Active; 'I' for Inactive)
REMARK       I    between atoms: O15_1  and  C10_4 
REMARK       I    between atoms: S20_2  and  N14_26 
REMARK       I    between atoms: S20_2  and  O28_25 
REMARK       I    between atoms: S20_2  and  O29_35 
REMARK       I    between atoms: S20_2  and  O30_33 
REMARK       I    between atoms: C7_3  and  O3_29 
REMARK       I    between atoms: C6_5  and  C2_23 
REMARK       I    between atoms: C6_5  and  O11_28 
REMARK       I    between atoms: S16_6  and  O11_28 
REMARK       I    between atoms: C19_8  and  C27_10 
REMARK       I    between atoms: C8_11  and  N14_26 
REMARK       I    between atoms: O9_14  and  C4_30 
REMARK       I    between atoms: S26_18  and  O18_24 
REMARK       I    between atoms: O25_19  and  C17_21 
REMARK       I    between atoms: C12_20  and  O18_24 
REMARK       I    between atoms: O3_29  and  C1_31 
ROOT
ATOM      1  O15 H1S d  68     -20.044  -6.251   9.288  0.00  0.00    -0.369 OA
ATOM      2  S20 H1S d  68     -22.246  -6.270  11.906  0.00  0.00     0.156 S 
ATOM      3  C7  H1S d  68     -22.114  -0.260   8.497  0.00  0.00     0.167 C 
ATOM      4  C10 H1S d  68     -20.880  -5.128   8.938  0.00  0.00     0.147 C 
ATOM      5  C6  H1S d  68     -22.425  -3.630   6.035  0.00  0.00     0.067 C 
ATOM      6  S16 H1S d  68     -24.086  -3.553   4.052  0.00  0.00     0.251 S 
ATOM      7  O13 H1S d  68     -20.832   0.045   9.143  0.00  0.00    -0.311 OA
ATOM      8  C19 H1S d  68     -20.556   1.394   9.090  0.00  0.00     0.147 C 
ATOM      9  O34 H1S d  68     -18.751   3.055   8.888  0.00  0.00    -0.642 OA
ATOM     10  C27 H1S d  68     -19.059   1.840   8.935  0.00  0.00     0.233 C 
ATOM     11  C8  H1S d  68     -21.321  -4.465  10.251  0.00  0.00     0.081 C 
ATOM     12  O22 H1S d  68     -25.375  -2.887   3.642  0.00  0.00    -0.572 OA
ATOM     13  O23 H1S d  68     -24.290  -5.046   3.891  0.00  0.00    -0.572 OA
ATOM     14  O9  H1S d  68     -20.148  -2.467  10.199  0.00  0.00    -0.391 OA
ATOM     15  O21 H1S d  68     -22.969  -3.095   3.125  0.00  0.00    -0.572 OA
ATOM     16  C24 H1S d  68     -21.622   2.324   9.184  0.00  0.00    -0.034 C 
ATOM     17  O35 H1S d  68     -18.214   0.937   8.863  0.00  0.00    -0.642 OA
ATOM     18  S26 H1S d  68     -24.779  -1.727   9.955  0.00  0.00     0.252 S 
ATOM     19  O25 H1S d  68     -23.733   2.620  10.444  0.00  0.00    -0.389 OA
ATOM     20  C12 H1S d  68     -23.166   0.306   9.505  0.00  0.00     0.135 C 
ATOM     21  C17 H1S d  68     -23.116   1.874   9.347  0.00  0.00     0.086 C 
ATOM     22  O5  H1S d  68     -22.027  -5.268   7.990  0.00  0.00    -0.350 OA
ATOM     23  C2  H1S d  68     -22.462  -3.915   7.578  0.00  0.00     0.091 C 
ATOM     24  O18 H1S d  68     -24.511  -0.336   9.404  0.00  0.00    -0.244 OA
ATOM     25  O28 H1S d  68     -22.120  -7.505  11.051  0.00  0.00    -0.296 OA
ATOM     26  N14 H1S d  68     -22.595  -4.999  10.840  0.00  0.00    -0.210 NA
ATOM     27  O31 H1S d  68     -23.850  -2.064  11.108  0.00  0.00    -0.572 OA
ATOM     28  O11 H1S d  68     -23.741  -3.229   5.468  0.00  0.00    -0.254 OA
ATOM     29  O3  H1S d  68     -22.422  -1.606   7.974  0.00  0.00    -0.348 OA
ATOM     30  C4  H1S d  68     -21.419  -3.011   9.870  0.00  0.00     0.083 C 
ATOM     31  C1  H1S d  68     -21.659  -2.799   8.335  0.00  0.00     0.095 C 
ATOM     32  O33 H1S d  68     -24.616  -2.755   8.863  0.00  0.00    -0.572 OA
ATOM     33  O30 H1S d  68     -20.938  -5.911  12.567  0.00  0.00    -0.296 OA
ATOM     34  O32 H1S d  68     -26.232  -1.867  10.381  0.00  0.00    -0.572 OA
ATOM     35  O29 H1S d  68     -23.269  -6.529  12.977  0.00  0.00    -0.296 OA
ATOM     36  H   H1S d  68     -19.746  -6.696   8.480  0.00  0.00     0.212 HD
ATOM     37  H   H1S d  68     -22.103   0.193   7.529  0.00  0.00     0.134 H 
ATOM     38  H   H1S d  68     -20.241  -4.538   8.316  0.00  0.00     0.131 H 
ATOM     39  H   H1S d  68     -22.098  -4.518   5.535  0.00  0.00     0.080 H 
ATOM     40  H   H1S d  68     -21.757  -2.807   5.886  0.00  0.00     0.080 H 
ATOM     41  H   H1S d  68     -20.629  -4.660  11.042  0.00  0.00     0.076 H 
ATOM     42  H   H1S d  68     -19.980  -2.588  11.146  0.00  0.00     0.210 HD
ATOM     43  H   H1S d  68     -21.408   3.333   9.144  0.00  0.00     0.085 H 
ATOM     44  H   H1S d  68     -23.660   3.571  10.270  0.00  0.00     0.210 HD
ATOM     45  H   H1S d  68     -22.922   0.055  10.515  0.00  0.00     0.097 H 
ATOM     46  H   H1S d  68     -23.698   2.105   8.480  0.00  0.00     0.093 H 
ATOM     47  H   H1S d  68     -23.496  -3.889   7.856  0.00  0.00     0.090 H 
ATOM     48  H   H1S d  68     -22.977  -7.704  10.643  0.00  0.00     0.231 HD
ATOM     49  H   H1S d  68     -23.073  -4.254  11.346  0.00  0.00     0.140 HD
ATOM     50  H   H1S d  68     -22.244  -2.553  10.375  0.00  0.00     0.089 H 
ATOM     51  H   H1S d  68     -20.630  -2.763   8.042  0.00  0.00     0.091 H 
ATOM     52  H   H1S d  68     -20.267  -5.742  11.887  0.00  0.00     0.231 HD
ATOM     53  H   H1S d  68     -24.117  -6.761  12.567  0.00  0.00     0.231 HD
ENDROOT
TORSDOF 16
ENDMDL
MODEL 24
REMARK VINA RESULT:      -6.2      3.256      5.684
REMARK  0 active torsions:
REMARK  status: ('A' for Active; 'I' for Inactive)
REMARK       I    between atoms: O15_1  and  C10_4 
REMARK       I    between atoms: S20_2  and  N14_26 
REMARK       I    between atoms: S20_2  and  O28_25 
REMARK       I    between atoms: S20_2  and  O29_35 
REMARK       I    between atoms: S20_2  and  O30_33 
REMARK       I    between atoms: C7_3  and  O3_29 
REMARK       I    between atoms: C6_5  and  C2_23 
REMARK       I    between atoms: C6_5  and  O11_28 
REMARK       I    between atoms: S16_6  and  O11_28 
REMARK       I    between atoms: C19_8  and  C27_10 
REMARK       I    between atoms: C8_11  and  N14_26 
REMARK       I    between atoms: O9_14  and  C4_30 
REMARK       I    between atoms: S26_18  and  O18_24 
REMARK       I    between atoms: O25_19  and  C17_21 
REMARK       I    between atoms: C12_20  and  O18_24 
REMARK       I    between atoms: O3_29  and  C1_31 
ROOT
ATOM      1  O15 H1S d  68     -25.776   1.273   7.230  0.00  0.00    -0.369 OA
ATOM      2  S20 H1S d  68     -23.388   3.051   8.913  0.00  0.00     0.156 S 
ATOM      3  C7  H1S d  68     -22.859  -3.778   9.834  0.00  0.00     0.167 C 
ATOM      4  C10 H1S d  68     -24.807   0.236   7.485  0.00  0.00     0.147 C 
ATOM      5  C6  H1S d  68     -23.301  -2.608   5.840  0.00  0.00     0.067 C 
ATOM      6  S16 H1S d  68     -21.826  -3.760   4.053  0.00  0.00     0.251 S 
ATOM      7  O13 H1S d  68     -24.016  -3.717  10.735  0.00  0.00    -0.311 OA
ATOM      8  C19 H1S d  68     -24.077  -4.832  11.543  0.00  0.00     0.147 C 
ATOM      9  O34 H1S d  68     -25.607  -6.396  12.671  0.00  0.00    -0.642 OA
ATOM     10  C27 H1S d  68     -25.493  -5.387  11.934  0.00  0.00     0.233 C 
ATOM     11  C8  H1S d  68     -24.154   0.548   8.840  0.00  0.00     0.081 C 
ATOM     12  O22 H1S d  68     -20.488  -4.441   3.914  0.00  0.00    -0.572 OA
ATOM     13  O23 H1S d  68     -21.876  -2.668   3.004  0.00  0.00    -0.572 OA
ATOM     14  O9  H1S d  68     -24.996  -1.142  10.182  0.00  0.00    -0.391 OA
ATOM     15  O21 H1S d  68     -22.932  -4.770   3.781  0.00  0.00    -0.572 OA
ATOM     16  C24 H1S d  68     -22.874  -5.428  11.994  0.00  0.00    -0.034 C 
ATOM     17  O35 H1S d  68     -26.473  -4.782  11.479  0.00  0.00    -0.642 OA
ATOM     18  S26 H1S d  68     -20.344  -1.535   9.667  0.00  0.00     0.252 S 
ATOM     19  O25 H1S d  68     -20.641  -4.736  12.813  0.00  0.00    -0.389 OA
ATOM     20  C12 H1S d  68     -21.647  -3.530  10.790  0.00  0.00     0.135 C 
ATOM     21  C17 H1S d  68     -21.461  -4.865  11.608  0.00  0.00     0.086 C 
ATOM     22  O5  H1S d  68     -23.782  -0.151   6.467  0.00  0.00    -0.350 OA
ATOM     23  C2  H1S d  68     -23.175  -1.436   6.877  0.00  0.00     0.091 C 
ATOM     24  O18 H1S d  68     -20.435  -2.988  10.106  0.00  0.00    -0.244 OA
ATOM     25  O28 H1S d  68     -23.781   3.491   7.526  0.00  0.00    -0.296 OA
ATOM     26  N14 H1S d  68     -22.935   1.423   8.774  0.00  0.00    -0.210 NA
ATOM     27  O31 H1S d  68     -21.212  -0.632  10.526  0.00  0.00    -0.572 OA
ATOM     28  O11 H1S d  68     -21.992  -3.174   5.416  0.00  0.00    -0.254 OA
ATOM     29  O3  H1S d  68     -22.814  -3.015   8.571  0.00  0.00    -0.348 OA
ATOM     30  C4  H1S d  68     -23.860  -0.822   9.390  0.00  0.00     0.083 C 
ATOM     31  C1  H1S d  68     -23.723  -1.911   8.270  0.00  0.00     0.095 C 
ATOM     32  O33 H1S d  68     -20.762  -1.406   8.223  0.00  0.00    -0.572 OA
ATOM     33  O30 H1S d  68     -24.560   3.077   9.863  0.00  0.00    -0.296 OA
ATOM     34  O32 H1S d  68     -18.901  -1.058   9.678  0.00  0.00    -0.572 OA
ATOM     35  O29 H1S d  68     -22.330   3.985   9.433  0.00  0.00    -0.296 OA
ATOM     36  H   H1S d  68     -26.211   1.107   6.378  0.00  0.00     0.212 HD
ATOM     37  H   H1S d  68     -22.882  -4.728   9.345  0.00  0.00     0.134 H 
ATOM     38  H   H1S d  68     -25.396  -0.657   7.454  0.00  0.00     0.131 H 
ATOM     39  H   H1S d  68     -23.806  -2.239   4.972  0.00  0.00     0.080 H 
ATOM     40  H   H1S d  68     -23.840  -3.396   6.323  0.00  0.00     0.080 H 
ATOM     41  H   H1S d  68     -24.797   1.136   9.460  0.00  0.00     0.076 H 
ATOM     42  H   H1S d  68     -25.098  -0.479  10.883  0.00  0.00     0.210 HD
ATOM     43  H   H1S d  68     -22.928  -6.263  12.599  0.00  0.00     0.085 H 
ATOM     44  H   H1S d  68     -20.578  -5.597  13.254  0.00  0.00     0.210 HD
ATOM     45  H   H1S d  68     -21.840  -2.732  11.475  0.00  0.00     0.097 H 
ATOM     46  H   H1S d  68     -20.928  -5.535  10.967  0.00  0.00     0.093 H 
ATOM     47  H   H1S d  68     -22.131  -1.211   6.941  0.00  0.00     0.090 H 
ATOM     48  H   H1S d  68     -23.005   3.461   6.945  0.00  0.00     0.231 HD
ATOM     49  H   H1S d  68     -22.303   1.181   9.537  0.00  0.00     0.140 HD
ATOM     50  H   H1S d  68     -22.932  -0.813   9.924  0.00  0.00     0.089 H 
ATOM     51  H   H1S d  68     -24.755  -2.193   8.231  0.00  0.00     0.091 H 
ATOM     52  H   H1S d  68     -25.251   2.478   9.539  0.00  0.00     0.231 HD
ATOM     53  H   H1S d  68     -21.568   3.978   8.832  0.00  0.00     0.231 HD
ENDROOT
TORSDOF 16
ENDMDL
MODEL 25
REMARK VINA RESULT:      -6.2      2.390      6.081
REMARK  0 active torsions:
REMARK  status: ('A' for Active; 'I' for Inactive)
REMARK       I    between atoms: O15_1  and  C10_4 
REMARK       I    between atoms: S20_2  and  N14_26 
REMARK       I    between atoms: S20_2  and  O28_25 
REMARK       I    between atoms: S20_2  and  O29_35 
REMARK       I    between atoms: S20_2  and  O30_33 
REMARK       I    between atoms: C7_3  and  O3_29 
REMARK       I    between atoms: C6_5  and  C2_23 
REMARK       I    between atoms: C6_5  and  O11_28 
REMARK       I    between atoms: S16_6  and  O11_28 
REMARK       I    between atoms: C19_8  and  C27_10 
REMARK       I    between atoms: C8_11  and  N14_26 
REMARK       I    between atoms: O9_14  and  C4_30 
REMARK       I    between atoms: S26_18  and  O18_24 
REMARK       I    between atoms: O25_19  and  C17_21 
REMARK       I    between atoms: C12_20  and  O18_24 
REMARK       I    between atoms: O3_29  and  C1_31 
ROOT
ATOM      1  O15 H1S d  68     -21.173  -3.886   3.941  0.00  0.00    -0.369 OA
ATOM      2  S20 H1S d  68     -20.698  -5.924   6.646  0.00  0.00     0.156 S 
ATOM      3  C7  H1S d  68     -20.045   0.791   8.144  0.00  0.00     0.167 C 
ATOM      4  C10 H1S d  68     -21.353  -2.942   5.017  0.00  0.00     0.147 C 
ATOM      5  C6  H1S d  68     -23.466  -0.154   5.926  0.00  0.00     0.067 C 
ATOM      6  S16 H1S d  68     -25.706   0.958   6.589  0.00  0.00     0.251 S 
ATOM      7  O13 H1S d  68     -18.734   0.780   7.485  0.00  0.00    -0.311 OA
ATOM      8  C19 H1S d  68     -17.970   1.858   7.879  0.00  0.00     0.147 C 
ATOM      9  O34 H1S d  68     -16.281   3.485   7.132  0.00  0.00    -0.642 OA
ATOM     10  C27 H1S d  68     -17.003   2.506   6.826  0.00  0.00     0.233 C 
ATOM     11  C8  H1S d  68     -20.415  -3.368   6.156  0.00  0.00     0.081 C 
ATOM     12  O22 H1S d  68     -26.404   1.536   7.795  0.00  0.00    -0.572 OA
ATOM     13  O23 H1S d  68     -26.639  -0.077   5.994  0.00  0.00    -0.572 OA
ATOM     14  O9  H1S d  68     -18.828  -1.680   6.131  0.00  0.00    -0.391 OA
ATOM     15  O21 H1S d  68     -25.467   2.064   5.572  0.00  0.00    -0.572 OA
ATOM     16  C24 H1S d  68     -18.078   2.335   9.209  0.00  0.00    -0.034 C 
ATOM     17  O35 H1S d  68     -16.995   2.003   5.694  0.00  0.00    -0.642 OA
ATOM     18  S26 H1S d  68     -21.298  -1.635  10.126  0.00  0.00     0.252 S 
ATOM     19  O25 H1S d  68     -18.308   1.430  11.502  0.00  0.00    -0.389 OA
ATOM     20  C12 H1S d  68     -19.708   0.404   9.620  0.00  0.00     0.135 C 
ATOM     21  C17 H1S d  68     -19.040   1.680  10.261  0.00  0.00     0.086 C 
ATOM     22  O5  H1S d  68     -22.711  -2.592   5.536  0.00  0.00    -0.350 OA
ATOM     23  C2  H1S d  68     -22.593  -1.379   6.375  0.00  0.00     0.091 C 
ATOM     24  O18 H1S d  68     -20.852  -0.201  10.366  0.00  0.00    -0.244 OA
ATOM     25  O28 H1S d  68     -21.783  -6.267   5.657  0.00  0.00    -0.296 OA
ATOM     26  N14 H1S d  68     -21.007  -4.333   7.143  0.00  0.00    -0.210 NA
ATOM     27  O31 H1S d  68     -20.155  -2.505   9.632  0.00  0.00    -0.572 OA
ATOM     28  O11 H1S d  68     -24.409   0.324   6.972  0.00  0.00    -0.254 OA
ATOM     29  O3  H1S d  68     -21.210   0.086   7.571  0.00  0.00    -0.348 OA
ATOM     30  C4  H1S d  68     -20.036  -2.052   6.782  0.00  0.00     0.083 C 
ATOM     31  C1  H1S d  68     -21.097  -0.927   6.524  0.00  0.00     0.095 C 
ATOM     32  O33 H1S d  68     -22.421  -1.663   9.118  0.00  0.00    -0.572 OA
ATOM     33  O30 H1S d  68     -19.336  -5.901   5.997  0.00  0.00    -0.296 OA
ATOM     34  O32 H1S d  68     -21.913  -2.226  11.383  0.00  0.00    -0.572 OA
ATOM     35  O29 H1S d  68     -20.693  -6.963   7.733  0.00  0.00    -0.296 OA
ATOM     36  H   H1S d  68     -21.752  -3.646   3.200  0.00  0.00     0.212 HD
ATOM     37  H   H1S d  68     -20.470   1.762   8.000  0.00  0.00     0.134 H 
ATOM     38  H   H1S d  68     -21.121  -2.005   4.556  0.00  0.00     0.131 H 
ATOM     39  H   H1S d  68     -24.033  -0.442   5.065  0.00  0.00     0.080 H 
ATOM     40  H   H1S d  68     -22.792   0.651   5.720  0.00  0.00     0.080 H 
ATOM     41  H   H1S d  68     -19.583  -3.931   5.790  0.00  0.00     0.076 H 
ATOM     42  H   H1S d  68     -18.157  -2.364   6.278  0.00  0.00     0.210 HD
ATOM     43  H   H1S d  68     -17.503   3.143   9.496  0.00  0.00     0.085 H 
ATOM     44  H   H1S d  68     -17.931   2.262  11.828  0.00  0.00     0.210 HD
ATOM     45  H   H1S d  68     -19.012  -0.408   9.667  0.00  0.00     0.097 H 
ATOM     46  H   H1S d  68     -19.843   2.334  10.526  0.00  0.00     0.093 H 
ATOM     47  H   H1S d  68     -22.988  -1.690   7.321  0.00  0.00     0.090 H 
ATOM     48  H   H1S d  68     -22.641  -6.272   6.108  0.00  0.00     0.231 HD
ATOM     49  H   H1S d  68     -20.590  -4.178   8.060  0.00  0.00     0.140 HD
ATOM     50  H   H1S d  68     -19.954  -2.160   7.844  0.00  0.00     0.089 H 
ATOM     51  H   H1S d  68     -20.685  -0.562   5.607  0.00  0.00     0.091 H 
ATOM     52  H   H1S d  68     -19.325  -5.235   5.293  0.00  0.00     0.231 HD
ATOM     53  H   H1S d  68     -21.564  -6.989   8.161  0.00  0.00     0.231 HD
ENDROOT
TORSDOF 16
ENDMDL
MODEL 26
REMARK VINA RESULT:      -6.2      3.135      4.757
REMARK  0 active torsions:
REMARK  status: ('A' for Active; 'I' for Inactive)
REMARK       I    between atoms: O15_1  and  C10_4 
REMARK       I    between atoms: S20_2  and  N14_26 
REMARK       I    between atoms: S20_2  and  O28_25 
REMARK       I    between atoms: S20_2  and  O29_35 
REMARK       I    between atoms: S20_2  and  O30_33 
REMARK       I    between atoms: C7_3  and  O3_29 
REMARK       I    between atoms: C6_5  and  C2_23 
REMARK       I    between atoms: C6_5  and  O11_28 
REMARK       I    between atoms: S16_6  and  O11_28 
REMARK       I    between atoms: C19_8  and  C27_10 
REMARK       I    between atoms: C8_11  and  N14_26 
REMARK       I    between atoms: O9_14  and  C4_30 
REMARK       I    between atoms: S26_18  and  O18_24 
REMARK       I    between atoms: O25_19  and  C17_21 
REMARK       I    between atoms: C12_20  and  O18_24 
REMARK       I    between atoms: O3_29  and  C1_31 
ROOT
ATOM      1  O15 H1S d  68     -21.576   1.232   8.416  0.00  0.00    -0.369 OA
ATOM      2  S20 H1S d  68     -18.668  -0.102   9.627  0.00  0.00     0.156 S 
ATOM      3  C7  H1S d  68     -24.033  -4.439  10.032  0.00  0.00     0.167 C 
ATOM      4  C10 H1S d  68     -21.901  -0.174   8.394  0.00  0.00     0.147 C 
ATOM      5  C6  H1S d  68     -23.591  -2.589   6.304  0.00  0.00     0.067 C 
ATOM      6  S16 H1S d  68     -23.893  -4.029   4.174  0.00  0.00     0.251 S 
ATOM      7  O13 H1S d  68     -24.540  -3.659  11.167  0.00  0.00    -0.311 OA
ATOM      8  C19 H1S d  68     -25.447  -4.388  11.906  0.00  0.00     0.147 C 
ATOM      9  O34 H1S d  68     -27.500  -4.239  13.256  0.00  0.00    -0.642 OA
ATOM     10  C27 H1S d  68     -26.648  -3.625  12.568  0.00  0.00     0.233 C 
ATOM     11  C8  H1S d  68     -21.184  -0.824   9.586  0.00  0.00     0.081 C 
ATOM     12  O22 H1S d  68     -23.749  -5.455   3.707  0.00  0.00    -0.572 OA
ATOM     13  O23 H1S d  68     -23.084  -3.170   3.224  0.00  0.00    -0.572 OA
ATOM     14  O9  H1S d  68     -22.955  -1.347  10.986  0.00  0.00    -0.391 OA
ATOM     15  O21 H1S d  68     -25.357  -3.622   4.098  0.00  0.00    -0.572 OA
ATOM     16  C24 H1S d  68     -25.261  -5.787  12.048  0.00  0.00    -0.034 C 
ATOM     17  O35 H1S d  68     -26.706  -2.403  12.374  0.00  0.00    -0.642 OA
ATOM     18  S26 H1S d  68     -20.806  -5.225   9.438  0.00  0.00     0.252 S 
ATOM     19  O25 H1S d  68     -23.412  -7.397  12.391  0.00  0.00    -0.389 OA
ATOM     20  C12 H1S d  68     -23.099  -5.492  10.709  0.00  0.00     0.135 C 
ATOM     21  C17 H1S d  68     -24.054  -6.544  11.392  0.00  0.00     0.086 C 
ATOM     22  O5  H1S d  68     -21.747  -0.997   7.155  0.00  0.00    -0.350 OA
ATOM     23  C2  H1S d  68     -22.464  -2.276   7.351  0.00  0.00     0.091 C 
ATOM     24  O18 H1S d  68     -22.040  -6.035   9.806  0.00  0.00    -0.244 OA
ATOM     25  O28 H1S d  68     -18.616   0.754   8.387  0.00  0.00    -0.296 OA
ATOM     26  N14 H1S d  68     -19.797  -1.324   9.302  0.00  0.00    -0.210 NA
ATOM     27  O31 H1S d  68     -20.455  -4.215  10.516  0.00  0.00    -0.572 OA
ATOM     28  O11 H1S d  68     -23.389  -3.868   5.571  0.00  0.00    -0.254 OA
ATOM     29  O3  H1S d  68     -23.465  -3.790   8.833  0.00  0.00    -0.348 OA
ATOM     30  C4  H1S d  68     -22.132  -1.925   9.982  0.00  0.00     0.083 C 
ATOM     31  C1  H1S d  68     -23.054  -2.388   8.801  0.00  0.00     0.095 C 
ATOM     32  O33 H1S d  68     -21.033  -4.507   8.131  0.00  0.00    -0.572 OA
ATOM     33  O30 H1S d  68     -19.209   0.661  10.811  0.00  0.00    -0.296 OA
ATOM     34  O32 H1S d  68     -19.625  -6.140   9.158  0.00  0.00    -0.572 OA
ATOM     35  O29 H1S d  68     -17.274  -0.563   9.951  0.00  0.00    -0.296 OA
ATOM     36  H   H1S d  68     -22.014   1.677   7.673  0.00  0.00     0.212 HD
ATOM     37  H   H1S d  68     -24.878  -4.832   9.507  0.00  0.00     0.134 H 
ATOM     38  H   H1S d  68     -22.970  -0.174   8.444  0.00  0.00     0.131 H 
ATOM     39  H   H1S d  68     -23.621  -1.792   5.590  0.00  0.00     0.080 H 
ATOM     40  H   H1S d  68     -24.507  -2.682   6.849  0.00  0.00     0.080 H 
ATOM     41  H   H1S d  68     -20.993  -0.115  10.364  0.00  0.00     0.076 H 
ATOM     42  H   H1S d  68     -22.403  -1.053  11.727  0.00  0.00     0.210 HD
ATOM     43  H   H1S d  68     -25.944  -6.326  12.602  0.00  0.00     0.085 H 
ATOM     44  H   H1S d  68     -24.066  -8.012  12.760  0.00  0.00     0.210 HD
ATOM     45  H   H1S d  68     -22.482  -5.049  11.463  0.00  0.00     0.097 H 
ATOM     46  H   H1S d  68     -24.375  -7.204  10.613  0.00  0.00     0.093 H 
ATOM     47  H   H1S d  68     -21.706  -3.015   7.195  0.00  0.00     0.090 H 
ATOM     48  H   H1S d  68     -18.265   0.232   7.649  0.00  0.00     0.231 HD
ATOM     49  H   H1S d  68     -19.600  -2.132   9.892  0.00  0.00     0.140 HD
ATOM     50  H   H1S d  68     -21.583  -2.787  10.298  0.00  0.00     0.089 H 
ATOM     51  H   H1S d  68     -23.852  -1.696   8.975  0.00  0.00     0.091 H 
ATOM     52  H   H1S d  68     -20.109   0.966  10.616  0.00  0.00     0.231 HD
ATOM     53  H   H1S d  68     -16.913  -1.057   9.198  0.00  0.00     0.231 HD
ENDROOT
TORSDOF 16
ENDMDL
MODEL 27
REMARK VINA RESULT:      -6.1      3.015      3.876
REMARK  0 active torsions:
REMARK  status: ('A' for Active; 'I' for Inactive)
REMARK       I    between atoms: O15_1  and  C10_4 
REMARK       I    between atoms: S20_2  and  N14_26 
REMARK       I    between atoms: S20_2  and  O28_25 
REMARK       I    between atoms: S20_2  and  O29_35 
REMARK       I    between atoms: S20_2  and  O30_33 
REMARK       I    between atoms: C7_3  and  O3_29 
REMARK       I    between atoms: C6_5  and  C2_23 
REMARK       I    between atoms: C6_5  and  O11_28 
REMARK       I    between atoms: S16_6  and  O11_28 
REMARK       I    between atoms: C19_8  and  C27_10 
REMARK       I    between atoms: C8_11  and  N14_26 
REMARK       I    between atoms: O9_14  and  C4_30 
REMARK       I    between atoms: S26_18  and  O18_24 
REMARK       I    between atoms: O25_19  and  C17_21 
REMARK       I    between atoms: C12_20  and  O18_24 
REMARK       I    between atoms: O3_29  and  C1_31 
ROOT
ATOM      1  O15 H1S d  68     -16.584   2.691   6.309  0.00  0.00    -0.369 OA
ATOM      2  S20 H1S d  68     -15.726   0.521   8.810  0.00  0.00     0.156 S 
ATOM      3  C7  H1S d  68     -22.557   1.234   8.041  0.00  0.00     0.167 C 
ATOM      4  C10 H1S d  68     -17.823   1.971   6.470  0.00  0.00     0.147 C 
ATOM      5  C6  H1S d  68     -20.482   0.561   4.469  0.00  0.00     0.067 C 
ATOM      6  S16 H1S d  68     -21.488  -1.100   2.759  0.00  0.00     0.251 S 
ATOM      7  O13 H1S d  68     -22.464   2.546   8.692  0.00  0.00    -0.311 OA
ATOM      8  C19 H1S d  68     -23.693   2.957   9.162  0.00  0.00     0.147 C 
ATOM      9  O34 H1S d  68     -25.129   4.919   9.543  0.00  0.00    -0.642 OA
ATOM     10  C27 H1S d  68     -24.027   4.490   9.123  0.00  0.00     0.233 C 
ATOM     11  C8  H1S d  68     -17.949   1.610   7.957  0.00  0.00     0.081 C 
ATOM     12  O22 H1S d  68     -22.375  -2.319   2.707  0.00  0.00    -0.572 OA
ATOM     13  O23 H1S d  68     -20.206  -1.456   2.033  0.00  0.00    -0.572 OA
ATOM     14  O9  H1S d  68     -19.689   2.980   8.640  0.00  0.00    -0.391 OA
ATOM     15  O21 H1S d  68     -22.174   0.049   2.035  0.00  0.00    -0.572 OA
ATOM     16  C24 H1S d  68     -24.601   1.992   9.666  0.00  0.00    -0.034 C 
ATOM     17  O35 H1S d  68     -23.155   5.238   8.660  0.00  0.00    -0.642 OA
ATOM     18  S26 H1S d  68     -20.878  -1.554   8.930  0.00  0.00     0.252 S 
ATOM     19  O25 H1S d  68     -24.562  -0.067  11.040  0.00  0.00    -0.389 OA
ATOM     20  C12 H1S d  68     -22.770   0.254   9.239  0.00  0.00     0.135 C 
ATOM     21  C17 H1S d  68     -24.260   0.461   9.710  0.00  0.00     0.086 C 
ATOM     22  O5  H1S d  68     -18.175   0.807   5.599  0.00  0.00    -0.350 OA
ATOM     23  C2  H1S d  68     -19.613   0.508   5.775  0.00  0.00     0.091 C 
ATOM     24  O18 H1S d  68     -22.344  -1.151   8.959  0.00  0.00    -0.244 OA
ATOM     25  O28 H1S d  68     -14.926   0.513   7.533  0.00  0.00    -0.296 OA
ATOM     26  N14 H1S d  68     -17.341   0.294   8.349  0.00  0.00    -0.210 NA
ATOM     27  O31 H1S d  68     -20.029  -0.654   9.811  0.00  0.00    -0.572 OA
ATOM     28  O11 H1S d  68     -21.191  -0.712   4.170  0.00  0.00    -0.254 OA
ATOM     29  O3  H1S d  68     -21.562   0.786   7.046  0.00  0.00    -0.348 OA
ATOM     30  C4  H1S d  68     -19.437   1.657   8.185  0.00  0.00     0.083 C 
ATOM     31  C1  H1S d  68     -20.261   1.427   6.871  0.00  0.00     0.095 C 
ATOM     32  O33 H1S d  68     -20.358  -1.505   7.515  0.00  0.00    -0.572 OA
ATOM     33  O30 H1S d  68     -15.674   1.865   9.496  0.00  0.00    -0.296 OA
ATOM     34  O32 H1S d  68     -20.712  -3.009   9.336  0.00  0.00    -0.572 OA
ATOM     35  O29 H1S d  68     -15.157  -0.513   9.741  0.00  0.00    -0.296 OA
ATOM     36  H   H1S d  68     -16.471   2.936   5.377  0.00  0.00     0.212 HD
ATOM     37  H   H1S d  68     -23.354   1.283   7.330  0.00  0.00     0.134 H 
ATOM     38  H   H1S d  68     -18.552   2.661   6.101  0.00  0.00     0.131 H 
ATOM     39  H   H1S d  68     -19.840   0.792   3.645  0.00  0.00     0.080 H 
ATOM     40  H   H1S d  68     -21.233   1.308   4.624  0.00  0.00     0.080 H 
ATOM     41  H   H1S d  68     -17.394   2.286   8.573  0.00  0.00     0.076 H 
ATOM     42  H   H1S d  68     -19.187   3.143   9.453  0.00  0.00     0.210 HD
ATOM     43  H   H1S d  68     -25.519   2.307  10.015  0.00  0.00     0.085 H 
ATOM     44  H   H1S d  68     -25.493   0.101  11.251  0.00  0.00     0.210 HD
ATOM     45  H   H1S d  68     -22.117   0.479  10.056  0.00  0.00     0.097 H 
ATOM     46  H   H1S d  68     -24.867  -0.101   9.032  0.00  0.00     0.093 H 
ATOM     47  H   H1S d  68     -19.620  -0.515   6.090  0.00  0.00     0.090 H 
ATOM     48  H   H1S d  68     -14.983  -0.363   7.122  0.00  0.00     0.231 HD
ATOM     49  H   H1S d  68     -17.864  -0.102   9.130  0.00  0.00     0.140 HD
ATOM     50  H   H1S d  68     -19.729   0.888   8.869  0.00  0.00     0.089 H 
ATOM     51  H   H1S d  68     -20.317   2.452   6.567  0.00  0.00     0.091 H 
ATOM     52  H   H1S d  68     -16.039   2.543   8.906  0.00  0.00     0.231 HD
ATOM     53  H   H1S d  68     -15.184  -1.384   9.314  0.00  0.00     0.231 HD
ENDROOT
TORSDOF 16
ENDMDL
MODEL 28
REMARK VINA RESULT:      -6.1      3.030      7.040
REMARK  0 active torsions:
REMARK  status: ('A' for Active; 'I' for Inactive)
REMARK       I    between atoms: O15_1  and  C10_4 
REMARK       I    between atoms: S20_2  and  N14_26 
REMARK       I    between atoms: S20_2  and  O28_25 
REMARK       I    between atoms: S20_2  and  O29_35 
REMARK       I    between atoms: S20_2  and  O30_33 
REMARK       I    between atoms: C7_3  and  O3_29 
REMARK       I    between atoms: C6_5  and  C2_23 
REMARK       I    between atoms: C6_5  and  O11_28 
REMARK       I    between atoms: S16_6  and  O11_28 
REMARK       I    between atoms: C19_8  and  C27_10 
REMARK       I    between atoms: C8_11  and  N14_26 
REMARK       I    between atoms: O9_14  and  C4_30 
REMARK       I    between atoms: S26_18  and  O18_24 
REMARK       I    between atoms: O25_19  and  C17_21 
REMARK       I    between atoms: C12_20  and  O18_24 
REMARK       I    between atoms: O3_29  and  C1_31 
ROOT
ATOM      1  O15 H1S d  68     -22.802  -3.270   5.152  0.00  0.00    -0.369 OA
ATOM      2  S20 H1S d  68     -20.453  -4.914   7.017  0.00  0.00     0.156 S 
ATOM      3  C7  H1S d  68     -18.953   1.756   6.006  0.00  0.00     0.167 C 
ATOM      4  C10 H1S d  68     -22.127  -2.155   5.769  0.00  0.00     0.147 C 
ATOM      5  C6  H1S d  68     -22.879   1.045   7.270  0.00  0.00     0.067 C 
ATOM      6  S16 H1S d  68     -23.886   2.596   9.081  0.00  0.00     0.251 S 
ATOM      7  O13 H1S d  68     -18.570   1.431   4.627  0.00  0.00    -0.311 OA
ATOM      8  C19 H1S d  68     -17.776   2.418   4.085  0.00  0.00     0.147 C 
ATOM      9  O34 H1S d  68     -17.220   3.614   2.007  0.00  0.00    -0.642 OA
ATOM     10  C27 H1S d  68     -17.922   2.729   2.553  0.00  0.00     0.233 C 
ATOM     11  C8  H1S d  68     -20.649  -2.545   5.920  0.00  0.00     0.081 C 
ATOM     12  O22 H1S d  68     -23.456   3.459  10.241  0.00  0.00    -0.572 OA
ATOM     13  O23 H1S d  68     -24.943   1.646   9.607  0.00  0.00    -0.572 OA
ATOM     14  O9  H1S d  68     -19.624  -1.161   4.370  0.00  0.00    -0.391 OA
ATOM     15  O21 H1S d  68     -24.493   3.477   8.000  0.00  0.00    -0.572 OA
ATOM     16  C24 H1S d  68     -16.860   3.107   4.919  0.00  0.00    -0.034 C 
ATOM     17  O35 H1S d  68     -18.757   2.062   1.927  0.00  0.00    -0.642 OA
ATOM     18  S26 H1S d  68     -18.291  -0.098   8.747  0.00  0.00     0.252 S 
ATOM     19  O25 H1S d  68     -15.296   2.618   6.775  0.00  0.00    -0.389 OA
ATOM     20  C12 H1S d  68     -17.625   1.553   6.804  0.00  0.00     0.135 C 
ATOM     21  C17 H1S d  68     -16.712   2.787   6.447  0.00  0.00     0.086 C 
ATOM     22  O5  H1S d  68     -22.647  -1.513   7.015  0.00  0.00    -0.350 OA
ATOM     23  C2  H1S d  68     -21.952  -0.220   7.201  0.00  0.00     0.091 C 
ATOM     24  O18 H1S d  68     -17.826   1.265   8.256  0.00  0.00    -0.244 OA
ATOM     25  O28 H1S d  68     -21.910  -5.225   7.243  0.00  0.00    -0.296 OA
ATOM     26  N14 H1S d  68     -20.301  -3.237   7.207  0.00  0.00    -0.210 NA
ATOM     27  O31 H1S d  68     -17.891  -1.207   7.790  0.00  0.00    -0.572 OA
ATOM     28  O11 H1S d  68     -22.731   1.827   8.528  0.00  0.00    -0.254 OA
ATOM     29  O3  H1S d  68     -20.150   1.169   6.641  0.00  0.00    -0.348 OA
ATOM     30  C4  H1S d  68     -19.940  -1.227   5.755  0.00  0.00     0.083 C 
ATOM     31  C1  H1S d  68     -20.848   0.001   6.108  0.00  0.00     0.095 C 
ATOM     32  O33 H1S d  68     -19.790  -0.099   8.918  0.00  0.00    -0.572 OA
ATOM     33  O30 H1S d  68     -20.029  -5.213   5.600  0.00  0.00    -0.296 OA
ATOM     34  O32 H1S d  68     -17.759  -0.378  10.142  0.00  0.00    -0.572 OA
ATOM     35  O29 H1S d  68     -19.630  -5.759   7.951  0.00  0.00    -0.296 OA
ATOM     36  H   H1S d  68     -23.742  -3.058   5.040  0.00  0.00     0.212 HD
ATOM     37  H   H1S d  68     -19.351   2.749   6.005  0.00  0.00     0.134 H 
ATOM     38  H   H1S d  68     -22.323  -1.350   5.091  0.00  0.00     0.131 H 
ATOM     39  H   H1S d  68     -23.897   0.724   7.190  0.00  0.00     0.080 H 
ATOM     40  H   H1S d  68     -22.589   1.689   6.466  0.00  0.00     0.080 H 
ATOM     41  H   H1S d  68     -20.363  -3.285   5.203  0.00  0.00     0.076 H 
ATOM     42  H   H1S d  68     -19.062  -1.914   4.131  0.00  0.00     0.210 HD
ATOM     43  H   H1S d  68     -16.269   3.845   4.505  0.00  0.00     0.085 H 
ATOM     44  H   H1S d  68     -14.808   3.418   6.525  0.00  0.00     0.210 HD
ATOM     45  H   H1S d  68     -17.120   0.656   6.511  0.00  0.00     0.097 H 
ATOM     46  H   H1S d  68     -17.054   3.596   7.057  0.00  0.00     0.093 H 
ATOM     47  H   H1S d  68     -21.509  -0.312   8.171  0.00  0.00     0.090 H 
ATOM     48  H   H1S d  68     -22.146  -5.021   8.161  0.00  0.00     0.231 HD
ATOM     49  H   H1S d  68     -19.339  -3.011   7.463  0.00  0.00     0.140 HD
ATOM     50  H   H1S d  68     -19.093  -1.181   6.408  0.00  0.00     0.089 H 
ATOM     51  H   H1S d  68     -21.261   0.148   5.131  0.00  0.00     0.091 H 
ATOM     52  H   H1S d  68     -20.552  -4.675   4.986  0.00  0.00     0.231 HD
ATOM     53  H   H1S d  68     -19.892  -5.577   8.867  0.00  0.00     0.231 HD
ENDROOT
TORSDOF 16
ENDMDL
MODEL 29
REMARK VINA RESULT:      -6.1      3.195      6.644
REMARK  0 active torsions:
REMARK  status: ('A' for Active; 'I' for Inactive)
REMARK       I    between atoms: O15_1  and  C10_4 
REMARK       I    between atoms: S20_2  and  N14_26 
REMARK       I    between atoms: S20_2  and  O28_25 
REMARK       I    between atoms: S20_2  and  O29_35 
REMARK       I    between atoms: S20_2  and  O30_33 
REMARK       I    between atoms: C7_3  and  O3_29 
REMARK       I    between atoms: C6_5  and  C2_23 
REMARK       I    between atoms: C6_5  and  O11_28 
REMARK       I    between atoms: S16_6  and  O11_28 
REMARK       I    between atoms: C19_8  and  C27_10 
REMARK       I    between atoms: C8_11  and  N14_26 
REMARK       I    between atoms: O9_14  and  C4_30 
REMARK       I    between atoms: S26_18  and  O18_24 
REMARK       I    between atoms: O25_19  and  C17_21 
REMARK       I    between atoms: C12_20  and  O18_24 
REMARK       I    between atoms: O3_29  and  C1_31 
ROOT
ATOM      1  O15 H1S d  68     -18.440   4.657   9.305  0.00  0.00    -0.369 OA
ATOM      2  S20 H1S d  68     -15.666   3.343   7.795  0.00  0.00     0.156 S 
ATOM      3  C7  H1S d  68     -21.095  -0.934   7.721  0.00  0.00     0.167 C 
ATOM      4  C10 H1S d  68     -19.039   3.599   8.527  0.00  0.00     0.147 C 
ATOM      5  C6  H1S d  68     -21.963   2.974   6.499  0.00  0.00     0.067 C 
ATOM      6  S16 H1S d  68     -23.486   3.304   4.432  0.00  0.00     0.251 S 
ATOM      7  O13 H1S d  68     -20.861  -1.208   9.144  0.00  0.00    -0.311 OA
ATOM      8  C19 H1S d  68     -21.480  -2.376   9.534  0.00  0.00     0.147 C 
ATOM      9  O34 H1S d  68     -22.631  -3.498  11.398  0.00  0.00    -0.642 OA
ATOM     10  C27 H1S d  68     -22.064  -2.456  10.989  0.00  0.00     0.233 C 
ATOM     11  C8  H1S d  68     -18.028   2.444   8.479  0.00  0.00     0.081 C 
ATOM     12  O22 H1S d  68     -23.880   2.603   3.156  0.00  0.00    -0.572 OA
ATOM     13  O23 H1S d  68     -23.017   4.692   4.046  0.00  0.00    -0.572 OA
ATOM     14  O9  H1S d  68     -19.059   0.845   9.802  0.00  0.00    -0.391 OA
ATOM     15  O21 H1S d  68     -24.703   3.417   5.337  0.00  0.00    -0.572 OA
ATOM     16  C24 H1S d  68     -21.561  -3.457   8.620  0.00  0.00    -0.034 C 
ATOM     17  O35 H1S d  68     -21.933  -1.449  11.697  0.00  0.00    -0.642 OA
ATOM     18  S26 H1S d  68     -18.726  -0.593   5.343  0.00  0.00     0.252 S 
ATOM     19  O25 H1S d  68     -20.153  -4.561   6.908  0.00  0.00    -0.389 OA
ATOM     20  C12 H1S d  68     -20.212  -2.002   7.001  0.00  0.00     0.135 C 
ATOM     21  C17 H1S d  68     -20.969  -3.375   7.169  0.00  0.00     0.086 C 
ATOM     22  O5  H1S d  68     -19.635   3.854   7.180  0.00  0.00    -0.350 OA
ATOM     23  C2  H1S d  68     -20.451   2.681   6.799  0.00  0.00     0.091 C 
ATOM     24  O18 H1S d  68     -19.811  -1.624   5.612  0.00  0.00    -0.244 OA
ATOM     25  O28 H1S d  68     -15.986   4.802   7.589  0.00  0.00    -0.296 OA
ATOM     26  N14 H1S d  68     -17.058   2.492   7.333  0.00  0.00    -0.210 NA
ATOM     27  O31 H1S d  68     -17.722  -0.524   6.480  0.00  0.00    -0.572 OA
ATOM     28  O11 H1S d  68     -22.392   2.567   5.133  0.00  0.00    -0.254 OA
ATOM     29  O3  H1S d  68     -20.992   0.430   7.164  0.00  0.00    -0.348 OA
ATOM     30  C4  H1S d  68     -18.917   1.228   8.440  0.00  0.00     0.083 C 
ATOM     31  C1  H1S d  68     -20.343   1.535   7.867  0.00  0.00     0.095 C 
ATOM     32  O33 H1S d  68     -19.347   0.767   5.139  0.00  0.00    -0.572 OA
ATOM     33  O30 H1S d  68     -15.444   3.018   9.252  0.00  0.00    -0.296 OA
ATOM     34  O32 H1S d  68     -18.024  -0.881   4.026  0.00  0.00    -0.572 OA
ATOM     35  O29 H1S d  68     -14.412   3.013   7.034  0.00  0.00    -0.296 OA
ATOM     36  H   H1S d  68     -19.053   5.407   9.357  0.00  0.00     0.212 HD
ATOM     37  H   H1S d  68     -22.148  -1.003   7.549  0.00  0.00     0.134 H 
ATOM     38  H   H1S d  68     -19.945   3.395   9.058  0.00  0.00     0.131 H 
ATOM     39  H   H1S d  68     -22.132   4.025   6.607  0.00  0.00     0.080 H 
ATOM     40  H   H1S d  68     -22.537   2.394   7.192  0.00  0.00     0.080 H 
ATOM     41  H   H1S d  68     -17.362   2.469   9.315  0.00  0.00     0.076 H 
ATOM     42  H   H1S d  68     -18.186   0.651  10.176  0.00  0.00     0.210 HD
ATOM     43  H   H1S d  68     -22.025  -4.328   8.919  0.00  0.00     0.085 H 
ATOM     44  H   H1S d  68     -20.691  -5.358   7.034  0.00  0.00     0.210 HD
ATOM     45  H   H1S d  68     -19.245  -2.086   7.450  0.00  0.00     0.097 H 
ATOM     46  H   H1S d  68     -21.737  -3.384   6.425  0.00  0.00     0.093 H 
ATOM     47  H   H1S d  68     -20.022   2.369   5.869  0.00  0.00     0.090 H 
ATOM     48  H   H1S d  68     -16.122   4.972   6.645  0.00  0.00     0.231 HD
ATOM     49  H   H1S d  68     -16.802   1.542   7.066  0.00  0.00     0.140 HD
ATOM     50  H   H1S d  68     -18.487   0.478   7.809  0.00  0.00     0.089 H 
ATOM     51  H   H1S d  68     -20.808   1.794   8.795  0.00  0.00     0.091 H 
ATOM     52  H   H1S d  68     -16.246   3.226   9.756  0.00  0.00     0.231 HD
ATOM     53  H   H1S d  68     -14.540   3.216   6.094  0.00  0.00     0.231 HD
ENDROOT
TORSDOF 16
ENDMDL
MODEL 30
REMARK VINA RESULT:      -6.1      2.277      5.872
REMARK  0 active torsions:
REMARK  status: ('A' for Active; 'I' for Inactive)
REMARK       I    between atoms: O15_1  and  C10_4 
REMARK       I    between atoms: S20_2  and  N14_26 
REMARK       I    between atoms: S20_2  and  O28_25 
REMARK       I    between atoms: S20_2  and  O29_35 
REMARK       I    between atoms: S20_2  and  O30_33 
REMARK       I    between atoms: C7_3  and  O3_29 
REMARK       I    between atoms: C6_5  and  C2_23 
REMARK       I    between atoms: C6_5  and  O11_28 
REMARK       I    between atoms: S16_6  and  O11_28 
REMARK       I    between atoms: C19_8  and  C27_10 
REMARK       I    between atoms: C8_11  and  N14_26 
REMARK       I    between atoms: O9_14  and  C4_30 
REMARK       I    between atoms: S26_18  and  O18_24 
REMARK       I    between atoms: O25_19  and  C17_21 
REMARK       I    between atoms: C12_20  and  O18_24 
REMARK       I    between atoms: O3_29  and  C1_31 
ROOT
ATOM      1  O15 H1S d  68     -22.091  -5.361   5.068  0.00  0.00    -0.369 OA
ATOM      2  S20 H1S d  68     -21.094  -6.904   7.953  0.00  0.00     0.156 S 
ATOM      3  C7  H1S d  68     -20.704  -0.012   8.272  0.00  0.00     0.167 C 
ATOM      4  C10 H1S d  68     -22.181  -4.263   5.999  0.00  0.00     0.147 C 
ATOM      5  C6  H1S d  68     -24.332  -1.464   6.775  0.00  0.00     0.067 C 
ATOM      6  S16 H1S d  68     -26.527  -0.361   7.590  0.00  0.00     0.251 S 
ATOM      7  O13 H1S d  68     -19.503  -0.070   7.431  0.00  0.00    -0.311 OA
ATOM      8  C19 H1S d  68     -18.768   1.092   7.532  0.00  0.00     0.147 C 
ATOM      9  O34 H1S d  68     -17.320   2.650   6.294  0.00  0.00    -0.642 OA
ATOM     10  C27 H1S d  68     -18.008   1.602   6.256  0.00  0.00     0.233 C 
ATOM     11  C8  H1S d  68     -21.063  -4.453   7.034  0.00  0.00     0.081 C 
ATOM     12  O22 H1S d  68     -27.083   0.373   8.784  0.00  0.00    -0.572 OA
ATOM     13  O23 H1S d  68     -27.460  -1.522   7.312  0.00  0.00    -0.572 OA
ATOM     14  O9  H1S d  68     -19.618  -2.720   6.506  0.00  0.00    -0.391 OA
ATOM     15  O21 H1S d  68     -26.513   0.573   6.389  0.00  0.00    -0.572 OA
ATOM     16  C24 H1S d  68     -18.717   1.775   8.773  0.00  0.00    -0.034 C 
ATOM     17  O35 H1S d  68     -18.127   0.921   5.229  0.00  0.00    -0.642 OA
ATOM     18  S26 H1S d  68     -21.488  -2.135  10.774  0.00  0.00     0.252 S 
ATOM     19  O25 H1S d  68     -18.554   1.249  11.187  0.00  0.00    -0.389 OA
ATOM     20  C12 H1S d  68     -20.133  -0.136   9.722  0.00  0.00     0.135 C 
ATOM     21  C17 H1S d  68     -19.471   1.257  10.047  0.00  0.00     0.086 C 
ATOM     22  O5  H1S d  68     -23.472  -3.895   6.658  0.00  0.00    -0.350 OA
ATOM     23  C2  H1S d  68     -23.321  -2.557   7.271  0.00  0.00     0.091 C 
ATOM     24  O18 H1S d  68     -21.114  -0.662  10.718  0.00  0.00    -0.244 OA
ATOM     25  O28 H1S d  68     -22.283  -7.454   7.206  0.00  0.00    -0.296 OA
ATOM     26  N14 H1S d  68     -21.439  -5.269   8.238  0.00  0.00    -0.210 NA
ATOM     27  O31 H1S d  68     -20.370  -3.020  10.254  0.00  0.00    -0.572 OA
ATOM     28  O11 H1S d  68     -25.147  -0.864   7.865  0.00  0.00    -0.254 OA
ATOM     29  O3  H1S d  68     -21.886  -0.853   8.000  0.00  0.00    -0.348 OA
ATOM     30  C4  H1S d  68     -20.691  -3.036   7.384  0.00  0.00     0.083 C 
ATOM     31  C1  H1S d  68     -21.854  -2.018   7.119  0.00  0.00     0.095 C 
ATOM     32  O33 H1S d  68     -22.739  -2.379   9.967  0.00  0.00    -0.572 OA
ATOM     33  O30 H1S d  68     -19.843  -6.925   7.109  0.00  0.00    -0.296 OA
ATOM     34  O32 H1S d  68     -21.875  -2.539  12.187  0.00  0.00    -0.572 OA
ATOM     35  O29 H1S d  68     -20.861  -7.749   9.175  0.00  0.00    -0.296 OA
ATOM     36  H   H1S d  68     -22.786  -5.273   4.396  0.00  0.00     0.212 HD
ATOM     37  H   H1S d  68     -21.212   0.902   8.046  0.00  0.00     0.134 H 
ATOM     38  H   H1S d  68     -22.083  -3.404   5.369  0.00  0.00     0.131 H 
ATOM     39  H   H1S d  68     -24.995  -1.914   6.065  0.00  0.00     0.080 H 
ATOM     40  H   H1S d  68     -23.752  -0.673   6.347  0.00  0.00     0.080 H 
ATOM     41  H   H1S d  68     -20.254  -5.029   6.638  0.00  0.00     0.076 H 
ATOM     42  H   H1S d  68     -18.886  -3.340   6.654  0.00  0.00     0.210 HD
ATOM     43  H   H1S d  68     -18.165   2.644   8.840  0.00  0.00     0.085 H 
ATOM     44  H   H1S d  68     -18.193   2.139  11.318  0.00  0.00     0.210 HD
ATOM     45  H   H1S d  68     -19.383  -0.896   9.788  0.00  0.00     0.097 H 
ATOM     46  H   H1S d  68     -20.272   1.909  10.327  0.00  0.00     0.093 H 
ATOM     47  H   H1S d  68     -23.554  -2.726   8.302  0.00  0.00     0.090 H 
ATOM     48  H   H1S d  68     -23.065  -7.424   7.778  0.00  0.00     0.231 HD
ATOM     49  H   H1S d  68     -20.907  -4.946   9.046  0.00  0.00     0.140 HD
ATOM     50  H   H1S d  68     -20.451  -2.964   8.424  0.00  0.00     0.089 H 
ATOM     51  H   H1S d  68     -21.604  -1.790   6.104  0.00  0.00     0.091 H 
ATOM     52  H   H1S d  68     -19.980  -6.383   6.316  0.00  0.00     0.231 HD
ATOM     53  H   H1S d  68     -21.658  -7.745   9.728  0.00  0.00     0.231 HD
ENDROOT
TORSDOF 16
ENDMDL
MODEL 31
REMARK VINA RESULT:      -6.1      3.450      5.066
REMARK  0 active torsions:
REMARK  status: ('A' for Active; 'I' for Inactive)
REMARK       I    between atoms: O15_1  and  C10_4 
REMARK       I    between atoms: S20_2  and  N14_26 
REMARK       I    between atoms: S20_2  and  O28_25 
REMARK       I    between atoms: S20_2  and  O29_35 
REMARK       I    between atoms: S20_2  and  O30_33 
REMARK       I    between atoms: C7_3  and  O3_29 
REMARK       I    between atoms: C6_5  and  C2_23 
REMARK       I    between atoms: C6_5  and  O11_28 
REMARK       I    between atoms: S16_6  and  O11_28 
REMARK       I    between atoms: C19_8  and  C27_10 
REMARK       I    between atoms: C8_11  and  N14_26 
REMARK       I    between atoms: O9_14  and  C4_30 
REMARK       I    between atoms: S26_18  and  O18_24 
REMARK       I    between atoms: O25_19  and  C17_21 
REMARK       I    between atoms: C12_20  and  O18_24 
REMARK       I    between atoms: O3_29  and  C1_31 
ROOT
ATOM      1  O15 H1S d  68     -21.272   5.393   6.707  0.00  0.00    -0.369 OA
ATOM      2  S20 H1S d  68     -18.674   5.358   8.933  0.00  0.00     0.156 S 
ATOM      3  C7  H1S d  68     -22.336  -0.503   8.923  0.00  0.00     0.167 C 
ATOM      4  C10 H1S d  68     -21.141   3.975   6.938  0.00  0.00     0.147 C 
ATOM      5  C6  H1S d  68     -21.250   0.855   5.117  0.00  0.00     0.067 C 
ATOM      6  S16 H1S d  68     -20.389  -0.874   3.394  0.00  0.00     0.251 S 
ATOM      7  O13 H1S d  68     -23.397   0.193   9.661  0.00  0.00    -0.311 OA
ATOM      8  C19 H1S d  68     -24.239  -0.703  10.284  0.00  0.00     0.147 C 
ATOM      9  O34 H1S d  68     -26.570  -1.109  10.961  0.00  0.00    -0.642 OA
ATOM     10  C27 H1S d  68     -25.760  -0.334  10.398  0.00  0.00     0.233 C 
ATOM     11  C8  H1S d  68     -20.702   3.791   8.398  0.00  0.00     0.081 C 
ATOM     12  O22 H1S d  68     -19.684  -2.206   3.339  0.00  0.00    -0.572 OA
ATOM     13  O23 H1S d  68     -19.602   0.078   2.517  0.00  0.00    -0.572 OA
ATOM     14  O9  H1S d  68     -22.599   2.870   9.359  0.00  0.00    -0.391 OA
ATOM     15  O21 H1S d  68     -21.796  -1.028   2.835  0.00  0.00    -0.572 OA
ATOM     16  C24 H1S d  68     -23.707  -1.911  10.802  0.00  0.00    -0.034 C 
ATOM     17  O35 H1S d  68     -26.108   0.749   9.909  0.00  0.00    -0.642 OA
ATOM     18  S26 H1S d  68     -19.015  -0.166   9.418  0.00  0.00     0.252 S 
ATOM     19  O25 H1S d  68     -21.689  -2.696  12.002  0.00  0.00    -0.389 OA
ATOM     20  C12 H1S d  68     -21.412  -1.053  10.057  0.00  0.00     0.135 C 
ATOM     21  C17 H1S d  68     -22.184  -2.272  10.693  0.00  0.00     0.086 C 
ATOM     22  O5  H1S d  68     -20.349   3.099   6.021  0.00  0.00    -0.350 OA
ATOM     23  C2  H1S d  68     -20.679   1.688   6.319  0.00  0.00     0.091 C 
ATOM     24  O18 H1S d  68     -20.003  -1.303   9.627  0.00  0.00    -0.244 OA
ATOM     25  O28 H1S d  68     -18.469   5.998   7.583  0.00  0.00    -0.296 OA
ATOM     26  N14 H1S d  68     -19.217   3.783   8.622  0.00  0.00    -0.210 NA
ATOM     27  O31 H1S d  68     -19.356   1.041  10.274  0.00  0.00    -0.572 OA
ATOM     28  O11 H1S d  68     -20.448  -0.356   4.794  0.00  0.00    -0.254 OA
ATOM     29  O3  H1S d  68     -21.621   0.135   7.800  0.00  0.00    -0.348 OA
ATOM     30  C4  H1S d  68     -21.358   2.490   8.779  0.00  0.00     0.083 C 
ATOM     31  C1  H1S d  68     -21.656   1.573   7.543  0.00  0.00     0.095 C 
ATOM     32  O33 H1S d  68     -18.997   0.240   7.964  0.00  0.00    -0.572 OA
ATOM     33  O30 H1S d  68     -19.777   6.033   9.711  0.00  0.00    -0.296 OA
ATOM     34  O32 H1S d  68     -17.594  -0.630   9.690  0.00  0.00    -0.572 OA
ATOM     35  O29 H1S d  68     -17.397   5.470   9.718  0.00  0.00    -0.296 OA
ATOM     36  H   H1S d  68     -21.549   5.547   5.791  0.00  0.00     0.212 HD
ATOM     37  H   H1S d  68     -22.803  -1.238   8.303  0.00  0.00     0.134 H 
ATOM     38  H   H1S d  68     -22.115   3.602   6.700  0.00  0.00     0.131 H 
ATOM     39  H   H1S d  68     -21.274   1.485   4.251  0.00  0.00     0.080 H 
ATOM     40  H   H1S d  68     -22.223   0.518   5.404  0.00  0.00     0.080 H 
ATOM     41  H   H1S d  68     -20.999   4.621   9.005  0.00  0.00     0.076 H 
ATOM     42  H   H1S d  68     -22.437   3.438  10.127  0.00  0.00     0.210 HD
ATOM     43  H   H1S d  68     -24.344  -2.576  11.267  0.00  0.00     0.085 H 
ATOM     44  H   H1S d  68     -22.215  -3.446  12.319  0.00  0.00     0.210 HD
ATOM     45  H   H1S d  68     -21.240  -0.321  10.819  0.00  0.00     0.097 H 
ATOM     46  H   H1S d  68     -22.019  -3.102  10.039  0.00  0.00     0.093 H 
ATOM     47  H   H1S d  68     -19.730   1.253   6.553  0.00  0.00     0.090 H 
ATOM     48  H   H1S d  68     -17.756   5.540   7.113  0.00  0.00     0.231 HD
ATOM     49  H   H1S d  68     -18.999   3.186   9.420  0.00  0.00     0.140 HD
ATOM     50  H   H1S d  68     -20.716   1.931   9.428  0.00  0.00     0.089 H 
ATOM     51  H   H1S d  68     -22.632   1.954   7.326  0.00  0.00     0.091 H 
ATOM     52  H   H1S d  68     -20.609   5.968   9.216  0.00  0.00     0.231 HD
ATOM     53  H   H1S d  68     -16.677   5.040   9.229  0.00  0.00     0.231 HD
ENDROOT
TORSDOF 16
ENDMDL
MODEL 32
REMARK VINA RESULT:      -6.1      3.453      7.321
REMARK  0 active torsions:
REMARK  status: ('A' for Active; 'I' for Inactive)
REMARK       I    between atoms: O15_1  and  C10_4 
REMARK       I    between atoms: S20_2  and  N14_26 
REMARK       I    between atoms: S20_2  and  O28_25 
REMARK       I    between atoms: S20_2  and  O29_35 
REMARK       I    between atoms: S20_2  and  O30_33 
REMARK       I    between atoms: C7_3  and  O3_29 
REMARK       I    between atoms: C6_5  and  C2_23 
REMARK       I    between atoms: C6_5  and  O11_28 
REMARK       I    between atoms: S16_6  and  O11_28 
REMARK       I    between atoms: C19_8  and  C27_10 
REMARK       I    between atoms: C8_11  and  N14_26 
REMARK       I    between atoms: O9_14  and  C4_30 
REMARK       I    between atoms: S26_18  and  O18_24 
REMARK       I    between atoms: O25_19  and  C17_21 
REMARK       I    between atoms: C12_20  and  O18_24 
REMARK       I    between atoms: O3_29  and  C1_31 
ROOT
ATOM      1  O15 H1S d  68     -22.568   0.729  11.140  0.00  0.00    -0.369 OA
ATOM      2  S20 H1S d  68     -24.447   2.981   9.380  0.00  0.00     0.156 S 
ATOM      3  C7  H1S d  68     -18.345   1.628   6.432  0.00  0.00     0.167 C 
ATOM      4  C10 H1S d  68     -21.922   0.662   9.852  0.00  0.00     0.147 C 
ATOM      5  C6  H1S d  68     -20.485  -1.774   7.602  0.00  0.00     0.067 C 
ATOM      6  S16 H1S d  68     -20.567  -3.790   5.983  0.00  0.00     0.251 S 
ATOM      7  O13 H1S d  68     -17.699   2.459   7.455  0.00  0.00    -0.311 OA
ATOM      8  C19 H1S d  68     -16.441   2.854   7.053  0.00  0.00     0.147 C 
ATOM      9  O34 H1S d  68     -14.163   3.355   7.838  0.00  0.00    -0.642 OA
ATOM     10  C27 H1S d  68     -15.324   2.994   8.147  0.00  0.00     0.233 C 
ATOM     11  C8  H1S d  68     -21.999   2.065   9.232  0.00  0.00     0.081 C 
ATOM     12  O22 H1S d  68     -20.491  -4.100   4.509  0.00  0.00    -0.572 OA
ATOM     13  O23 H1S d  68     -21.842  -4.424   6.501  0.00  0.00    -0.572 OA
ATOM     14  O9  H1S d  68     -19.787   2.750   9.312  0.00  0.00    -0.391 OA
ATOM     15  O21 H1S d  68     -19.372  -4.415   6.688  0.00  0.00    -0.572 OA
ATOM     16  C24 H1S d  68     -16.203   3.125   5.682  0.00  0.00    -0.034 C 
ATOM     17  O35 H1S d  68     -15.650   2.730   9.312  0.00  0.00    -0.642 OA
ATOM     18  S26 H1S d  68     -21.266   2.289   4.879  0.00  0.00     0.252 S 
ATOM     19  O25 H1S d  68     -17.348   4.199   3.767  0.00  0.00    -0.389 OA
ATOM     20  C12 H1S d  68     -18.691   2.651   5.303  0.00  0.00     0.135 C 
ATOM     21  C17 H1S d  68     -17.325   2.992   4.594  0.00  0.00     0.086 C 
ATOM     22  O5  H1S d  68     -22.272  -0.392   8.851  0.00  0.00    -0.350 OA
ATOM     23  C2  H1S d  68     -21.229  -0.406   7.802  0.00  0.00     0.091 C 
ATOM     24  O18 H1S d  68     -19.818   2.224   4.420  0.00  0.00    -0.244 OA
ATOM     25  O28 H1S d  68     -25.134   1.803  10.022  0.00  0.00    -0.296 OA
ATOM     26  N14 H1S d  68     -23.223   2.331   8.404  0.00  0.00    -0.210 NA
ATOM     27  O31 H1S d  68     -21.476   3.368   5.927  0.00  0.00    -0.572 OA
ATOM     28  O11 H1S d  68     -20.590  -2.316   6.221  0.00  0.00    -0.254 OA
ATOM     29  O3  H1S d  68     -19.432   0.686   6.767  0.00  0.00    -0.348 OA
ATOM     30  C4  H1S d  68     -20.725   2.145   8.433  0.00  0.00     0.083 C 
ATOM     31  C1  H1S d  68     -20.173   0.735   8.025  0.00  0.00     0.095 C 
ATOM     32  O33 H1S d  68     -21.689   0.954   5.441  0.00  0.00    -0.572 OA
ATOM     33  O30 H1S d  68     -23.750   3.847  10.401  0.00  0.00    -0.296 OA
ATOM     34  O32 H1S d  68     -22.196   2.505   3.697  0.00  0.00    -0.572 OA
ATOM     35  O29 H1S d  68     -25.480   3.813   8.672  0.00  0.00    -0.296 OA
ATOM     36  H   H1S d  68     -22.538  -0.144  11.563  0.00  0.00     0.212 HD
ATOM     37  H   H1S d  68     -17.658   0.853   6.166  0.00  0.00     0.134 H 
ATOM     38  H   H1S d  68     -20.937   0.320  10.094  0.00  0.00     0.131 H 
ATOM     39  H   H1S d  68     -20.904  -2.489   8.279  0.00  0.00     0.080 H 
ATOM     40  H   H1S d  68     -19.446  -1.594   7.790  0.00  0.00     0.080 H 
ATOM     41  H   H1S d  68     -22.088   2.822   9.983  0.00  0.00     0.076 H 
ATOM     42  H   H1S d  68     -20.110   3.625   9.577  0.00  0.00     0.210 HD
ATOM     43  H   H1S d  68     -15.259   3.420   5.390  0.00  0.00     0.085 H 
ATOM     44  H   H1S d  68     -16.474   4.336   3.370  0.00  0.00     0.210 HD
ATOM     45  H   H1S d  68     -19.106   3.554   5.700  0.00  0.00     0.097 H 
ATOM     46  H   H1S d  68     -17.131   2.185   3.919  0.00  0.00     0.093 H 
ATOM     47  H   H1S d  68     -21.779  -0.237   6.899  0.00  0.00     0.090 H 
ATOM     48  H   H1S d  68     -25.569   1.271   9.339  0.00  0.00     0.231 HD
ATOM     49  H   H1S d  68     -22.994   2.993   7.663  0.00  0.00     0.140 HD
ATOM     50  H   H1S d  68     -20.894   2.682   7.523  0.00  0.00     0.089 H 
ATOM     51  H   H1S d  68     -19.570   0.571   8.894  0.00  0.00     0.091 H 
ATOM     52  H   H1S d  68     -23.080   3.322  10.866  0.00  0.00     0.231 HD
ATOM     53  H   H1S d  68     -25.937   3.269   8.012  0.00  0.00     0.231 HD
ENDROOT
TORSDOF 16
ENDMDL
MODEL 33
REMARK VINA RESULT:      -6.1      4.164      5.863
REMARK  0 active torsions:
REMARK  status: ('A' for Active; 'I' for Inactive)
REMARK       I    between atoms: O15_1  and  C10_4 
REMARK       I    between atoms: S20_2  and  N14_26 
REMARK       I    between atoms: S20_2  and  O28_25 
REMARK       I    between atoms: S20_2  and  O29_35 
REMARK       I    between atoms: S20_2  and  O30_33 
REMARK       I    between atoms: C7_3  and  O3_29 
REMARK       I    between atoms: C6_5  and  C2_23 
REMARK       I    between atoms: C6_5  and  O11_28 
REMARK       I    between atoms: S16_6  and  O11_28 
REMARK       I    between atoms: C19_8  and  C27_10 
REMARK       I    between atoms: C8_11  and  N14_26 
REMARK       I    between atoms: O9_14  and  C4_30 
REMARK       I    between atoms: S26_18  and  O18_24 
REMARK       I    between atoms: O25_19  and  C17_21 
REMARK       I    between atoms: C12_20  and  O18_24 
REMARK       I    between atoms: O3_29  and  C1_31 
ROOT
ATOM      1  O15 H1S d  68     -16.782   6.006   5.630  0.00  0.00    -0.369 OA
ATOM      2  S20 H1S d  68     -14.645   4.833   8.030  0.00  0.00     0.156 S 
ATOM      3  C7  H1S d  68     -20.728   1.553   7.956  0.00  0.00     0.167 C 
ATOM      4  C10 H1S d  68     -17.382   4.725   5.915  0.00  0.00     0.147 C 
ATOM      5  C6  H1S d  68     -18.944   1.959   4.192  0.00  0.00     0.067 C 
ATOM      6  S16 H1S d  68     -18.979  -0.074   2.590  0.00  0.00     0.251 S 
ATOM      7  O13 H1S d  68     -21.335   2.726   8.595  0.00  0.00    -0.311 OA
ATOM      8  C19 H1S d  68     -22.537   2.404   9.187  0.00  0.00     0.147 C 
ATOM      9  O34 H1S d  68     -24.791   3.243   9.714  0.00  0.00    -0.642 OA
ATOM     10  C27 H1S d  68     -23.679   3.482   9.184  0.00  0.00     0.233 C 
ATOM     11  C8  H1S d  68     -17.158   4.440   7.407  0.00  0.00     0.081 C 
ATOM     12  O22 H1S d  68     -19.027  -1.581   2.627  0.00  0.00    -0.572 OA
ATOM     13  O23 H1S d  68     -17.786   0.309   1.739  0.00  0.00    -0.572 OA
ATOM     14  O9  H1S d  68     -19.302   4.636   8.263  0.00  0.00    -0.391 OA
ATOM     15  O21 H1S d  68     -20.251   0.451   1.940  0.00  0.00    -0.572 OA
ATOM     16  C24 H1S d  68     -22.699   1.126   9.779  0.00  0.00    -0.034 C 
ATOM     17  O35 H1S d  68     -23.421   4.563   8.636  0.00  0.00    -0.642 OA
ATOM     18  S26 H1S d  68     -17.703   0.239   8.668  0.00  0.00     0.252 S 
ATOM     19  O25 H1S d  68     -21.392  -0.477  11.141  0.00  0.00    -0.389 OA
ATOM     20  C12 H1S d  68     -20.250   0.691   9.169  0.00  0.00     0.135 C 
ATOM     21  C17 H1S d  68     -21.553   0.055   9.788  0.00  0.00     0.086 C 
ATOM     22  O5  H1S d  68     -17.090   3.518   5.083  0.00  0.00    -0.350 OA
ATOM     23  C2  H1S d  68     -18.089   2.475   5.403  0.00  0.00     0.091 C 
ATOM     24  O18 H1S d  68     -19.133  -0.247   8.845  0.00  0.00    -0.244 OA
ATOM     25  O28 H1S d  68     -14.090   5.203   6.678  0.00  0.00    -0.296 OA
ATOM     26  N14 H1S d  68     -15.884   3.715   7.734  0.00  0.00    -0.210 NA
ATOM     27  O31 H1S d  68     -17.438   1.508   9.460  0.00  0.00    -0.572 OA
ATOM     28  O11 H1S d  68     -18.835   0.492   3.965  0.00  0.00    -0.254 OA
ATOM     29  O3  H1S d  68     -19.742   1.684   6.865  0.00  0.00    -0.348 OA
ATOM     30  C4  H1S d  68     -18.389   3.659   7.784  0.00  0.00     0.083 C 
ATOM     31  C1  H1S d  68     -19.047   2.933   6.560  0.00  0.00     0.095 C 
ATOM     32  O33 H1S d  68     -17.422   0.491   7.208  0.00  0.00    -0.572 OA
ATOM     33  O30 H1S d  68     -15.301   6.011   8.708  0.00  0.00    -0.296 OA
ATOM     34  O32 H1S d  68     -16.713  -0.848   9.054  0.00  0.00    -0.572 OA
ATOM     35  O29 H1S d  68     -13.517   4.349   8.898  0.00  0.00    -0.296 OA
ATOM     36  H   H1S d  68     -16.905   6.219   4.692  0.00  0.00     0.212 HD
ATOM     37  H   H1S d  68     -21.471   1.107   7.329  0.00  0.00     0.134 H 
ATOM     38  H   H1S d  68     -18.401   4.867   5.622  0.00  0.00     0.131 H 
ATOM     39  H   H1S d  68     -18.615   2.463   3.307  0.00  0.00     0.080 H 
ATOM     40  H   H1S d  68     -19.968   2.164   4.422  0.00  0.00     0.080 H 
ATOM     41  H   H1S d  68     -17.030   5.344   7.965  0.00  0.00     0.076 H 
ATOM     42  H   H1S d  68     -18.913   5.098   9.022  0.00  0.00     0.210 HD
ATOM     43  H   H1S d  68     -23.601   0.892  10.220  0.00  0.00     0.085 H 
ATOM     44  H   H1S d  68     -22.234  -0.848  11.445  0.00  0.00     0.210 HD
ATOM     45  H   H1S d  68     -19.772   1.289   9.916  0.00  0.00     0.097 H 
ATOM     46  H   H1S d  68     -21.792  -0.788   9.174  0.00  0.00     0.093 H 
ATOM     47  H   H1S d  68     -17.492   1.643   5.717  0.00  0.00     0.090 H 
ATOM     48  H   H1S d  68     -13.678   4.424   6.274  0.00  0.00     0.231 HD
ATOM     49  H   H1S d  68     -16.026   3.139   8.564  0.00  0.00     0.140 HD
ATOM     50  H   H1S d  68     -18.138   2.897   8.493  0.00  0.00     0.089 H 
ATOM     51  H   H1S d  68     -19.695   3.731   6.264  0.00  0.00     0.091 H 
ATOM     52  H   H1S d  68     -16.032   6.334   8.158  0.00  0.00     0.231 HD
ATOM     53  H   H1S d  68     -13.085   3.590   8.475  0.00  0.00     0.231 HD
ENDROOT
TORSDOF 16
ENDMDL
MODEL 34
REMARK VINA RESULT:      -6.0      3.448      7.003
REMARK  0 active torsions:
REMARK  status: ('A' for Active; 'I' for Inactive)
REMARK       I    between atoms: O15_1  and  C10_4 
REMARK       I    between atoms: S20_2  and  N14_26 
REMARK       I    between atoms: S20_2  and  O28_25 
REMARK       I    between atoms: S20_2  and  O29_35 
REMARK       I    between atoms: S20_2  and  O30_33 
REMARK       I    between atoms: C7_3  and  O3_29 
REMARK       I    between atoms: C6_5  and  C2_23 
REMARK       I    between atoms: C6_5  and  O11_28 
REMARK       I    between atoms: S16_6  and  O11_28 
REMARK       I    between atoms: C19_8  and  C27_10 
REMARK       I    between atoms: C8_11  and  N14_26 
REMARK       I    between atoms: O9_14  and  C4_30 
REMARK       I    between atoms: S26_18  and  O18_24 
REMARK       I    between atoms: O25_19  and  C17_21 
REMARK       I    between atoms: C12_20  and  O18_24 
REMARK       I    between atoms: O3_29  and  C1_31 
ROOT
ATOM      1  O15 H1S d  68     -20.021  -3.622   7.058  0.00  0.00    -0.369 OA
ATOM      2  S20 H1S d  68     -21.778  -3.034   9.933  0.00  0.00     0.156 S 
ATOM      3  C7  H1S d  68     -18.745   2.629   7.384  0.00  0.00     0.167 C 
ATOM      4  C10 H1S d  68     -20.175  -2.189   6.984  0.00  0.00     0.147 C 
ATOM      5  C6  H1S d  68     -20.875   0.396   4.558  0.00  0.00     0.067 C 
ATOM      6  S16 H1S d  68     -22.359   1.662   2.857  0.00  0.00     0.251 S 
ATOM      7  O13 H1S d  68     -17.457   2.126   7.877  0.00  0.00    -0.311 OA
ATOM      8  C19 H1S d  68     -16.529   3.140   7.970  0.00  0.00     0.147 C 
ATOM      9  O34 H1S d  68     -14.139   3.685   7.741  0.00  0.00    -0.642 OA
ATOM     10  C27 H1S d  68     -15.026   2.801   7.666  0.00  0.00     0.233 C 
ATOM     11  C8  H1S d  68     -20.142  -1.655   8.423  0.00  0.00     0.081 C 
ATOM     12  O22 H1S d  68     -23.141   2.945   2.728  0.00  0.00    -0.572 OA
ATOM     13  O23 H1S d  68     -23.312   0.530   2.527  0.00  0.00    -0.572 OA
ATOM     14  O9  H1S d  68     -18.112  -0.540   8.477  0.00  0.00    -0.391 OA
ATOM     15  O21 H1S d  68     -21.217   1.668   1.853  0.00  0.00    -0.572 OA
ATOM     16  C24 H1S d  68     -16.956   4.441   8.338  0.00  0.00    -0.034 C 
ATOM     17  O35 H1S d  68     -14.773   1.629   7.354  0.00  0.00    -0.642 OA
ATOM     18  S26 H1S d  68     -21.705   2.441   8.992  0.00  0.00     0.252 S 
ATOM     19  O25 H1S d  68     -18.544   5.506   9.911  0.00  0.00    -0.389 OA
ATOM     20  C12 H1S d  68     -19.300   3.442   8.597  0.00  0.00     0.135 C 
ATOM     21  C17 H1S d  68     -18.458   4.774   8.648  0.00  0.00     0.086 C 
ATOM     22  O5  H1S d  68     -21.278  -1.557   6.197  0.00  0.00    -0.350 OA
ATOM     23  C2  H1S d  68     -20.974  -0.118   6.038  0.00  0.00     0.091 C 
ATOM     24  O18 H1S d  68     -20.787   3.589   8.601  0.00  0.00    -0.244 OA
ATOM     25  O28 H1S d  68     -22.351  -3.980   8.910  0.00  0.00    -0.296 OA
ATOM     26  N14 H1S d  68     -21.477  -1.584   9.108  0.00  0.00    -0.210 NA
ATOM     27  O31 H1S d  68     -21.024   1.475   9.946  0.00  0.00    -0.572 OA
ATOM     28  O11 H1S d  68     -21.824   1.497   4.242  0.00  0.00    -0.254 OA
ATOM     29  O3  H1S d  68     -19.729   1.742   6.733  0.00  0.00    -0.348 OA
ATOM     30  C4  H1S d  68     -19.497  -0.304   8.260  0.00  0.00     0.083 C 
ATOM     31  C1  H1S d  68     -19.672   0.284   6.817  0.00  0.00     0.095 C 
ATOM     32  O33 H1S d  68     -22.152   1.695   7.758  0.00  0.00    -0.572 OA
ATOM     33  O30 H1S d  68     -20.439  -3.507  10.446  0.00  0.00    -0.296 OA
ATOM     34  O32 H1S d  68     -22.997   2.966   9.595  0.00  0.00    -0.572 OA
ATOM     35  O29 H1S d  68     -22.730  -2.945  11.093  0.00  0.00    -0.296 OA
ATOM     36  H   H1S d  68     -20.037  -3.995   6.163  0.00  0.00     0.212 HD
ATOM     37  H   H1S d  68     -18.552   3.189   6.494  0.00  0.00     0.134 H 
ATOM     38  H   H1S d  68     -19.356  -1.891   6.364  0.00  0.00     0.131 H 
ATOM     39  H   H1S d  68     -21.079  -0.425   3.901  0.00  0.00     0.080 H 
ATOM     40  H   H1S d  68     -19.888   0.787   4.428  0.00  0.00     0.080 H 
ATOM     41  H   H1S d  68     -19.610  -2.315   9.076  0.00  0.00     0.076 H 
ATOM     42  H   H1S d  68     -17.981  -0.905   9.366  0.00  0.00     0.210 HD
ATOM     43  H   H1S d  68     -16.256   5.195   8.405  0.00  0.00     0.085 H 
ATOM     44  H   H1S d  68     -18.000   6.307   9.859  0.00  0.00     0.210 HD
ATOM     45  H   H1S d  68     -19.169   2.918   9.520  0.00  0.00     0.097 H 
ATOM     46  H   H1S d  68     -18.881   5.422   7.910  0.00  0.00     0.093 H 
ATOM     47  H   H1S d  68     -21.830   0.367   6.460  0.00  0.00     0.090 H 
ATOM     48  H   H1S d  68     -23.208  -3.645   8.604  0.00  0.00     0.231 HD
ATOM     49  H   H1S d  68     -21.475  -0.810   9.773  0.00  0.00     0.140 HD
ATOM     50  H   H1S d  68     -19.940   0.399   8.934  0.00  0.00     0.089 H 
ATOM     51  H   H1S d  68     -18.789  -0.144   6.390  0.00  0.00     0.091 H 
ATOM     52  H   H1S d  68     -19.814  -3.569   9.707  0.00  0.00     0.231 HD
ATOM     53  H   H1S d  68     -23.596  -2.641  10.779  0.00  0.00     0.231 HD
ENDROOT
TORSDOF 16
ENDMDL
MODEL 35
REMARK VINA RESULT:      -6.0      2.401      2.898
REMARK  0 active torsions:
REMARK  status: ('A' for Active; 'I' for Inactive)
REMARK       I    between atoms: O15_1  and  C10_4 
REMARK       I    between atoms: S20_2  and  N14_26 
REMARK       I    between atoms: S20_2  and  O28_25 
REMARK       I    between atoms: S20_2  and  O29_35 
REMARK       I    between atoms: S20_2  and  O30_33 
REMARK       I    between atoms: C7_3  and  O3_29 
REMARK       I    between atoms: C6_5  and  C2_23 
REMARK       I    between atoms: C6_5  and  O11_28 
REMARK       I    between atoms: S16_6  and  O11_28 
REMARK       I    between atoms: C19_8  and  C27_10 
REMARK       I    between atoms: C8_11  and  N14_26 
REMARK       I    between atoms: O9_14  and  C4_30 
REMARK       I    between atoms: S26_18  and  O18_24 
REMARK       I    between atoms: O25_19  and  C17_21 
REMARK       I    between atoms: C12_20  and  O18_24 
REMARK       I    between atoms: O3_29  and  C1_31 
ROOT
ATOM      1  O15 H1S d  68     -17.097   1.778   6.297  0.00  0.00    -0.369 OA
ATOM      2  S20 H1S d  68     -16.022  -0.042   8.987  0.00  0.00     0.156 S 
ATOM      3  C7  H1S d  68     -22.859  -0.364   8.032  0.00  0.00     0.167 C 
ATOM      4  C10 H1S d  68     -18.228   0.905   6.494  0.00  0.00     0.147 C 
ATOM      5  C6  H1S d  68     -20.603  -1.021   4.568  0.00  0.00     0.067 C 
ATOM      6  S16 H1S d  68     -21.316  -2.939   2.984  0.00  0.00     0.251 S 
ATOM      7  O13 H1S d  68     -22.970   0.996   8.572  0.00  0.00    -0.311 OA
ATOM      8  C19 H1S d  68     -24.257   1.265   8.983  0.00  0.00     0.147 C 
ATOM      9  O34 H1S d  68     -25.963   3.030   9.172  0.00  0.00    -0.642 OA
ATOM     10  C27 H1S d  68     -24.800   2.728   8.809  0.00  0.00     0.233 C 
ATOM     11  C8  H1S d  68     -18.348   0.651   8.004  0.00  0.00     0.081 C 
ATOM     12  O22 H1S d  68     -22.022  -4.271   3.017  0.00  0.00    -0.572 OA
ATOM     13  O23 H1S d  68     -19.975  -3.168   2.315  0.00  0.00    -0.572 OA
ATOM     14  O9  H1S d  68     -20.281   1.812   8.536  0.00  0.00    -0.391 OA
ATOM     15  O21 H1S d  68     -22.132  -1.960   2.153  0.00  0.00    -0.572 OA
ATOM     16  C24 H1S d  68     -25.037   0.225   9.548  0.00  0.00    -0.034 C 
ATOM     17  O35 H1S d  68     -24.027   3.552   8.303  0.00  0.00    -0.642 OA
ATOM     18  S26 H1S d  68     -20.837  -2.807   9.182  0.00  0.00     0.252 S 
ATOM     19  O25 H1S d  68     -24.754  -1.691  11.090  0.00  0.00    -0.389 OA
ATOM     20  C12 H1S d  68     -22.970  -1.265   9.303  0.00  0.00     0.135 C 
ATOM     21  C17 H1S d  68     -24.488  -1.233   9.727  0.00  0.00     0.086 C 
ATOM     22  O5  H1S d  68     -18.388  -0.362   5.717  0.00  0.00    -0.350 OA
ATOM     23  C2  H1S d  68     -19.775  -0.846   5.890  0.00  0.00     0.091 C 
ATOM     24  O18 H1S d  68     -22.345  -2.614   9.149  0.00  0.00    -0.244 OA
ATOM     25  O28 H1S d  68     -15.190  -0.039   7.730  0.00  0.00    -0.296 OA
ATOM     26  N14 H1S d  68     -17.575  -0.531   8.515  0.00  0.00    -0.210 NA
ATOM     27  O31 H1S d  68     -20.149  -1.729  10.001  0.00  0.00    -0.572 OA
ATOM     28  O11 H1S d  68     -21.119  -2.401   4.363  0.00  0.00    -0.254 OA
ATOM     29  O3  H1S d  68     -21.782  -0.745   7.096  0.00  0.00    -0.348 OA
ATOM     30  C4  H1S d  68     -19.834   0.505   8.198  0.00  0.00     0.083 C 
ATOM     31  C1  H1S d  68     -20.578   0.057   6.893  0.00  0.00     0.095 C 
ATOM     32  O33 H1S d  68     -20.285  -2.799   7.778  0.00  0.00    -0.572 OA
ATOM     33  O30 H1S d  68     -16.178   1.346   9.559  0.00  0.00    -0.296 OA
ATOM     34  O32 H1S d  68     -20.482  -4.187   9.711  0.00  0.00    -0.572 OA
ATOM     35  O29 H1S d  68     -15.343  -0.908  10.012  0.00  0.00    -0.296 OA
ATOM     36  H   H1S d  68     -16.990   1.961   5.350  0.00  0.00     0.212 HD
ATOM     37  H   H1S d  68     -23.634  -0.485   7.304  0.00  0.00     0.134 H 
ATOM     38  H   H1S d  68     -19.035   1.454   6.055  0.00  0.00     0.131 H 
ATOM     39  H   H1S d  68     -19.975  -0.769   3.740  0.00  0.00     0.080 H 
ATOM     40  H   H1S d  68     -21.455  -0.378   4.646  0.00  0.00     0.080 H 
ATOM     41  H   H1S d  68     -17.911   1.445   8.572  0.00  0.00     0.076 H 
ATOM     42  H   H1S d  68     -19.832   2.108   9.343  0.00  0.00     0.210 HD
ATOM     43  H   H1S d  68     -26.001   0.435   9.853  0.00  0.00     0.085 H 
ATOM     44  H   H1S d  68     -25.706  -1.640  11.269  0.00  0.00     0.210 HD
ATOM     45  H   H1S d  68     -22.380  -0.885  10.111  0.00  0.00     0.097 H 
ATOM     46  H   H1S d  68     -24.990  -1.928   9.087  0.00  0.00     0.093 H 
ATOM     47  H   H1S d  68     -19.649  -1.831   6.290  0.00  0.00     0.090 H 
ATOM     48  H   H1S d  68     -15.112  -0.945   7.392  0.00  0.00     0.231 HD
ATOM     49  H   H1S d  68     -18.062  -0.933   9.317  0.00  0.00     0.140 HD
ATOM     50  H   H1S d  68     -20.037  -0.240   8.938  0.00  0.00     0.089 H 
ATOM     51  H   H1S d  68     -20.766   1.035   6.503  0.00  0.00     0.091 H 
ATOM     52  H   H1S d  68     -16.616   1.916   8.907  0.00  0.00     0.231 HD
ATOM     53  H   H1S d  68     -15.236  -1.805   9.658  0.00  0.00     0.231 HD
ENDROOT
TORSDOF 16
ENDMDL
MODEL 36
REMARK VINA RESULT:      -6.0      3.884      8.059
REMARK  0 active torsions:
REMARK  status: ('A' for Active; 'I' for Inactive)
REMARK       I    between atoms: O15_1  and  C10_4 
REMARK       I    between atoms: S20_2  and  N14_26 
REMARK       I    between atoms: S20_2  and  O28_25 
REMARK       I    between atoms: S20_2  and  O29_35 
REMARK       I    between atoms: S20_2  and  O30_33 
REMARK       I    between atoms: C7_3  and  O3_29 
REMARK       I    between atoms: C6_5  and  C2_23 
REMARK       I    between atoms: C6_5  and  O11_28 
REMARK       I    between atoms: S16_6  and  O11_28 
REMARK       I    between atoms: C19_8  and  C27_10 
REMARK       I    between atoms: C8_11  and  N14_26 
REMARK       I    between atoms: O9_14  and  C4_30 
REMARK       I    between atoms: S26_18  and  O18_24 
REMARK       I    between atoms: O25_19  and  C17_21 
REMARK       I    between atoms: C12_20  and  O18_24 
REMARK       I    between atoms: O3_29  and  C1_31 
ROOT
ATOM      1  O15 H1S d  68     -21.654  -0.111   2.413  0.00  0.00    -0.369 OA
ATOM      2  S20 H1S d  68     -21.091  -3.036   4.094  0.00  0.00     0.156 S 
ATOM      3  C7  H1S d  68     -17.619   2.330   6.721  0.00  0.00     0.167 C 
ATOM      4  C10 H1S d  68     -21.122   0.396   3.654  0.00  0.00     0.147 C 
ATOM      5  C6  H1S d  68     -21.672   3.085   6.004  0.00  0.00     0.067 C 
ATOM      6  S16 H1S d  68     -23.016   4.382   7.797  0.00  0.00     0.251 S 
ATOM      7  O13 H1S d  68     -16.690   2.247   5.588  0.00  0.00    -0.311 OA
ATOM      8  C19 H1S d  68     -15.507   2.897   5.865  0.00  0.00     0.147 C 
ATOM      9  O34 H1S d  68     -13.688   4.234   4.884  0.00  0.00    -0.642 OA
ATOM     10  C27 H1S d  68     -14.771   3.631   4.689  0.00  0.00     0.233 C 
ATOM     11  C8  H1S d  68     -20.084  -0.620   4.152  0.00  0.00     0.081 C 
ATOM     12  O22 H1S d  68     -23.026   4.635   9.283  0.00  0.00    -0.572 OA
ATOM     13  O23 H1S d  68     -24.397   3.883   7.425  0.00  0.00    -0.572 OA
ATOM     14  O9  H1S d  68     -18.098   0.536   3.860  0.00  0.00    -0.391 OA
ATOM     15  O21 H1S d  68     -22.740   5.689   7.069  0.00  0.00    -0.572 OA
ATOM     16  C24 H1S d  68     -14.997   2.875   7.188  0.00  0.00    -0.034 C 
ATOM     17  O35 H1S d  68     -15.313   3.582   3.576  0.00  0.00    -0.642 OA
ATOM     18  S26 H1S d  68     -18.941  -0.275   8.408  0.00  0.00     0.252 S 
ATOM     19  O25 H1S d  68     -14.777   1.287   9.075  0.00  0.00    -0.389 OA
ATOM     20  C12 H1S d  68     -16.983   1.370   7.777  0.00  0.00     0.135 C 
ATOM     21  C17 H1S d  68     -15.731   2.133   8.358  0.00  0.00     0.086 C 
ATOM     22  O5  H1S d  68     -22.015   0.847   4.765  0.00  0.00    -0.350 OA
ATOM     23  C2  H1S d  68     -21.203   1.611   5.738  0.00  0.00     0.091 C 
ATOM     24  O18 H1S d  68     -17.958   0.827   8.770  0.00  0.00    -0.244 OA
ATOM     25  O28 H1S d  68     -22.485  -2.733   3.606  0.00  0.00    -0.296 OA
ATOM     26  N14 H1S d  68     -20.628  -1.706   5.036  0.00  0.00    -0.210 NA
ATOM     27  O31 H1S d  68     -18.415  -1.154   7.287  0.00  0.00    -0.572 OA
ATOM     28  O11 H1S d  68     -21.985   3.365   7.432  0.00  0.00    -0.254 OA
ATOM     29  O3  H1S d  68     -19.077   2.176   6.546  0.00  0.00    -0.348 OA
ATOM     30  C4  H1S d  68     -19.076   0.252   4.852  0.00  0.00     0.083 C 
ATOM     31  C1  H1S d  68     -19.683   1.612   5.342  0.00  0.00     0.095 C 
ATOM     32  O33 H1S d  68     -20.262   0.328   7.996  0.00  0.00    -0.572 OA
ATOM     33  O30 H1S d  68     -20.102  -3.105   2.955  0.00  0.00    -0.296 OA
ATOM     34  O32 H1S d  68     -19.283  -1.115   9.628  0.00  0.00    -0.572 OA
ATOM     35  O29 H1S d  68     -21.106  -4.366   4.796  0.00  0.00    -0.296 OA
ATOM     36  H   H1S d  68     -22.316   0.508   2.067  0.00  0.00     0.212 HD
ATOM     37  H   H1S d  68     -17.688   3.359   7.006  0.00  0.00     0.134 H 
ATOM     38  H   H1S d  68     -20.732   1.352   3.376  0.00  0.00     0.131 H 
ATOM     39  H   H1S d  68     -22.552   3.270   5.424  0.00  0.00     0.080 H 
ATOM     40  H   H1S d  68     -20.860   3.726   5.731  0.00  0.00     0.080 H 
ATOM     41  H   H1S d  68     -19.678  -1.194   3.346  0.00  0.00     0.076 H 
ATOM     42  H   H1S d  68     -17.709  -0.293   3.542  0.00  0.00     0.210 HD
ATOM     43  H   H1S d  68     -14.110   3.364   7.387  0.00  0.00     0.085 H 
ATOM     44  H   H1S d  68     -14.042   1.831   9.398  0.00  0.00     0.210 HD
ATOM     45  H   H1S d  68     -16.651   0.455   7.332  0.00  0.00     0.097 H 
ATOM     46  H   H1S d  68     -16.112   2.818   9.086  0.00  0.00     0.093 H 
ATOM     47  H   H1S d  68     -21.352   1.085   6.658  0.00  0.00     0.090 H 
ATOM     48  H   H1S d  68     -23.090  -2.697   4.363  0.00  0.00     0.231 HD
ATOM     49  H   H1S d  68     -19.908  -1.995   5.699  0.00  0.00     0.140 HD
ATOM     50  H   H1S d  68     -18.698  -0.246   5.720  0.00  0.00     0.089 H 
ATOM     51  H   H1S d  68     -19.491   2.174   4.453  0.00  0.00     0.091 H 
ATOM     52  H   H1S d  68     -20.082  -2.253   2.493  0.00  0.00     0.231 HD
ATOM     53  H   H1S d  68     -21.737  -4.337   5.531  0.00  0.00     0.231 HD
ENDROOT
TORSDOF 16
ENDMDL
MODEL 37
REMARK VINA RESULT:      -6.0      4.043      6.322
REMARK  0 active torsions:
REMARK  status: ('A' for Active; 'I' for Inactive)
REMARK       I    between atoms: O15_1  and  C10_4 
REMARK       I    between atoms: S20_2  and  N14_26 
REMARK       I    between atoms: S20_2  and  O28_25 
REMARK       I    between atoms: S20_2  and  O29_35 
REMARK       I    between atoms: S20_2  and  O30_33 
REMARK       I    between atoms: C7_3  and  O3_29 
REMARK       I    between atoms: C6_5  and  C2_23 
REMARK       I    between atoms: C6_5  and  O11_28 
REMARK       I    between atoms: S16_6  and  O11_28 
REMARK       I    between atoms: C19_8  and  C27_10 
REMARK       I    between atoms: C8_11  and  N14_26 
REMARK       I    between atoms: O9_14  and  C4_30 
REMARK       I    between atoms: S26_18  and  O18_24 
REMARK       I    between atoms: O25_19  and  C17_21 
REMARK       I    between atoms: C12_20  and  O18_24 
REMARK       I    between atoms: O3_29  and  C1_31 
ROOT
ATOM      1  O15 H1S d  68     -25.388  -1.127   7.879  0.00  0.00    -0.369 OA
ATOM      2  S20 H1S d  68     -22.940   0.444   9.679  0.00  0.00     0.156 S 
ATOM      3  C7  H1S d  68     -23.616  -6.249  11.261  0.00  0.00     0.167 C 
ATOM      4  C10 H1S d  68     -24.631  -2.264   8.343  0.00  0.00     0.147 C 
ATOM      5  C6  H1S d  68     -23.432  -5.459   7.155  0.00  0.00     0.067 C 
ATOM      6  S16 H1S d  68     -21.978  -7.003   5.671  0.00  0.00     0.251 S 
ATOM      7  O13 H1S d  68     -24.838  -5.921  12.003  0.00  0.00    -0.311 OA
ATOM      8  C19 H1S d  68     -25.164  -6.921  12.893  0.00  0.00     0.147 C 
ATOM      9  O34 H1S d  68     -27.037  -8.110  13.959  0.00  0.00    -0.642 OA
ATOM     10  C27 H1S d  68     -26.684  -7.215  13.155  0.00  0.00     0.233 C 
ATOM     11  C8  H1S d  68     -24.086  -1.909   9.735  0.00  0.00     0.081 C 
ATOM     12  O22 H1S d  68     -20.758  -7.886   5.759  0.00  0.00    -0.572 OA
ATOM     13  O23 H1S d  68     -21.739  -6.033   4.531  0.00  0.00    -0.572 OA
ATOM     14  O9  H1S d  68     -25.327  -3.303  11.108  0.00  0.00    -0.391 OA
ATOM     15  O21 H1S d  68     -23.195  -7.860   5.357  0.00  0.00    -0.572 OA
ATOM     16  C24 H1S d  68     -24.127  -7.639  13.541  0.00  0.00    -0.034 C 
ATOM     17  O35 H1S d  68     -27.500  -6.523  12.531  0.00  0.00    -0.642 OA
ATOM     18  S26 H1S d  68     -20.771  -4.437  11.205  0.00  0.00     0.252 S 
ATOM     19  O25 H1S d  68     -21.914  -7.203  14.562  0.00  0.00    -0.389 OA
ATOM     20  C12 H1S d  68     -22.490  -6.084  12.332  0.00  0.00     0.135 C 
ATOM     21  C17 H1S d  68     -22.610  -7.336  13.282  0.00  0.00     0.086 C 
ATOM     22  O5  H1S d  68     -23.578  -2.905   7.497  0.00  0.00    -0.350 OA
ATOM     23  C2  H1S d  68     -23.233  -4.215   8.091  0.00  0.00     0.091 C 
ATOM     24  O18 H1S d  68     -21.140  -5.805  11.757  0.00  0.00    -0.244 OA
ATOM     25  O28 H1S d  68     -23.107   0.787   8.221  0.00  0.00    -0.296 OA
ATOM     26  N14 H1S d  68     -22.742  -1.238   9.742  0.00  0.00    -0.210 NA
ATOM     27  O31 H1S d  68     -21.570  -3.328  11.868  0.00  0.00    -0.572 OA
ATOM     28  O11 H1S d  68     -22.193  -6.256   6.947  0.00  0.00    -0.254 OA
ATOM     29  O3  H1S d  68     -23.314  -5.641   9.950  0.00  0.00    -0.348 OA
ATOM     30  C4  H1S d  68     -24.076  -3.242  10.436  0.00  0.00     0.083 C 
ATOM     31  C1  H1S d  68     -23.996  -4.452   9.443  0.00  0.00     0.095 C 
ATOM     32  O33 H1S d  68     -21.005  -4.402   9.715  0.00  0.00    -0.572 OA
ATOM     33  O30 H1S d  68     -24.189   0.747  10.471  0.00  0.00    -0.296 OA
ATOM     34  O32 H1S d  68     -19.280  -4.181  11.352  0.00  0.00    -0.572 OA
ATOM     35  O29 H1S d  68     -21.809   1.261  10.240  0.00  0.00    -0.296 OA
ATOM     36  H   H1S d  68     -25.749  -1.317   6.999  0.00  0.00     0.212 HD
ATOM     37  H   H1S d  68     -23.738  -7.232  10.858  0.00  0.00     0.134 H 
ATOM     38  H   H1S d  68     -25.348  -3.057   8.319  0.00  0.00     0.131 H 
ATOM     39  H   H1S d  68     -23.775  -5.114   6.202  0.00  0.00     0.080 H 
ATOM     40  H   H1S d  68     -24.139  -6.102   7.636  0.00  0.00     0.080 H 
ATOM     41  H   H1S d  68     -24.690  -1.169  10.216  0.00  0.00     0.076 H 
ATOM     42  H   H1S d  68     -25.397  -2.561  11.729  0.00  0.00     0.210 HD
ATOM     43  H   H1S d  68     -24.379  -8.387  14.205  0.00  0.00     0.085 H 
ATOM     44  H   H1S d  68     -22.037  -8.012  15.083  0.00  0.00     0.210 HD
ATOM     45  H   H1S d  68     -22.625  -5.197  12.915  0.00  0.00     0.097 H 
ATOM     46  H   H1S d  68     -22.125  -8.143  12.774  0.00  0.00     0.093 H 
ATOM     47  H   H1S d  68     -22.179  -4.143   8.262  0.00  0.00     0.090 H 
ATOM     48  H   H1S d  68     -22.287   0.580   7.745  0.00  0.00     0.231 HD
ATOM     49  H   H1S d  68     -22.243  -1.489  10.595  0.00  0.00     0.140 HD
ATOM     50  H   H1S d  68     -23.222  -3.314  11.077  0.00  0.00     0.089 H 
ATOM     51  H   H1S d  68     -25.049  -4.580   9.302  0.00  0.00     0.091 H 
ATOM     52  H   H1S d  68     -24.929   0.226  10.120  0.00  0.00     0.231 HD
ATOM     53  H   H1S d  68     -20.998   1.077   9.740  0.00  0.00     0.231 HD
ENDROOT
TORSDOF 16
ENDMDL
MODEL 38
REMARK VINA RESULT:      -6.0      2.687      6.629
REMARK  0 active torsions:
REMARK  status: ('A' for Active; 'I' for Inactive)
REMARK       I    between atoms: O15_1  and  C10_4 
REMARK       I    between atoms: S20_2  and  N14_26 
REMARK       I    between atoms: S20_2  and  O28_25 
REMARK       I    between atoms: S20_2  and  O29_35 
REMARK       I    between atoms: S20_2  and  O30_33 
REMARK       I    between atoms: C7_3  and  O3_29 
REMARK       I    between atoms: C6_5  and  C2_23 
REMARK       I    between atoms: C6_5  and  O11_28 
REMARK       I    between atoms: S16_6  and  O11_28 
REMARK       I    between atoms: C19_8  and  C27_10 
REMARK       I    between atoms: C8_11  and  N14_26 
REMARK       I    between atoms: O9_14  and  C4_30 
REMARK       I    between atoms: S26_18  and  O18_24 
REMARK       I    between atoms: O25_19  and  C17_21 
REMARK       I    between atoms: C12_20  and  O18_24 
REMARK       I    between atoms: O3_29  and  C1_31 
ROOT
ATOM      1  O15 H1S d  68     -24.351  -5.571  10.581  0.00  0.00    -0.369 OA
ATOM      2  S20 H1S d  68     -21.476  -5.226  12.402  0.00  0.00     0.156 S 
ATOM      3  C7  H1S d  68     -21.628  -1.235   6.762  0.00  0.00     0.167 C 
ATOM      4  C10 H1S d  68     -23.865  -4.312  10.070  0.00  0.00     0.147 C 
ATOM      5  C6  H1S d  68     -25.102  -1.062   9.088  0.00  0.00     0.067 C 
ATOM      6  S16 H1S d  68     -26.183   1.251   9.512  0.00  0.00     0.251 S 
ATOM      7  O13 H1S d  68     -21.365  -2.427   5.946  0.00  0.00    -0.311 OA
ATOM      8  C19 H1S d  68     -20.886  -2.083   4.701  0.00  0.00     0.147 C 
ATOM      9  O34 H1S d  68     -20.881  -2.712   2.321  0.00  0.00    -0.642 OA
ATOM     10  C27 H1S d  68     -21.294  -2.976   3.476  0.00  0.00     0.233 C 
ATOM     11  C8  H1S d  68     -22.331  -4.383  10.075  0.00  0.00     0.081 C 
ATOM     12  O22 H1S d  68     -25.807   2.708   9.606  0.00  0.00    -0.572 OA
ATOM     13  O23 H1S d  68     -26.927   0.904  10.786  0.00  0.00    -0.572 OA
ATOM     14  O9  H1S d  68     -21.845  -4.473   7.811  0.00  0.00    -0.391 OA
ATOM     15  O21 H1S d  68     -27.104   1.048   8.319  0.00  0.00    -0.572 OA
ATOM     16  C24 H1S d  68     -20.043  -0.950   4.571  0.00  0.00    -0.034 C 
ATOM     17  O35 H1S d  68     -22.035  -3.940   3.713  0.00  0.00    -0.642 OA
ATOM     18  S26 H1S d  68     -20.224  -0.511   9.743  0.00  0.00     0.252 S 
ATOM     19  O25 H1S d  68     -18.183   0.141   5.788  0.00  0.00    -0.389 OA
ATOM     20  C12 H1S d  68     -20.195  -0.721   7.117  0.00  0.00     0.135 C 
ATOM     21  C17 H1S d  68     -19.631  -0.065   5.799  0.00  0.00     0.086 C 
ATOM     22  O5  H1S d  68     -24.348  -3.005  10.611  0.00  0.00    -0.350 OA
ATOM     23  C2  H1S d  68     -23.937  -1.932   9.679  0.00  0.00     0.091 C 
ATOM     24  O18 H1S d  68     -20.138   0.110   8.357  0.00  0.00    -0.244 OA
ATOM     25  O28 H1S d  68     -22.787  -5.370  13.131  0.00  0.00    -0.296 OA
ATOM     26  N14 H1S d  68     -21.674  -3.917  11.343  0.00  0.00    -0.210 NA
ATOM     27  O31 H1S d  68     -19.717  -1.943   9.751  0.00  0.00    -0.572 OA
ATOM     28  O11 H1S d  68     -24.969   0.391   9.374  0.00  0.00    -0.254 OA
ATOM     29  O3  H1S d  68     -22.574  -1.260   7.895  0.00  0.00    -0.348 OA
ATOM     30  C4  H1S d  68     -21.957  -3.544   8.881  0.00  0.00     0.083 C 
ATOM     31  C1  H1S d  68     -23.060  -2.496   8.505  0.00  0.00     0.095 C 
ATOM     32  O33 H1S d  68     -21.651  -0.482  10.233  0.00  0.00    -0.572 OA
ATOM     33  O30 H1S d  68     -21.184  -6.425  11.533  0.00  0.00    -0.296 OA
ATOM     34  O32 H1S d  68     -19.466   0.329  10.758  0.00  0.00    -0.572 OA
ATOM     35  O29 H1S d  68     -20.373  -5.090  13.415  0.00  0.00    -0.296 OA
ATOM     36  H   H1S d  68     -25.321  -5.562  10.593  0.00  0.00     0.212 HD
ATOM     37  H   H1S d  68     -22.231  -0.572   6.178  0.00  0.00     0.134 H 
ATOM     38  H   H1S d  68     -24.319  -4.254   9.104  0.00  0.00     0.131 H 
ATOM     39  H   H1S d  68     -26.026  -1.406   9.506  0.00  0.00     0.080 H 
ATOM     40  H   H1S d  68     -25.069  -1.176   8.024  0.00  0.00     0.080 H 
ATOM     41  H   H1S d  68     -21.984  -5.394  10.021  0.00  0.00     0.076 H 
ATOM     42  H   H1S d  68     -21.167  -5.132   8.024  0.00  0.00     0.210 HD
ATOM     43  H   H1S d  68     -19.688  -0.698   3.635  0.00  0.00     0.085 H 
ATOM     44  H   H1S d  68     -17.920   0.546   4.947  0.00  0.00     0.210 HD
ATOM     45  H   H1S d  68     -19.548  -1.522   7.406  0.00  0.00     0.097 H 
ATOM     46  H   H1S d  68     -20.062   0.913   5.746  0.00  0.00     0.093 H 
ATOM     47  H   H1S d  68     -23.362  -1.272  10.295  0.00  0.00     0.090 H 
ATOM     48  H   H1S d  68     -22.941  -4.584  13.678  0.00  0.00     0.231 HD
ATOM     49  H   H1S d  68     -20.762  -3.517  11.124  0.00  0.00     0.140 HD
ATOM     50  H   H1S d  68     -21.064  -2.991   9.086  0.00  0.00     0.089 H 
ATOM     51  H   H1S d  68     -23.618  -3.120   7.839  0.00  0.00     0.091 H 
ATOM     52  H   H1S d  68     -21.888  -6.525  10.873  0.00  0.00     0.231 HD
ATOM     53  H   H1S d  68     -20.547  -4.322  13.982  0.00  0.00     0.231 HD
ENDROOT
TORSDOF 16
ENDMDL
MODEL 39
REMARK VINA RESULT:      -5.9      3.017      6.673
REMARK  0 active torsions:
REMARK  status: ('A' for Active; 'I' for Inactive)
REMARK       I    between atoms: O15_1  and  C10_4 
REMARK       I    between atoms: S20_2  and  N14_26 
REMARK       I    between atoms: S20_2  and  O28_25 
REMARK       I    between atoms: S20_2  and  O29_35 
REMARK       I    between atoms: S20_2  and  O30_33 
REMARK       I    between atoms: C7_3  and  O3_29 
REMARK       I    between atoms: C6_5  and  C2_23 
REMARK       I    between atoms: C6_5  and  O11_28 
REMARK       I    between atoms: S16_6  and  O11_28 
REMARK       I    between atoms: C19_8  and  C27_10 
REMARK       I    between atoms: C8_11  and  N14_26 
REMARK       I    between atoms: O9_14  and  C4_30 
REMARK       I    between atoms: S26_18  and  O18_24 
REMARK       I    between atoms: O25_19  and  C17_21 
REMARK       I    between atoms: C12_20  and  O18_24 
REMARK       I    between atoms: O3_29  and  C1_31 
ROOT
ATOM      1  O15 H1S d  68     -20.628  -2.589  10.369  0.00  0.00    -0.369 OA
ATOM      2  S20 H1S d  68     -21.802  -3.991   7.479  0.00  0.00     0.156 S 
ATOM      3  C7  H1S d  68     -21.402   2.902   7.199  0.00  0.00     0.167 C 
ATOM      4  C10 H1S d  68     -20.415  -1.503   9.444  0.00  0.00     0.147 C 
ATOM      5  C6  H1S d  68     -17.960   1.036   8.677  0.00  0.00     0.067 C 
ATOM      6  S16 H1S d  68     -15.655   1.885   7.861  0.00  0.00     0.251 S 
ATOM      7  O13 H1S d  68     -22.600   2.977   8.043  0.00  0.00    -0.311 OA
ATOM      8  C19 H1S d  68     -23.197   4.216   7.951  0.00  0.00     0.147 C 
ATOM      9  O34 H1S d  68     -24.454   5.922   9.202  0.00  0.00    -0.642 OA
ATOM     10  C27 H1S d  68     -23.890   4.802   9.232  0.00  0.00     0.233 C 
ATOM     11  C8  H1S d  68     -21.550  -1.558   8.411  0.00  0.00     0.081 C 
ATOM     12  O22 H1S d  68     -15.021   2.558   6.670  0.00  0.00    -0.572 OA
ATOM     13  O23 H1S d  68     -14.860   0.623   8.130  0.00  0.00    -0.572 OA
ATOM     14  O9  H1S d  68     -22.786   0.325   8.953  0.00  0.00    -0.391 OA
ATOM     15  O21 H1S d  68     -15.560   2.807   9.067  0.00  0.00    -0.572 OA
ATOM     16  C24 H1S d  68     -23.172   4.908   6.714  0.00  0.00    -0.034 C 
ATOM     17  O35 H1S d  68     -23.848   4.106  10.255  0.00  0.00    -0.642 OA
ATOM     18  S26 H1S d  68     -20.871   0.718   4.683  0.00  0.00     0.252 S 
ATOM     19  O25 H1S d  68     -23.400   4.417   4.298  0.00  0.00    -0.389 OA
ATOM     20  C12 H1S d  68     -21.986   2.853   5.751  0.00  0.00     0.135 C 
ATOM     21  C17 H1S d  68     -22.485   4.314   5.434  0.00  0.00     0.086 C 
ATOM     22  O5  H1S d  68     -19.092  -1.282   8.783  0.00  0.00    -0.350 OA
ATOM     23  C2  H1S d  68     -19.091   0.068   8.178  0.00  0.00     0.091 C 
ATOM     24  O18 H1S d  68     -21.075   2.224   4.748  0.00  0.00    -0.244 OA
ATOM     25  O28 H1S d  68     -20.683  -4.678   8.219  0.00  0.00    -0.296 OA
ATOM     26  N14 H1S d  68     -21.273  -2.405   7.202  0.00  0.00    -0.210 NA
ATOM     27  O31 H1S d  68     -22.082  -0.037   5.202  0.00  0.00    -0.572 OA
ATOM     28  O11 H1S d  68     -17.084   1.545   7.588  0.00  0.00    -0.254 OA
ATOM     29  O3  H1S d  68     -20.323   1.929   7.462  0.00  0.00    -0.348 OA
ATOM     30  C4  H1S d  68     -21.759  -0.106   8.071  0.00  0.00     0.083 C 
ATOM     31  C1  H1S d  68     -20.486   0.771   8.338  0.00  0.00     0.095 C 
ATOM     32  O33 H1S d  68     -19.655   0.327   5.485  0.00  0.00    -0.572 OA
ATOM     33  O30 H1S d  68     -23.045  -3.874   8.327  0.00  0.00    -0.296 OA
ATOM     34  O32 H1S d  68     -20.536   0.281   3.266  0.00  0.00    -0.572 OA
ATOM     35  O29 H1S d  68     -22.133  -4.797   6.253  0.00  0.00    -0.296 OA
ATOM     36  H   H1S d  68     -19.926  -2.585  11.039  0.00  0.00     0.212 HD
ATOM     37  H   H1S d  68     -20.792   3.750   7.429  0.00  0.00     0.134 H 
ATOM     38  H   H1S d  68     -20.413  -0.643  10.079  0.00  0.00     0.131 H 
ATOM     39  H   H1S d  68     -17.351   0.508   9.382  0.00  0.00     0.080 H 
ATOM     40  H   H1S d  68     -18.445   1.885   9.112  0.00  0.00     0.080 H 
ATOM     41  H   H1S d  68     -22.419  -2.040   8.807  0.00  0.00     0.076 H 
ATOM     42  H   H1S d  68     -23.584  -0.205   8.804  0.00  0.00     0.210 HD
ATOM     43  H   H1S d  68     -23.621   5.835   6.653  0.00  0.00     0.085 H 
ATOM     44  H   H1S d  68     -23.657   5.344   4.172  0.00  0.00     0.210 HD
ATOM     45  H   H1S d  68     -22.818   2.184   5.682  0.00  0.00     0.097 H 
ATOM     46  H   H1S d  68     -21.616   4.872   5.155  0.00  0.00     0.093 H 
ATOM     47  H   H1S d  68     -18.881  -0.120   7.145  0.00  0.00     0.090 H 
ATOM     48  H   H1S d  68     -19.903  -4.735   7.645  0.00  0.00     0.231 HD
ATOM     49  H   H1S d  68     -21.766  -2.019   6.397  0.00  0.00     0.140 HD
ATOM     50  H   H1S d  68     -21.991  -0.001   7.032  0.00  0.00     0.089 H 
ATOM     51  H   H1S d  68     -20.706   1.020   9.355  0.00  0.00     0.091 H 
ATOM     52  H   H1S d  68     -22.846  -3.356   9.122  0.00  0.00     0.231 HD
ATOM     53  H   H1S d  68     -21.342  -4.881   5.697  0.00  0.00     0.231 HD
ENDROOT
TORSDOF 16
ENDMDL
MODEL 40
REMARK VINA RESULT:      -5.9      2.556      5.955
REMARK  0 active torsions:
REMARK  status: ('A' for Active; 'I' for Inactive)
REMARK       I    between atoms: O15_1  and  C10_4 
REMARK       I    between atoms: S20_2  and  N14_26 
REMARK       I    between atoms: S20_2  and  O28_25 
REMARK       I    between atoms: S20_2  and  O29_35 
REMARK       I    between atoms: S20_2  and  O30_33 
REMARK       I    between atoms: C7_3  and  O3_29 
REMARK       I    between atoms: C6_5  and  C2_23 
REMARK       I    between atoms: C6_5  and  O11_28 
REMARK       I    between atoms: S16_6  and  O11_28 
REMARK       I    between atoms: C19_8  and  C27_10 
REMARK       I    between atoms: C8_11  and  N14_26 
REMARK       I    between atoms: O9_14  and  C4_30 
REMARK       I    between atoms: S26_18  and  O18_24 
REMARK       I    between atoms: O25_19  and  C17_21 
REMARK       I    between atoms: C12_20  and  O18_24 
REMARK       I    between atoms: O3_29  and  C1_31 
ROOT
ATOM      1  O15 H1S d  68     -21.504  -4.084  12.822  0.00  0.00    -0.369 OA
ATOM      2  S20 H1S d  68     -22.406  -6.818  10.974  0.00  0.00     0.156 S 
ATOM      3  C7  H1S d  68     -23.860  -0.821   7.861  0.00  0.00     0.167 C 
ATOM      4  C10 H1S d  68     -21.632  -3.488  11.514  0.00  0.00     0.147 C 
ATOM      5  C6  H1S d  68     -19.978  -1.063   9.406  0.00  0.00     0.067 C 
ATOM      6  S16 H1S d  68     -18.024  -0.170   7.963  0.00  0.00     0.251 S 
ATOM      7  O13 H1S d  68     -24.992  -0.652   8.780  0.00  0.00    -0.311 OA
ATOM      8  C19 H1S d  68     -25.899   0.261   8.288  0.00  0.00     0.147 C 
ATOM      9  O34 H1S d  68     -27.500   2.021   8.920  0.00  0.00    -0.642 OA
ATOM     10  C27 H1S d  68     -26.659   1.177   9.313  0.00  0.00     0.233 C 
ATOM     11  C8  H1S d  68     -22.762  -4.231  10.786  0.00  0.00     0.081 C 
ATOM     12  O22 H1S d  68     -17.650   0.041   6.518  0.00  0.00    -0.572 OA
ATOM     13  O23 H1S d  68     -16.910  -0.984   8.592  0.00  0.00    -0.572 OA
ATOM     14  O9  H1S d  68     -24.424  -2.619  10.704  0.00  0.00    -0.391 OA
ATOM     15  O21 H1S d  68     -18.116   1.179   8.660  0.00  0.00    -0.572 OA
ATOM     16  C24 H1S d  68     -26.119   0.337   6.890  0.00  0.00    -0.034 C 
ATOM     17  O35 H1S d  68     -26.383   1.020  10.510  0.00  0.00    -0.642 OA
ATOM     18  S26 H1S d  68     -22.895  -3.705   6.399  0.00  0.00     0.252 S 
ATOM     19  O25 H1S d  68     -26.329  -1.187   4.950  0.00  0.00    -0.389 OA
ATOM     20  C12 H1S d  68     -24.481  -1.619   6.669  0.00  0.00     0.135 C 
ATOM     21  C17 H1S d  68     -25.364  -0.586   5.870  0.00  0.00     0.086 C 
ATOM     22  O5  H1S d  68     -20.449  -3.291  10.621  0.00  0.00    -0.350 OA
ATOM     23  C2  H1S d  68     -20.836  -2.372   9.528  0.00  0.00     0.091 C 
ATOM     24  O18 H1S d  68     -23.486  -2.404   5.878  0.00  0.00    -0.244 OA
ATOM     25  O28 H1S d  68     -21.109  -6.853  11.742  0.00  0.00    -0.296 OA
ATOM     26  N14 H1S d  68     -22.330  -5.434   9.997  0.00  0.00    -0.210 NA
ATOM     27  O31 H1S d  68     -23.836  -4.405   7.363  0.00  0.00    -0.572 OA
ATOM     28  O11 H1S d  68     -19.323  -0.898   8.081  0.00  0.00    -0.254 OA
ATOM     29  O3  H1S d  68     -22.550  -1.323   8.323  0.00  0.00    -0.348 OA
ATOM     30  C4  H1S d  68     -23.364  -3.153   9.923  0.00  0.00     0.083 C 
ATOM     31  C1  H1S d  68     -22.357  -1.993   9.607  0.00  0.00     0.095 C 
ATOM     32  O33 H1S d  68     -21.580  -3.434   7.088  0.00  0.00    -0.572 OA
ATOM     33  O30 H1S d  68     -23.592  -6.620  11.886  0.00  0.00    -0.296 OA
ATOM     34  O32 H1S d  68     -22.526  -4.627   5.248  0.00  0.00    -0.572 OA
ATOM     35  O29 H1S d  68     -22.572  -8.125  10.249  0.00  0.00    -0.296 OA
ATOM     36  H   H1S d  68     -20.796  -3.638  13.312  0.00  0.00     0.212 HD
ATOM     37  H   H1S d  68     -23.486   0.153   7.627  0.00  0.00     0.134 H 
ATOM     38  H   H1S d  68     -21.826  -2.460  11.737  0.00  0.00     0.131 H 
ATOM     39  H   H1S d  68     -19.217  -1.086  10.159  0.00  0.00     0.080 H 
ATOM     40  H   H1S d  68     -20.648  -0.238   9.529  0.00  0.00     0.080 H 
ATOM     41  H   H1S d  68     -23.451  -4.671  11.475  0.00  0.00     0.076 H 
ATOM     42  H   H1S d  68     -25.059  -3.321  10.911  0.00  0.00     0.210 HD
ATOM     43  H   H1S d  68     -26.800   1.023   6.529  0.00  0.00     0.085 H 
ATOM     44  H   H1S d  68     -26.828  -0.487   4.501  0.00  0.00     0.210 HD
ATOM     45  H   H1S d  68     -25.109  -2.415   7.010  0.00  0.00     0.097 H 
ATOM     46  H   H1S d  68     -24.688  -0.029   5.256  0.00  0.00     0.093 H 
ATOM     47  H   H1S d  68     -20.634  -2.938   8.642  0.00  0.00     0.090 H 
ATOM     48  H   H1S d  68     -20.372  -6.981  11.126  0.00  0.00     0.231 HD
ATOM     49  H   H1S d  68     -22.947  -5.552   9.194  0.00  0.00     0.140 HD
ATOM     50  H   H1S d  68     -23.666  -3.562   8.981  0.00  0.00     0.089 H 
ATOM     51  H   H1S d  68     -22.585  -1.383  10.456  0.00  0.00     0.091 H 
ATOM     52  H   H1S d  68     -23.498  -5.779  12.360  0.00  0.00     0.231 HD
ATOM     53  H   H1S d  68     -21.816  -8.266   9.658  0.00  0.00     0.231 HD
ENDROOT
TORSDOF 16
ENDMDL
MODEL 41
REMARK VINA RESULT:      -5.9      3.340      5.060
REMARK  0 active torsions:
REMARK  status: ('A' for Active; 'I' for Inactive)
REMARK       I    between atoms: O15_1  and  C10_4 
REMARK       I    between atoms: S20_2  and  N14_26 
REMARK       I    between atoms: S20_2  and  O28_25 
REMARK       I    between atoms: S20_2  and  O29_35 
REMARK       I    between atoms: S20_2  and  O30_33 
REMARK       I    between atoms: C7_3  and  O3_29 
REMARK       I    between atoms: C6_5  and  C2_23 
REMARK       I    between atoms: C6_5  and  O11_28 
REMARK       I    between atoms: S16_6  and  O11_28 
REMARK       I    between atoms: C19_8  and  C27_10 
REMARK       I    between atoms: C8_11  and  N14_26 
REMARK       I    between atoms: O9_14  and  C4_30 
REMARK       I    between atoms: S26_18  and  O18_24 
REMARK       I    between atoms: O25_19  and  C17_21 
REMARK       I    between atoms: C12_20  and  O18_24 
REMARK       I    between atoms: O3_29  and  C1_31 
ROOT
ATOM      1  O15 H1S d  68     -16.483  -1.036   7.634  0.00  0.00    -0.369 OA
ATOM      2  S20 H1S d  68     -15.648   2.204   8.345  0.00  0.00     0.156 S 
ATOM      3  C7  H1S d  68     -22.100   1.512   5.968  0.00  0.00     0.167 C 
ATOM      4  C10 H1S d  68     -17.794  -0.438   7.722  0.00  0.00     0.147 C 
ATOM      5  C6  H1S d  68     -21.088  -1.177   9.012  0.00  0.00     0.067 C 
ATOM      6  S16 H1S d  68     -22.817  -1.617  10.887  0.00  0.00     0.251 S 
ATOM      7  O13 H1S d  68     -21.551   1.314   4.621  0.00  0.00    -0.311 OA
ATOM      8  C19 H1S d  68     -22.510   1.536   3.656  0.00  0.00     0.147 C 
ATOM      9  O34 H1S d  68     -23.308   0.830   1.438  0.00  0.00    -0.642 OA
ATOM     10  C27 H1S d  68     -22.463   0.666   2.351  0.00  0.00     0.233 C 
ATOM     11  C8  H1S d  68     -17.672   1.001   7.202  0.00  0.00     0.081 C 
ATOM     12  O22 H1S d  68     -23.961  -0.935  11.595  0.00  0.00    -0.572 OA
ATOM     13  O23 H1S d  68     -21.851  -2.083  11.958  0.00  0.00    -0.572 OA
ATOM     14  O9  H1S d  68     -18.835   0.890   5.200  0.00  0.00    -0.391 OA
ATOM     15  O21 H1S d  68     -23.346  -2.823  10.126  0.00  0.00    -0.572 OA
ATOM     16  C24 H1S d  68     -23.491   2.537   3.870  0.00  0.00    -0.034 C 
ATOM     17  O35 H1S d  68     -21.560  -0.179   2.277  0.00  0.00    -0.642 OA
ATOM     18  S26 H1S d  68     -20.992   3.719   8.267  0.00  0.00     0.252 S 
ATOM     19  O25 H1S d  68     -23.649   4.823   4.809  0.00  0.00    -0.389 OA
ATOM     20  C12 H1S d  68     -22.274   3.062   6.061  0.00  0.00     0.135 C 
ATOM     21  C17 H1S d  68     -23.528   3.411   5.172  0.00  0.00     0.086 C 
ATOM     22  O5  H1S d  68     -18.599  -0.493   8.981  0.00  0.00    -0.350 OA
ATOM     23  C2  H1S d  68     -19.992  -0.108   8.663  0.00  0.00     0.091 C 
ATOM     24  O18 H1S d  68     -22.273   3.591   7.458  0.00  0.00    -0.244 OA
ATOM     25  O28 H1S d  68     -15.174   1.110   9.268  0.00  0.00    -0.296 OA
ATOM     26  N14 H1S d  68     -17.330   2.029   8.242  0.00  0.00    -0.210 NA
ATOM     27  O31 H1S d  68     -19.778   3.905   7.373  0.00  0.00    -0.572 OA
ATOM     28  O11 H1S d  68     -22.132  -0.679   9.948  0.00  0.00    -0.254 OA
ATOM     29  O3  H1S d  68     -21.487   0.887   7.158  0.00  0.00    -0.348 OA
ATOM     30  C4  H1S d  68     -19.017   1.238   6.566  0.00  0.00     0.083 C 
ATOM     31  C1  H1S d  68     -20.141   0.319   7.159  0.00  0.00     0.095 C 
ATOM     32  O33 H1S d  68     -20.799   2.493   9.125  0.00  0.00    -0.572 OA
ATOM     33  O30 H1S d  68     -15.122   2.020   6.942  0.00  0.00    -0.296 OA
ATOM     34  O32 H1S d  68     -21.097   4.859   9.267  0.00  0.00    -0.572 OA
ATOM     35  O29 H1S d  68     -15.155   3.524   8.871  0.00  0.00    -0.296 OA
ATOM     36  H   H1S d  68     -16.522  -1.950   7.956  0.00  0.00     0.212 HD
ATOM     37  H   H1S d  68     -22.998   0.935   6.038  0.00  0.00     0.134 H 
ATOM     38  H   H1S d  68     -18.397  -1.093   7.128  0.00  0.00     0.131 H 
ATOM     39  H   H1S d  68     -20.606  -2.021   9.461  0.00  0.00     0.080 H 
ATOM     40  H   H1S d  68     -21.582  -1.427   8.097  0.00  0.00     0.080 H 
ATOM     41  H   H1S d  68     -16.849   1.107   6.527  0.00  0.00     0.076 H 
ATOM     42  H   H1S d  68     -18.143   1.448   4.814  0.00  0.00     0.210 HD
ATOM     43  H   H1S d  68     -24.205   2.698   3.143  0.00  0.00     0.085 H 
ATOM     44  H   H1S d  68     -24.442   4.951   4.266  0.00  0.00     0.210 HD
ATOM     45  H   H1S d  68     -21.423   3.580   5.672  0.00  0.00     0.097 H 
ATOM     46  H   H1S d  68     -24.387   3.193   5.772  0.00  0.00     0.093 H 
ATOM     47  H   H1S d  68     -20.176   0.723   9.310  0.00  0.00     0.090 H 
ATOM     48  H   H1S d  68     -15.530   1.261  10.157  0.00  0.00     0.231 HD
ATOM     49  H   H1S d  68     -17.748   2.923   7.984  0.00  0.00     0.140 HD
ATOM     50  H   H1S d  68     -19.329   2.248   6.731  0.00  0.00     0.089 H 
ATOM     51  H   H1S d  68     -20.013  -0.502   6.485  0.00  0.00     0.091 H 
ATOM     52  H   H1S d  68     -15.433   1.171   6.590  0.00  0.00     0.231 HD
ATOM     53  H   H1S d  68     -15.485   3.656   9.774  0.00  0.00     0.231 HD
ENDROOT
TORSDOF 16
ENDMDL
MODEL 42
REMARK VINA RESULT:      -5.9      3.354      7.004
REMARK  0 active torsions:
REMARK  status: ('A' for Active; 'I' for Inactive)
REMARK       I    between atoms: O15_1  and  C10_4 
REMARK       I    between atoms: S20_2  and  N14_26 
REMARK       I    between atoms: S20_2  and  O28_25 
REMARK       I    between atoms: S20_2  and  O29_35 
REMARK       I    between atoms: S20_2  and  O30_33 
REMARK       I    between atoms: C7_3  and  O3_29 
REMARK       I    between atoms: C6_5  and  C2_23 
REMARK       I    between atoms: C6_5  and  O11_28 
REMARK       I    between atoms: S16_6  and  O11_28 
REMARK       I    between atoms: C19_8  and  C27_10 
REMARK       I    between atoms: C8_11  and  N14_26 
REMARK       I    between atoms: O9_14  and  C4_30 
REMARK       I    between atoms: S26_18  and  O18_24 
REMARK       I    between atoms: O25_19  and  C17_21 
REMARK       I    between atoms: C12_20  and  O18_24 
REMARK       I    between atoms: O3_29  and  C1_31 
ROOT
ATOM      1  O15 H1S d  68     -21.210  -4.245   6.882  0.00  0.00    -0.369 OA
ATOM      2  S20 H1S d  68     -20.763  -4.787   3.534  0.00  0.00     0.156 S 
ATOM      3  C7  H1S d  68     -20.732   1.909   5.241  0.00  0.00     0.167 C 
ATOM      4  C10 H1S d  68     -20.652  -2.977   6.482  0.00  0.00     0.147 C 
ATOM      5  C6  H1S d  68     -18.302  -0.495   7.656  0.00  0.00     0.067 C 
ATOM      6  S16 H1S d  68     -15.949   0.379   8.287  0.00  0.00     0.251 S 
ATOM      7  O13 H1S d  68     -22.190   1.847   5.397  0.00  0.00    -0.311 OA
ATOM      8  C19 H1S d  68     -22.750   3.105   5.348  0.00  0.00     0.147 C 
ATOM      9  O34 H1S d  68     -24.561   4.518   6.232  0.00  0.00    -0.642 OA
ATOM     10  C27 H1S d  68     -24.008   3.392   6.242  0.00  0.00     0.233 C 
ATOM     11  C8  H1S d  68     -21.148  -2.692   5.056  0.00  0.00     0.081 C 
ATOM     12  O22 H1S d  68     -14.869   1.289   7.760  0.00  0.00    -0.572 OA
ATOM     13  O23 H1S d  68     -15.299  -0.960   8.574  0.00  0.00    -0.572 OA
ATOM     14  O9  H1S d  68     -22.614  -0.931   5.399  0.00  0.00    -0.391 OA
ATOM     15  O21 H1S d  68     -16.503   0.956   9.581  0.00  0.00    -0.572 OA
ATOM     16  C24 H1S d  68     -22.182   4.085   4.496  0.00  0.00    -0.034 C 
ATOM     17  O35 H1S d  68     -24.415   2.457   6.946  0.00  0.00    -0.642 OA
ATOM     18  S26 H1S d  68     -18.920   0.405   2.824  0.00  0.00     0.252 S 
ATOM     19  O25 H1S d  68     -21.194   4.240   2.231  0.00  0.00    -0.389 OA
ATOM     20  C12 H1S d  68     -20.548   2.268   3.731  0.00  0.00     0.135 C 
ATOM     21  C17 H1S d  68     -20.929   3.792   3.598  0.00  0.00     0.086 C 
ATOM     22  O5  H1S d  68     -19.192  -2.683   6.615  0.00  0.00    -0.350 OA
ATOM     23  C2  H1S d  68     -18.990  -1.227   6.449  0.00  0.00     0.091 C 
ATOM     24  O18 H1S d  68     -19.228   1.855   3.164  0.00  0.00    -0.244 OA
ATOM     25  O28 H1S d  68     -20.092  -5.712   4.518  0.00  0.00    -0.296 OA
ATOM     26  N14 H1S d  68     -20.272  -3.221   3.958  0.00  0.00    -0.210 NA
ATOM     27  O31 H1S d  68     -20.180  -0.375   2.490  0.00  0.00    -0.572 OA
ATOM     28  O11 H1S d  68     -17.048   0.215   7.288  0.00  0.00    -0.254 OA
ATOM     29  O3  H1S d  68     -19.849   0.832   5.731  0.00  0.00    -0.348 OA
ATOM     30  C4  H1S d  68     -21.264  -1.191   5.040  0.00  0.00     0.083 C 
ATOM     31  C1  H1S d  68     -20.335  -0.497   6.095  0.00  0.00     0.095 C 
ATOM     32  O33 H1S d  68     -18.213  -0.256   3.982  0.00  0.00    -0.572 OA
ATOM     33  O30 H1S d  68     -22.265  -4.807   3.682  0.00  0.00    -0.296 OA
ATOM     34  O32 H1S d  68     -17.921   0.320   1.683  0.00  0.00    -0.572 OA
ATOM     35  O29 H1S d  68     -20.414  -5.232   2.141  0.00  0.00    -0.296 OA
ATOM     36  H   H1S d  68     -20.916  -4.458   7.782  0.00  0.00     0.212 HD
ATOM     37  H   H1S d  68     -20.364   2.629   5.941  0.00  0.00     0.134 H 
ATOM     38  H   H1S d  68     -21.011  -2.308   7.236  0.00  0.00     0.131 H 
ATOM     39  H   H1S d  68     -18.071  -1.223   8.406  0.00  0.00     0.080 H 
ATOM     40  H   H1S d  68     -18.990   0.247   8.005  0.00  0.00     0.080 H 
ATOM     41  H   H1S d  68     -22.067  -3.201   4.852  0.00  0.00     0.076 H 
ATOM     42  H   H1S d  68     -23.207  -1.352   4.758  0.00  0.00     0.210 HD
ATOM     43  H   H1S d  68     -22.607   5.025   4.465  0.00  0.00     0.085 H 
ATOM     44  H   H1S d  68     -21.420   5.183   2.238  0.00  0.00     0.210 HD
ATOM     45  H   H1S d  68     -21.200   1.695   3.105  0.00  0.00     0.097 H 
ATOM     46  H   H1S d  68     -20.071   4.342   3.921  0.00  0.00     0.093 H 
ATOM     47  H   H1S d  68     -18.300  -1.161   5.634  0.00  0.00     0.090 H 
ATOM     48  H   H1S d  68     -19.131  -5.673   4.394  0.00  0.00     0.231 HD
ATOM     49  H   H1S d  68     -20.345  -2.612   3.143  0.00  0.00     0.140 HD
ATOM     50  H   H1S d  68     -20.977  -0.811   4.081  0.00  0.00     0.089 H 
ATOM     51  H   H1S d  68     -21.030  -0.500   6.908  0.00  0.00     0.091 H 
ATOM     52  H   H1S d  68     -22.505  -4.522   4.578  0.00  0.00     0.231 HD
ATOM     53  H   H1S d  68     -19.450  -5.224   2.031  0.00  0.00     0.231 HD
ENDROOT
TORSDOF 16
ENDMDL
MODEL 43
REMARK VINA RESULT:      -5.8      3.311      7.444
REMARK  0 active torsions:
REMARK  status: ('A' for Active; 'I' for Inactive)
REMARK       I    between atoms: O15_1  and  C10_4 
REMARK       I    between atoms: S20_2  and  N14_26 
REMARK       I    between atoms: S20_2  and  O28_25 
REMARK       I    between atoms: S20_2  and  O29_35 
REMARK       I    between atoms: S20_2  and  O30_33 
REMARK       I    between atoms: C7_3  and  O3_29 
REMARK       I    between atoms: C6_5  and  C2_23 
REMARK       I    between atoms: C6_5  and  O11_28 
REMARK       I    between atoms: S16_6  and  O11_28 
REMARK       I    between atoms: C19_8  and  C27_10 
REMARK       I    between atoms: C8_11  and  N14_26 
REMARK       I    between atoms: O9_14  and  C4_30 
REMARK       I    between atoms: S26_18  and  O18_24 
REMARK       I    between atoms: O25_19  and  C17_21 
REMARK       I    between atoms: C12_20  and  O18_24 
REMARK       I    between atoms: O3_29  and  C1_31 
ROOT
ATOM      1  O15 H1S d  68     -23.984  -2.806   7.812  0.00  0.00    -0.369 OA
ATOM      2  S20 H1S d  68     -25.213  -0.949  10.408  0.00  0.00     0.156 S 
ATOM      3  C7  H1S d  68     -19.503   1.740   7.594  0.00  0.00     0.167 C 
ATOM      4  C10 H1S d  68     -23.326  -1.545   7.569  0.00  0.00     0.147 C 
ATOM      5  C6  H1S d  68     -22.426   0.619   4.818  0.00  0.00     0.067 C 
ATOM      6  S16 H1S d  68     -22.925   2.218   2.845  0.00  0.00     0.251 S 
ATOM      7  O13 H1S d  68     -18.716   0.703   8.271  0.00  0.00    -0.311 OA
ATOM      8  C19 H1S d  68     -17.386   1.058   8.350  0.00  0.00     0.147 C 
ATOM      9  O34 H1S d  68     -15.084   0.189   8.315  0.00  0.00    -0.642 OA
ATOM     10  C27 H1S d  68     -16.308  -0.077   8.243  0.00  0.00     0.233 C 
ATOM     11  C8  H1S d  68     -23.047  -0.908   8.937  0.00  0.00     0.081 C 
ATOM     12  O22 H1S d  68     -22.872   3.685   2.497  0.00  0.00    -0.572 OA
ATOM     13  O23 H1S d  68     -24.332   1.744   2.541  0.00  0.00    -0.572 OA
ATOM     14  O9  H1S d  68     -20.740  -1.068   9.083  0.00  0.00    -0.391 OA
ATOM     15  O21 H1S d  68     -21.938   1.460   1.971  0.00  0.00    -0.572 OA
ATOM     16  C24 H1S d  68     -17.042   2.422   8.529  0.00  0.00    -0.034 C 
ATOM     17  O35 H1S d  68     -16.728  -1.232   8.087  0.00  0.00    -0.642 OA
ATOM     18  S26 H1S d  68     -22.127   3.416   8.895  0.00  0.00     0.252 S 
ATOM     19  O25 H1S d  68     -17.831   4.392   9.804  0.00  0.00    -0.389 OA
ATOM     20  C12 H1S d  68     -19.556   2.893   8.648  0.00  0.00     0.135 C 
ATOM     21  C17 H1S d  68     -18.124   3.552   8.643  0.00  0.00     0.086 C 
ATOM     22  O5  H1S d  68     -23.880  -0.543   6.607  0.00  0.00    -0.350 OA
ATOM     23  C2  H1S d  68     -22.833   0.464   6.326  0.00  0.00     0.091 C 
ATOM     24  O18 H1S d  68     -20.719   3.816   8.481  0.00  0.00    -0.244 OA
ATOM     25  O28 H1S d  68     -26.182  -1.576   9.438  0.00  0.00    -0.296 OA
ATOM     26  N14 H1S d  68     -24.144  -0.029   9.468  0.00  0.00    -0.210 NA
ATOM     27  O31 H1S d  68     -22.113   2.388  10.014  0.00  0.00    -0.572 OA
ATOM     28  O11 H1S d  68     -22.607   1.997   4.288  0.00  0.00    -0.254 OA
ATOM     29  O3  H1S d  68     -20.793   1.439   6.943  0.00  0.00    -0.348 OA
ATOM     30  C4  H1S d  68     -21.763  -0.159   8.698  0.00  0.00     0.083 C 
ATOM     31  C1  H1S d  68     -21.546   0.211   7.190  0.00  0.00     0.095 C 
ATOM     32  O33 H1S d  68     -22.873   2.856   7.709  0.00  0.00    -0.572 OA
ATOM     33  O30 H1S d  68     -24.368  -1.986  11.105  0.00  0.00    -0.296 OA
ATOM     34  O32 H1S d  68     -22.937   4.636   9.300  0.00  0.00    -0.572 OA
ATOM     35  O29 H1S d  68     -25.994  -0.191  11.446  0.00  0.00    -0.296 OA
ATOM     36  H   H1S d  68     -24.176  -3.239   6.965  0.00  0.00     0.212 HD
ATOM     37  H   H1S d  68     -19.009   1.970   6.674  0.00  0.00     0.134 H 
ATOM     38  H   H1S d  68     -22.460  -1.830   7.009  0.00  0.00     0.131 H 
ATOM     39  H   H1S d  68     -23.027  -0.049   4.236  0.00  0.00     0.080 H 
ATOM     40  H   H1S d  68     -21.383   0.392   4.751  0.00  0.00     0.080 H 
ATOM     41  H   H1S d  68     -22.982  -1.646   9.709  0.00  0.00     0.076 H 
ATOM     42  H   H1S d  68     -20.856  -1.310  10.014  0.00  0.00     0.210 HD
ATOM     43  H   H1S d  68     -16.045   2.680   8.587  0.00  0.00     0.085 H 
ATOM     44  H   H1S d  68     -16.936   4.756   9.723  0.00  0.00     0.210 HD
ATOM     45  H   H1S d  68     -19.760   2.523   9.631  0.00  0.00     0.097 H 
ATOM     46  H   H1S d  68     -18.102   4.209   7.799  0.00  0.00     0.093 H 
ATOM     47  H   H1S d  68     -23.295   1.389   6.602  0.00  0.00     0.090 H 
ATOM     48  H   H1S d  68     -26.706  -0.881   9.010  0.00  0.00     0.231 HD
ATOM     49  H   H1S d  68     -23.738   0.710  10.042  0.00  0.00     0.140 HD
ATOM     50  H   H1S d  68     -21.768   0.763   9.242  0.00  0.00     0.089 H 
ATOM     51  H   H1S d  68     -21.030  -0.682   6.906  0.00  0.00     0.091 H 
ATOM     52  H   H1S d  68     -23.858  -2.484  10.447  0.00  0.00     0.231 HD
ATOM     53  H   H1S d  68     -26.543   0.481  11.012  0.00  0.00     0.231 HD
ENDROOT
TORSDOF 16
ENDMDL
MODEL 44
REMARK VINA RESULT:      -5.8      3.105      6.770
REMARK  0 active torsions:
REMARK  status: ('A' for Active; 'I' for Inactive)
REMARK       I    between atoms: O15_1  and  C10_4 
REMARK       I    between atoms: S20_2  and  N14_26 
REMARK       I    between atoms: S20_2  and  O28_25 
REMARK       I    between atoms: S20_2  and  O29_35 
REMARK       I    between atoms: S20_2  and  O30_33 
REMARK       I    between atoms: C7_3  and  O3_29 
REMARK       I    between atoms: C6_5  and  C2_23 
REMARK       I    between atoms: C6_5  and  O11_28 
REMARK       I    between atoms: S16_6  and  O11_28 
REMARK       I    between atoms: C19_8  and  C27_10 
REMARK       I    between atoms: C8_11  and  N14_26 
REMARK       I    between atoms: O9_14  and  C4_30 
REMARK       I    between atoms: S26_18  and  O18_24 
REMARK       I    between atoms: O25_19  and  C17_21 
REMARK       I    between atoms: C12_20  and  O18_24 
REMARK       I    between atoms: O3_29  and  C1_31 
ROOT
ATOM      1  O15 H1S d  68     -19.568   1.243  10.715  0.00  0.00    -0.369 OA
ATOM      2  S20 H1S d  68     -16.529   1.142   9.147  0.00  0.00     0.156 S 
ATOM      3  C7  H1S d  68     -21.590  -1.810   5.481  0.00  0.00     0.167 C 
ATOM      4  C10 H1S d  68     -19.980   0.984   9.357  0.00  0.00     0.147 C 
ATOM      5  C6  H1S d  68     -22.549   1.965   7.013  0.00  0.00     0.067 C 
ATOM      6  S16 H1S d  68     -23.793   3.635   5.475  0.00  0.00     0.251 S 
ATOM      7  O13 H1S d  68     -21.535  -2.962   6.388  0.00  0.00    -0.311 OA
ATOM      8  C19 H1S d  68     -22.120  -4.072   5.818  0.00  0.00     0.147 C 
ATOM      9  O34 H1S d  68     -23.436  -6.098   6.290  0.00  0.00    -0.642 OA
ATOM     10  C27 H1S d  68     -22.891  -5.068   6.755  0.00  0.00     0.233 C 
ATOM     11  C8  H1S d  68     -18.895   0.109   8.713  0.00  0.00     0.081 C 
ATOM     12  O22 H1S d  68     -23.959   3.965   4.013  0.00  0.00    -0.572 OA
ATOM     13  O23 H1S d  68     -23.372   4.914   6.171  0.00  0.00    -0.572 OA
ATOM     14  O9  H1S d  68     -19.986  -1.924   8.489  0.00  0.00    -0.391 OA
ATOM     15  O21 H1S d  68     -25.128   3.171   6.039  0.00  0.00    -0.572 OA
ATOM     16  C24 H1S d  68     -22.000  -4.279   4.421  0.00  0.00    -0.034 C 
ATOM     17  O35 H1S d  68     -22.928  -4.783   7.960  0.00  0.00    -0.642 OA
ATOM     18  S26 H1S d  68     -18.947  -0.079   4.297  0.00  0.00     0.252 S 
ATOM     19  O25 H1S d  68     -20.299  -4.036   2.638  0.00  0.00    -0.389 OA
ATOM     20  C12 H1S d  68     -20.545  -2.172   4.377  0.00  0.00     0.135 C 
ATOM     21  C17 H1S d  68     -21.222  -3.285   3.489  0.00  0.00     0.086 C 
ATOM     22  O5  H1S d  68     -20.402   2.087   8.440  0.00  0.00    -0.350 OA
ATOM     23  C2  H1S d  68     -21.075   1.488   7.267  0.00  0.00     0.091 C 
ATOM     24  O18 H1S d  68     -19.985  -0.988   3.658  0.00  0.00    -0.244 OA
ATOM     25  O28 H1S d  68     -16.917   2.386   9.905  0.00  0.00    -0.296 OA
ATOM     26  N14 H1S d  68     -17.783   0.862   8.041  0.00  0.00    -0.210 NA
ATOM     27  O31 H1S d  68     -18.115  -0.816   5.332  0.00  0.00    -0.572 OA
ATOM     28  O11 H1S d  68     -22.758   2.577   5.673  0.00  0.00    -0.254 OA
ATOM     29  O3  H1S d  68     -21.506  -0.422   5.979  0.00  0.00    -0.348 OA
ATOM     30  C4  H1S d  68     -19.684  -0.744   7.755  0.00  0.00     0.083 C 
ATOM     31  C1  H1S d  68     -21.037  -0.080   7.321  0.00  0.00     0.095 C 
ATOM     32  O33 H1S d  68     -19.626   1.101   4.946  0.00  0.00    -0.572 OA
ATOM     33  O30 H1S d  68     -16.487  -0.071  10.045  0.00  0.00    -0.296 OA
ATOM     34  O32 H1S d  68     -18.053   0.544   3.238  0.00  0.00    -0.572 OA
ATOM     35  O29 H1S d  68     -15.163   1.346   8.554  0.00  0.00    -0.296 OA
ATOM     36  H   H1S d  68     -20.232   1.796  11.155  0.00  0.00     0.212 HD
ATOM     37  H   H1S d  68     -22.602  -1.707   5.152  0.00  0.00     0.134 H 
ATOM     38  H   H1S d  68     -20.934   0.517   9.481  0.00  0.00     0.131 H 
ATOM     39  H   H1S d  68     -22.802   2.691   7.758  0.00  0.00     0.080 H 
ATOM     40  H   H1S d  68     -23.171   1.096   7.060  0.00  0.00     0.080 H 
ATOM     41  H   H1S d  68     -18.354  -0.450   9.447  0.00  0.00     0.076 H 
ATOM     42  H   H1S d  68     -19.161  -2.351   8.768  0.00  0.00     0.210 HD
ATOM     43  H   H1S d  68     -22.441  -5.112   4.001  0.00  0.00     0.085 H 
ATOM     44  H   H1S d  68     -20.793  -4.696   2.128  0.00  0.00     0.210 HD
ATOM     45  H   H1S d  68     -19.645  -2.569   4.798  0.00  0.00     0.097 H 
ATOM     46  H   H1S d  68     -21.879  -2.772   2.819  0.00  0.00     0.093 H 
ATOM     47  H   H1S d  68     -20.503   1.850   6.438  0.00  0.00     0.090 H 
ATOM     48  H   H1S d  68     -16.934   3.142   9.298  0.00  0.00     0.231 HD
ATOM     49  H   H1S d  68     -17.428   0.314   7.258  0.00  0.00     0.140 HD
ATOM     50  H   H1S d  68     -19.122  -0.909   6.860  0.00  0.00     0.089 H 
ATOM     51  H   H1S d  68     -21.641  -0.479   8.109  0.00  0.00     0.091 H 
ATOM     52  H   H1S d  68     -17.363  -0.215  10.435  0.00  0.00     0.231 HD
ATOM     53  H   H1S d  68     -15.175   2.123   7.973  0.00  0.00     0.231 HD
ENDROOT
TORSDOF 16
ENDMDL
MODEL 45
REMARK VINA RESULT:      -5.8      3.152      6.521
REMARK  0 active torsions:
REMARK  status: ('A' for Active; 'I' for Inactive)
REMARK       I    between atoms: O15_1  and  C10_4 
REMARK       I    between atoms: S20_2  and  N14_26 
REMARK       I    between atoms: S20_2  and  O28_25 
REMARK       I    between atoms: S20_2  and  O29_35 
REMARK       I    between atoms: S20_2  and  O30_33 
REMARK       I    between atoms: C7_3  and  O3_29 
REMARK       I    between atoms: C6_5  and  C2_23 
REMARK       I    between atoms: C6_5  and  O11_28 
REMARK       I    between atoms: S16_6  and  O11_28 
REMARK       I    between atoms: C19_8  and  C27_10 
REMARK       I    between atoms: C8_11  and  N14_26 
REMARK       I    between atoms: O9_14  and  C4_30 
REMARK       I    between atoms: S26_18  and  O18_24 
REMARK       I    between atoms: O25_19  and  C17_21 
REMARK       I    between atoms: C12_20  and  O18_24 
REMARK       I    between atoms: O3_29  and  C1_31 
ROOT
ATOM      1  O15 H1S d  68     -20.032   4.604   8.929  0.00  0.00    -0.369 OA
ATOM      2  S20 H1S d  68     -16.943   3.921   7.629  0.00  0.00     0.156 S 
ATOM      3  C7  H1S d  68     -21.285  -1.445   7.301  0.00  0.00     0.167 C 
ATOM      4  C10 H1S d  68     -20.331   3.435   8.138  0.00  0.00     0.147 C 
ATOM      5  C6  H1S d  68     -22.904   2.167   5.940  0.00  0.00     0.067 C 
ATOM      6  S16 H1S d  68     -24.320   2.139   3.774  0.00  0.00     0.251 S 
ATOM      7  O13 H1S d  68     -21.093  -1.651   8.741  0.00  0.00    -0.311 OA
ATOM      8  C19 H1S d  68     -21.466  -2.924   9.116  0.00  0.00     0.147 C 
ATOM      9  O34 H1S d  68     -22.466  -4.258  10.926  0.00  0.00    -0.642 OA
ATOM     10  C27 H1S d  68     -22.114  -3.120  10.532  0.00  0.00     0.233 C 
ATOM     11  C8  H1S d  68     -19.091   2.530   8.179  0.00  0.00     0.081 C 
ATOM     12  O22 H1S d  68     -24.464   1.360   2.491  0.00  0.00    -0.572 OA
ATOM     13  O23 H1S d  68     -24.142   3.594   3.389  0.00  0.00    -0.572 OA
ATOM     14  O9  H1S d  68     -19.833   0.753   9.468  0.00  0.00    -0.391 OA
ATOM     15  O21 H1S d  68     -25.590   1.988   4.597  0.00  0.00    -0.572 OA
ATOM     16  C24 H1S d  68     -21.246  -4.002   8.222  0.00  0.00    -0.034 C 
ATOM     17  O35 H1S d  68     -22.256  -2.103  11.225  0.00  0.00    -0.642 OA
ATOM     18  S26 H1S d  68     -18.894  -0.608   5.072  0.00  0.00     0.252 S 
ATOM     19  O25 H1S d  68     -19.519  -4.782   6.629  0.00  0.00    -0.389 OA
ATOM     20  C12 H1S d  68     -20.143  -2.298   6.662  0.00  0.00     0.135 C 
ATOM     21  C17 H1S d  68     -20.590  -3.803   6.811  0.00  0.00     0.086 C 
ATOM     22  O5  H1S d  68     -20.876   3.543   6.751  0.00  0.00    -0.350 OA
ATOM     23  C2  H1S d  68     -21.388   2.216   6.343  0.00  0.00     0.091 C 
ATOM     24  O18 H1S d  68     -19.743  -1.851   5.293  0.00  0.00    -0.244 OA
ATOM     25  O28 H1S d  68     -17.559   5.273   7.372  0.00  0.00    -0.296 OA
ATOM     26  N14 H1S d  68     -18.080   2.783   7.098  0.00  0.00    -0.210 NA
ATOM     27  O31 H1S d  68     -18.008  -0.312   6.269  0.00  0.00    -0.572 OA
ATOM     28  O11 H1S d  68     -23.141   1.666   4.560  0.00  0.00    -0.254 OA
ATOM     29  O3  H1S d  68     -21.446  -0.096   6.722  0.00  0.00    -0.348 OA
ATOM     30  C4  H1S d  68     -19.687   1.148   8.111  0.00  0.00     0.083 C 
ATOM     31  C1  H1S d  68     -21.104   1.129   7.441  0.00  0.00     0.095 C 
ATOM     32  O33 H1S d  68     -19.783   0.580   4.799  0.00  0.00    -0.572 OA
ATOM     33  O30 H1S d  68     -16.753   3.664   9.104  0.00  0.00    -0.296 OA
ATOM     34  O32 H1S d  68     -18.059  -0.744   3.810  0.00  0.00    -0.572 OA
ATOM     35  O29 H1S d  68     -15.598   3.870   6.957  0.00  0.00    -0.296 OA
ATOM     36  H   H1S d  68     -20.797   5.200   8.926  0.00  0.00     0.212 HD
ATOM     37  H   H1S d  68     -22.283  -1.746   7.063  0.00  0.00     0.134 H 
ATOM     38  H   H1S d  68     -21.204   3.040   8.614  0.00  0.00     0.131 H 
ATOM     39  H   H1S d  68     -23.306   3.156   6.015  0.00  0.00     0.080 H 
ATOM     40  H   H1S d  68     -23.383   1.480   6.608  0.00  0.00     0.080 H 
ATOM     41  H   H1S d  68     -18.504   2.707   9.056  0.00  0.00     0.076 H 
ATOM     42  H   H1S d  68     -18.966   0.758   9.902  0.00  0.00     0.210 HD
ATOM     43  H   H1S d  68     -21.528  -4.952   8.510  0.00  0.00     0.085 H 
ATOM     44  H   H1S d  68     -19.877  -5.677   6.737  0.00  0.00     0.210 HD
ATOM     45  H   H1S d  68     -19.213  -2.164   7.174  0.00  0.00     0.097 H 
ATOM     46  H   H1S d  68     -21.286  -3.986   6.020  0.00  0.00     0.093 H 
ATOM     47  H   H1S d  68     -20.840   2.000   5.449  0.00  0.00     0.090 H 
ATOM     48  H   H1S d  68     -17.666   5.403   6.417  0.00  0.00     0.231 HD
ATOM     49  H   H1S d  68     -17.604   1.910   6.868  0.00  0.00     0.140 HD
ATOM     50  H   H1S d  68     -19.062   0.507   7.525  0.00  0.00     0.089 H 
ATOM     51  H   H1S d  68     -21.676   1.287   8.331  0.00  0.00     0.091 H 
ATOM     52  H   H1S d  68     -17.614   3.694   9.550  0.00  0.00     0.231 HD
ATOM     53  H   H1S d  68     -15.705   4.034   6.007  0.00  0.00     0.231 HD
ENDROOT
TORSDOF 16
ENDMDL
MODEL 46
REMARK VINA RESULT:      -5.8      2.795      6.185
REMARK  0 active torsions:
REMARK  status: ('A' for Active; 'I' for Inactive)
REMARK       I    between atoms: O15_1  and  C10_4 
REMARK       I    between atoms: S20_2  and  N14_26 
REMARK       I    between atoms: S20_2  and  O28_25 
REMARK       I    between atoms: S20_2  and  O29_35 
REMARK       I    between atoms: S20_2  and  O30_33 
REMARK       I    between atoms: C7_3  and  O3_29 
REMARK       I    between atoms: C6_5  and  C2_23 
REMARK       I    between atoms: C6_5  and  O11_28 
REMARK       I    between atoms: S16_6  and  O11_28 
REMARK       I    between atoms: C19_8  and  C27_10 
REMARK       I    between atoms: C8_11  and  N14_26 
REMARK       I    between atoms: O9_14  and  C4_30 
REMARK       I    between atoms: S26_18  and  O18_24 
REMARK       I    between atoms: O25_19  and  C17_21 
REMARK       I    between atoms: C12_20  and  O18_24 
REMARK       I    between atoms: O3_29  and  C1_31 
ROOT
ATOM      1  O15 H1S d  68     -20.980   3.972   6.412  0.00  0.00    -0.369 OA
ATOM      2  S20 H1S d  68     -23.156   3.851   9.049  0.00  0.00     0.156 S 
ATOM      3  C7  H1S d  68     -20.717  -2.357   7.237  0.00  0.00     0.167 C 
ATOM      4  C10 H1S d  68     -20.658   2.677   6.961  0.00  0.00     0.147 C 
ATOM      5  C6  H1S d  68     -17.780   0.598   7.637  0.00  0.00     0.067 C 
ATOM      6  S16 H1S d  68     -15.576  -0.016   8.845  0.00  0.00     0.251 S 
ATOM      7  O13 H1S d  68     -21.607  -2.334   6.071  0.00  0.00    -0.311 OA
ATOM      8  C19 H1S d  68     -21.797  -3.602   5.565  0.00  0.00     0.147 C 
ATOM      9  O34 H1S d  68     -22.144  -4.893   3.498  0.00  0.00    -0.642 OA
ATOM     10  C27 H1S d  68     -21.963  -3.763   4.012  0.00  0.00     0.233 C 
ATOM     11  C8  H1S d  68     -21.958   2.088   7.527  0.00  0.00     0.081 C 
ATOM     12  O22 H1S d  68     -15.053  -0.960   9.898  0.00  0.00    -0.572 OA
ATOM     13  O23 H1S d  68     -15.170   1.382   9.266  0.00  0.00    -0.572 OA
ATOM     14  O9  H1S d  68     -22.393   0.363   6.043  0.00  0.00    -0.391 OA
ATOM     15  O21 H1S d  68     -14.927  -0.348   7.509  0.00  0.00    -0.572 OA
ATOM     16  C24 H1S d  68     -21.841  -4.705   6.454  0.00  0.00    -0.034 C 
ATOM     17  O35 H1S d  68     -21.907  -2.727   3.336  0.00  0.00    -0.642 OA
ATOM     18  S26 H1S d  68     -21.476  -1.284  10.345  0.00  0.00     0.252 S 
ATOM     19  O25 H1S d  68     -22.754  -5.265   8.687  0.00  0.00    -0.389 OA
ATOM     20  C12 H1S d  68     -21.602  -3.002   8.352  0.00  0.00     0.135 C 
ATOM     21  C17 H1S d  68     -21.682  -4.538   8.006  0.00  0.00     0.086 C 
ATOM     22  O5  H1S d  68     -19.518   2.487   7.910  0.00  0.00    -0.350 OA
ATOM     23  C2  H1S d  68     -19.237   1.039   8.020  0.00  0.00     0.091 C 
ATOM     24  O18 H1S d  68     -21.183  -2.649   9.742  0.00  0.00    -0.244 OA
ATOM     25  O28 H1S d  68     -22.166   4.985   8.972  0.00  0.00    -0.296 OA
ATOM     26  N14 H1S d  68     -22.239   2.427   8.963  0.00  0.00    -0.210 NA
ATOM     27  O31 H1S d  68     -22.709  -0.648   9.727  0.00  0.00    -0.572 OA
ATOM     28  O11 H1S d  68     -17.062  -0.110   8.730  0.00  0.00    -0.254 OA
ATOM     29  O3  H1S d  68     -19.962  -1.162   7.664  0.00  0.00    -0.348 OA
ATOM     30  C4  H1S d  68     -21.778   0.610   7.301  0.00  0.00     0.083 C 
ATOM     31  C1  H1S d  68     -20.272   0.189   7.199  0.00  0.00     0.095 C 
ATOM     32  O33 H1S d  68     -20.291  -0.370  10.151  0.00  0.00    -0.572 OA
ATOM     33  O30 H1S d  68     -24.074   3.827   7.851  0.00  0.00    -0.296 OA
ATOM     34  O32 H1S d  68     -21.625  -1.382  11.854  0.00  0.00    -0.572 OA
ATOM     35  O29 H1S d  68     -23.990   4.022  10.288  0.00  0.00    -0.296 OA
ATOM     36  H   H1S d  68     -20.178   4.375   6.043  0.00  0.00     0.212 HD
ATOM     37  H   H1S d  68     -19.839  -2.903   6.962  0.00  0.00     0.134 H 
ATOM     38  H   H1S d  68     -20.245   2.157   6.122  0.00  0.00     0.131 H 
ATOM     39  H   H1S d  68     -17.221   1.473   7.375  0.00  0.00     0.080 H 
ATOM     40  H   H1S d  68     -17.866  -0.090   6.822  0.00  0.00     0.080 H 
ATOM     41  H   H1S d  68     -22.819   2.500   7.045  0.00  0.00     0.076 H 
ATOM     42  H   H1S d  68     -23.328   0.618   6.084  0.00  0.00     0.210 HD
ATOM     43  H   H1S d  68     -21.983  -5.651   6.068  0.00  0.00     0.085 H 
ATOM     44  H   H1S d  68     -22.733  -6.197   8.420  0.00  0.00     0.210 HD
ATOM     45  H   H1S d  68     -22.593  -2.599   8.355  0.00  0.00     0.097 H 
ATOM     46  H   H1S d  68     -20.770  -4.971   8.361  0.00  0.00     0.093 H 
ATOM     47  H   H1S d  68     -19.337   0.843   9.067  0.00  0.00     0.090 H 
ATOM     48  H   H1S d  68     -21.595   4.968   9.756  0.00  0.00     0.231 HD
ATOM     49  H   H1S d  68     -22.759   1.663   9.396  0.00  0.00     0.140 HD
ATOM     50  H   H1S d  68     -22.197   0.059   8.117  0.00  0.00     0.089 H 
ATOM     51  H   H1S d  68     -20.166   0.322   6.143  0.00  0.00     0.091 H 
ATOM     52  H   H1S d  68     -23.549   3.717   7.043  0.00  0.00     0.231 HD
ATOM     53  H   H1S d  68     -23.412   4.038  11.067  0.00  0.00     0.231 HD
ENDROOT
TORSDOF 16
ENDMDL
MODEL 47
REMARK VINA RESULT:      -5.8      3.145      6.518
REMARK  0 active torsions:
REMARK  status: ('A' for Active; 'I' for Inactive)
REMARK       I    between atoms: O15_1  and  C10_4 
REMARK       I    between atoms: S20_2  and  N14_26 
REMARK       I    between atoms: S20_2  and  O28_25 
REMARK       I    between atoms: S20_2  and  O29_35 
REMARK       I    between atoms: S20_2  and  O30_33 
REMARK       I    between atoms: C7_3  and  O3_29 
REMARK       I    between atoms: C6_5  and  C2_23 
REMARK       I    between atoms: C6_5  and  O11_28 
REMARK       I    between atoms: S16_6  and  O11_28 
REMARK       I    between atoms: C19_8  and  C27_10 
REMARK       I    between atoms: C8_11  and  N14_26 
REMARK       I    between atoms: O9_14  and  C4_30 
REMARK       I    between atoms: S26_18  and  O18_24 
REMARK       I    between atoms: O25_19  and  C17_21 
REMARK       I    between atoms: C12_20  and  O18_24 
REMARK       I    between atoms: O3_29  and  C1_31 
ROOT
ATOM      1  O15 H1S d  68     -19.246  -1.744   3.089  0.00  0.00    -0.369 OA
ATOM      2  S20 H1S d  68     -21.709   0.533   2.418  0.00  0.00     0.156 S 
ATOM      3  C7  H1S d  68     -21.082  -0.899   9.149  0.00  0.00     0.167 C 
ATOM      4  C10 H1S d  68     -19.425  -1.155   4.394  0.00  0.00     0.147 C 
ATOM      5  C6  H1S d  68     -17.463  -0.056   7.223  0.00  0.00     0.067 C 
ATOM      6  S16 H1S d  68     -15.756   1.471   8.429  0.00  0.00     0.251 S 
ATOM      7  O13 H1S d  68     -21.743  -2.187   8.907  0.00  0.00    -0.311 OA
ATOM      8  C19 H1S d  68     -22.241  -2.718  10.077  0.00  0.00     0.147 C 
ATOM      9  O34 H1S d  68     -22.670  -4.815  11.292  0.00  0.00    -0.642 OA
ATOM     10  C27 H1S d  68     -22.224  -4.278  10.250  0.00  0.00     0.233 C 
ATOM     11  C8  H1S d  68     -20.911  -0.793   4.529  0.00  0.00     0.081 C 
ATOM     12  O22 H1S d  68     -15.710   2.590   9.439  0.00  0.00    -0.572 OA
ATOM     13  O23 H1S d  68     -15.003   1.950   7.205  0.00  0.00    -0.572 OA
ATOM     14  O9  H1S d  68     -21.641  -2.329   6.103  0.00  0.00    -0.391 OA
ATOM     15  O21 H1S d  68     -15.057   0.248   9.004  0.00  0.00    -0.572 OA
ATOM     16  C24 H1S d  68     -22.753  -1.847  11.072  0.00  0.00    -0.034 C 
ATOM     17  O35 H1S d  68     -21.752  -4.936   9.313  0.00  0.00    -0.642 OA
ATOM     18  S26 H1S d  68     -21.910   2.059   7.755  0.00  0.00     0.252 S 
ATOM     19  O25 H1S d  68     -24.107   0.221  11.223  0.00  0.00    -0.389 OA
ATOM     20  C12 H1S d  68     -22.274   0.068   9.441  0.00  0.00     0.135 C 
ATOM     21  C17 H1S d  68     -22.776  -0.289  10.892  0.00  0.00     0.086 C 
ATOM     22  O5  H1S d  68     -18.550  -0.045   4.882  0.00  0.00    -0.350 OA
ATOM     23  C2  H1S d  68     -18.751   0.104   6.340  0.00  0.00     0.091 C 
ATOM     24  O18 H1S d  68     -21.971   1.505   9.170  0.00  0.00    -0.244 OA
ATOM     25  O28 H1S d  68     -20.416   0.609   1.646  0.00  0.00    -0.296 OA
ATOM     26  N14 H1S d  68     -21.277   0.585   4.056  0.00  0.00    -0.210 NA
ATOM     27  O31 H1S d  68     -22.783   1.264   6.801  0.00  0.00    -0.572 OA
ATOM     28  O11 H1S d  68     -17.165   1.133   8.067  0.00  0.00    -0.254 OA
ATOM     29  O3  H1S d  68     -20.063  -0.362   8.226  0.00  0.00    -0.348 OA
ATOM     30  C4  H1S d  68     -21.168  -0.992   6.000  0.00  0.00     0.083 C 
ATOM     31  C1  H1S d  68     -19.868  -0.865   6.868  0.00  0.00     0.095 C 
ATOM     32  O33 H1S d  68     -20.485   2.049   7.259  0.00  0.00    -0.572 OA
ATOM     33  O30 H1S d  68     -22.407  -0.790   2.212  0.00  0.00    -0.296 OA
ATOM     34  O32 H1S d  68     -22.298   3.529   7.735  0.00  0.00    -0.572 OA
ATOM     35  O29 H1S d  68     -22.618   1.632   1.943  0.00  0.00    -0.296 OA
ATOM     36  H   H1S d  68     -18.315  -1.987   2.968  0.00  0.00     0.212 HD
ATOM     37  H   H1S d  68     -20.387  -1.040   9.950  0.00  0.00     0.134 H 
ATOM     38  H   H1S d  68     -19.077  -1.923   5.053  0.00  0.00     0.131 H 
ATOM     39  H   H1S d  68     -16.628  -0.228   6.575  0.00  0.00     0.080 H 
ATOM     40  H   H1S d  68     -17.640  -0.875   7.888  0.00  0.00     0.080 H 
ATOM     41  H   H1S d  68     -21.522  -1.399   3.895  0.00  0.00     0.076 H 
ATOM     42  H   H1S d  68     -22.446  -2.429   5.572  0.00  0.00     0.210 HD
ATOM     43  H   H1S d  68     -23.124  -2.252  11.945  0.00  0.00     0.085 H 
ATOM     44  H   H1S d  68     -24.338  -0.041  12.128  0.00  0.00     0.210 HD
ATOM     45  H   H1S d  68     -23.080  -0.079   8.753  0.00  0.00     0.097 H 
ATOM     46  H   H1S d  68     -22.105   0.199  11.567  0.00  0.00     0.093 H 
ATOM     47  H   H1S d  68     -19.056   1.124   6.448  0.00  0.00     0.090 H 
ATOM     48  H   H1S d  68     -19.998   1.470   1.802  0.00  0.00     0.231 HD
ATOM     49  H   H1S d  68     -22.065   0.933   4.603  0.00  0.00     0.140 HD
ATOM     50  H   H1S d  68     -21.850  -0.249   6.358  0.00  0.00     0.089 H 
ATOM     51  H   H1S d  68     -19.575  -1.893   6.822  0.00  0.00     0.091 H 
ATOM     52  H   H1S d  68     -21.830  -1.509   2.515  0.00  0.00     0.231 HD
ATOM     53  H   H1S d  68     -22.183   2.490   2.069  0.00  0.00     0.231 HD
ENDROOT
TORSDOF 16
ENDMDL
MODEL 48
REMARK VINA RESULT:      -5.8      2.678      4.832
REMARK  0 active torsions:
REMARK  status: ('A' for Active; 'I' for Inactive)
REMARK       I    between atoms: O15_1  and  C10_4 
REMARK       I    between atoms: S20_2  and  N14_26 
REMARK       I    between atoms: S20_2  and  O28_25 
REMARK       I    between atoms: S20_2  and  O29_35 
REMARK       I    between atoms: S20_2  and  O30_33 
REMARK       I    between atoms: C7_3  and  O3_29 
REMARK       I    between atoms: C6_5  and  C2_23 
REMARK       I    between atoms: C6_5  and  O11_28 
REMARK       I    between atoms: S16_6  and  O11_28 
REMARK       I    between atoms: C19_8  and  C27_10 
REMARK       I    between atoms: C8_11  and  N14_26 
REMARK       I    between atoms: O9_14  and  C4_30 
REMARK       I    between atoms: S26_18  and  O18_24 
REMARK       I    between atoms: O25_19  and  C17_21 
REMARK       I    between atoms: C12_20  and  O18_24 
REMARK       I    between atoms: O3_29  and  C1_31 
ROOT
ATOM      1  O15 H1S d  68     -23.950  -5.268   5.114  0.00  0.00    -0.369 OA
ATOM      2  S20 H1S d  68     -21.232  -4.023   3.452  0.00  0.00     0.156 S 
ATOM      3  C7  H1S d  68     -22.880  -0.386   9.092  0.00  0.00     0.167 C 
ATOM      4  C10 H1S d  68     -23.362  -4.448   6.146  0.00  0.00     0.147 C 
ATOM      5  C6  H1S d  68     -22.710  -4.523   9.700  0.00  0.00     0.067 C 
ATOM      6  S16 H1S d  68     -21.560  -5.403  11.845  0.00  0.00     0.251 S 
ATOM      7  O13 H1S d  68     -24.012   0.188   8.356  0.00  0.00    -0.311 OA
ATOM      8  C19 H1S d  68     -24.460   1.346   8.954  0.00  0.00     0.147 C 
ATOM      9  O34 H1S d  68     -26.458   2.702   9.431  0.00  0.00    -0.642 OA
ATOM     10  C27 H1S d  68     -25.997   1.659   8.907  0.00  0.00     0.233 C 
ATOM     11  C8  H1S d  68     -22.724  -3.235   5.454  0.00  0.00     0.081 C 
ATOM     12  O22 H1S d  68     -20.490  -5.013  12.832  0.00  0.00    -0.572 OA
ATOM     13  O23 H1S d  68     -21.212  -6.790  11.342  0.00  0.00    -0.572 OA
ATOM     14  O9  H1S d  68     -24.120  -1.510   6.121  0.00  0.00    -0.391 OA
ATOM     15  O21 H1S d  68     -22.905  -5.449  12.555  0.00  0.00    -0.572 OA
ATOM     16  C24 H1S d  68     -23.525   2.210   9.580  0.00  0.00    -0.034 C 
ATOM     17  O35 H1S d  68     -26.716   0.831   8.333  0.00  0.00    -0.642 OA
ATOM     18  S26 H1S d  68     -19.793  -0.967   7.862  0.00  0.00     0.252 S 
ATOM     19  O25 H1S d  68     -21.239   3.079   9.192  0.00  0.00    -0.389 OA
ATOM     20  C12 H1S d  68     -21.708   0.597   8.771  0.00  0.00     0.135 C 
ATOM     21  C17 H1S d  68     -21.988   1.897   9.618  0.00  0.00     0.086 C 
ATOM     22  O5  H1S d  68     -22.449  -5.023   7.181  0.00  0.00    -0.350 OA
ATOM     23  C2  H1S d  68     -22.291  -4.033   8.268  0.00  0.00     0.091 C 
ATOM     24  O18 H1S d  68     -20.350  -0.012   8.906  0.00  0.00    -0.244 OA
ATOM     25  O28 H1S d  68     -21.390  -5.517   3.573  0.00  0.00    -0.296 OA
ATOM     26  N14 H1S d  68     -21.294  -3.419   5.034  0.00  0.00    -0.210 NA
ATOM     27  O31 H1S d  68     -20.389  -0.711   6.489  0.00  0.00    -0.572 OA
ATOM     28  O11 H1S d  68     -21.616  -4.440  10.704  0.00  0.00    -0.254 OA
ATOM     29  O3  H1S d  68     -22.531  -1.817   8.992  0.00  0.00    -0.348 OA
ATOM     30  C4  H1S d  68     -22.897  -2.142   6.475  0.00  0.00     0.083 C 
ATOM     31  C1  H1S d  68     -23.037  -2.692   7.937  0.00  0.00     0.095 C 
ATOM     32  O33 H1S d  68     -20.067  -2.393   8.271  0.00  0.00    -0.572 OA
ATOM     33  O30 H1S d  68     -22.392  -3.394   2.720  0.00  0.00    -0.296 OA
ATOM     34  O32 H1S d  68     -18.276  -0.882   7.810  0.00  0.00    -0.572 OA
ATOM     35  O29 H1S d  68     -19.970  -3.733   2.687  0.00  0.00    -0.296 OA
ATOM     36  H   H1S d  68     -24.364  -6.047   5.517  0.00  0.00     0.212 HD
ATOM     37  H   H1S d  68     -23.165  -0.453  10.121  0.00  0.00     0.134 H 
ATOM     38  H   H1S d  68     -24.194  -4.230   6.782  0.00  0.00     0.131 H 
ATOM     39  H   H1S d  68     -23.027  -5.543   9.628  0.00  0.00     0.080 H 
ATOM     40  H   H1S d  68     -23.492  -3.875  10.035  0.00  0.00     0.080 H 
ATOM     41  H   H1S d  68     -23.191  -3.029   4.514  0.00  0.00     0.076 H 
ATOM     42  H   H1S d  68     -24.055  -1.163   5.218  0.00  0.00     0.210 HD
ATOM     43  H   H1S d  68     -23.868   3.075  10.026  0.00  0.00     0.085 H 
ATOM     44  H   H1S d  68     -21.469   3.830   9.761  0.00  0.00     0.210 HD
ATOM     45  H   H1S d  68     -21.685   0.861   7.734  0.00  0.00     0.097 H 
ATOM     46  H   H1S d  68     -21.651   1.684  10.610  0.00  0.00     0.093 H 
ATOM     47  H   H1S d  68     -21.233  -3.874   8.311  0.00  0.00     0.090 H 
ATOM     48  H   H1S d  68     -20.629  -5.885   4.047  0.00  0.00     0.231 HD
ATOM     49  H   H1S d  68     -20.811  -2.521   5.073  0.00  0.00     0.140 HD
ATOM     50  H   H1S d  68     -22.045  -1.496   6.471  0.00  0.00     0.089 H 
ATOM     51  H   H1S d  68     -24.102  -2.804   7.937  0.00  0.00     0.091 H 
ATOM     52  H   H1S d  68     -23.214  -3.573   3.204  0.00  0.00     0.231 HD
ATOM     53  H   H1S d  68     -19.214  -4.132   3.146  0.00  0.00     0.231 HD
ENDROOT
TORSDOF 16
ENDMDL
MODEL 49
REMARK VINA RESULT:      -5.8      3.169      5.199
REMARK  0 active torsions:
REMARK  status: ('A' for Active; 'I' for Inactive)
REMARK       I    between atoms: O15_1  and  C10_4 
REMARK       I    between atoms: S20_2  and  N14_26 
REMARK       I    between atoms: S20_2  and  O28_25 
REMARK       I    between atoms: S20_2  and  O29_35 
REMARK       I    between atoms: S20_2  and  O30_33 
REMARK       I    between atoms: C7_3  and  O3_29 
REMARK       I    between atoms: C6_5  and  C2_23 
REMARK       I    between atoms: C6_5  and  O11_28 
REMARK       I    between atoms: S16_6  and  O11_28 
REMARK       I    between atoms: C19_8  and  C27_10 
REMARK       I    between atoms: C8_11  and  N14_26 
REMARK       I    between atoms: O9_14  and  C4_30 
REMARK       I    between atoms: S26_18  and  O18_24 
REMARK       I    between atoms: O25_19  and  C17_21 
REMARK       I    between atoms: C12_20  and  O18_24 
REMARK       I    between atoms: O3_29  and  C1_31 
ROOT
ATOM      1  O15 H1S d  68     -24.560   2.921   6.681  0.00  0.00    -0.369 OA
ATOM      2  S20 H1S d  68     -21.975   4.154   8.552  0.00  0.00     0.156 S 
ATOM      3  C7  H1S d  68     -22.921  -2.645   9.355  0.00  0.00     0.167 C 
ATOM      4  C10 H1S d  68     -23.843   1.704   6.976  0.00  0.00     0.147 C 
ATOM      5  C6  H1S d  68     -22.846  -1.376   5.368  0.00  0.00     0.067 C 
ATOM      6  S16 H1S d  68     -21.523  -2.793   3.653  0.00  0.00     0.251 S 
ATOM      7  O13 H1S d  68     -24.099  -2.354  10.182  0.00  0.00    -0.311 OA
ATOM      8  C19 H1S d  68     -24.441  -3.438  10.960  0.00  0.00     0.147 C 
ATOM      9  O34 H1S d  68     -26.331  -4.663  11.954  0.00  0.00    -0.642 OA
ATOM     10  C27 H1S d  68     -25.963  -3.694  11.247  0.00  0.00     0.233 C 
ATOM     11  C8  H1S d  68     -23.231   1.864   8.375  0.00  0.00     0.081 C 
ATOM     12  O22 H1S d  68     -20.347  -3.733   3.585  0.00  0.00    -0.572 OA
ATOM     13  O23 H1S d  68     -21.278  -1.705   2.627  0.00  0.00    -0.572 OA
ATOM     14  O9  H1S d  68     -24.490   0.372   9.624  0.00  0.00    -0.391 OA
ATOM     15  O21 H1S d  68     -22.792  -3.550   3.290  0.00  0.00    -0.572 OA
ATOM     16  C24 H1S d  68     -23.418  -4.274  11.474  0.00  0.00    -0.034 C 
ATOM     17  O35 H1S d  68     -26.766  -2.896  10.744  0.00  0.00    -0.642 OA
ATOM     18  S26 H1S d  68     -19.994  -0.967   9.397  0.00  0.00     0.252 S 
ATOM     19  O25 H1S d  68     -21.151  -4.064  12.447  0.00  0.00    -0.389 OA
ATOM     20  C12 H1S d  68     -21.751  -2.660  10.391  0.00  0.00     0.135 C 
ATOM     21  C17 H1S d  68     -21.898  -4.011  11.190  0.00  0.00     0.086 C 
ATOM     22  O5  H1S d  68     -22.854   1.123   6.016  0.00  0.00    -0.350 OA
ATOM     23  C2  H1S d  68     -22.552  -0.263   6.436  0.00  0.00     0.091 C 
ATOM     24  O18 H1S d  68     -20.410  -2.374   9.798  0.00  0.00    -0.244 OA
ATOM     25  O28 H1S d  68     -22.176   4.677   7.152  0.00  0.00    -0.296 OA
ATOM     26  N14 H1S d  68     -21.857   2.469   8.406  0.00  0.00    -0.210 NA
ATOM     27  O31 H1S d  68     -20.713   0.088  10.219  0.00  0.00    -0.572 OA
ATOM     28  O11 H1S d  68     -21.655  -2.196   5.016  0.00  0.00    -0.254 OA
ATOM     29  O3  H1S d  68     -22.637  -1.897   8.114  0.00  0.00    -0.348 OA
ATOM     30  C4  H1S d  68     -23.262   0.457   8.913  0.00  0.00     0.083 C 
ATOM     31  C1  H1S d  68     -23.278  -0.627   7.780  0.00  0.00     0.095 C 
ATOM     32  O33 H1S d  68     -20.279  -0.743   7.933  0.00  0.00    -0.572 OA
ATOM     33  O30 H1S d  68     -23.178   4.414   9.425  0.00  0.00    -0.296 OA
ATOM     34  O32 H1S d  68     -18.488  -0.798   9.511  0.00  0.00    -0.572 OA
ATOM     35  O29 H1S d  68     -20.785   4.846   9.158  0.00  0.00    -0.296 OA
ATOM     36  H   H1S d  68     -24.961   2.855   5.801  0.00  0.00     0.212 HD
ATOM     37  H   H1S d  68     -23.106  -3.566   8.845  0.00  0.00     0.134 H 
ATOM     38  H   H1S d  68     -24.599   0.952   6.887  0.00  0.00     0.131 H 
ATOM     39  H   H1S d  68     -23.206  -0.903   4.478  0.00  0.00     0.080 H 
ATOM     40  H   H1S d  68     -23.566  -2.039   5.798  0.00  0.00     0.080 H 
ATOM     41  H   H1S d  68     -23.781   2.567   8.966  0.00  0.00     0.076 H 
ATOM     42  H   H1S d  68     -24.501   1.036  10.331  0.00  0.00     0.210 HD
ATOM     43  H   H1S d  68     -23.683  -5.085  12.055  0.00  0.00     0.085 H 
ATOM     44  H   H1S d  68     -21.295  -4.923  12.873  0.00  0.00     0.210 HD
ATOM     45  H   H1S d  68     -21.821  -1.844  11.080  0.00  0.00     0.097 H 
ATOM     46  H   H1S d  68     -21.472  -4.771  10.570  0.00  0.00     0.093 H 
ATOM     47  H   H1S d  68     -21.490  -0.259   6.571  0.00  0.00     0.090 H 
ATOM     48  H   H1S d  68     -21.385   4.492   6.622  0.00  0.00     0.231 HD
ATOM     49  H   H1S d  68     -21.341   2.095   9.202  0.00  0.00     0.140 HD
ATOM     50  H   H1S d  68     -22.391   0.271   9.505  0.00  0.00     0.089 H 
ATOM     51  H   H1S d  68     -24.340  -0.690   7.670  0.00  0.00     0.091 H 
ATOM     52  H   H1S d  68     -23.954   3.973   9.046  0.00  0.00     0.231 HD
ATOM     53  H   H1S d  68     -20.002   4.687   8.607  0.00  0.00     0.231 HD
ENDROOT
TORSDOF 16
ENDMDL
MODEL 50
REMARK VINA RESULT:      -5.7      3.159      5.125
REMARK  0 active torsions:
REMARK  status: ('A' for Active; 'I' for Inactive)
REMARK       I    between atoms: O15_1  and  C10_4 
REMARK       I    between atoms: S20_2  and  N14_26 
REMARK       I    between atoms: S20_2  and  O28_25 
REMARK       I    between atoms: S20_2  and  O29_35 
REMARK       I    between atoms: S20_2  and  O30_33 
REMARK       I    between atoms: C7_3  and  O3_29 
REMARK       I    between atoms: C6_5  and  C2_23 
REMARK       I    between atoms: C6_5  and  O11_28 
REMARK       I    between atoms: S16_6  and  O11_28 
REMARK       I    between atoms: C19_8  and  C27_10 
REMARK       I    between atoms: C8_11  and  N14_26 
REMARK       I    between atoms: O9_14  and  C4_30 
REMARK       I    between atoms: S26_18  and  O18_24 
REMARK       I    between atoms: O25_19  and  C17_21 
REMARK       I    between atoms: C12_20  and  O18_24 
REMARK       I    between atoms: O3_29  and  C1_31 
ROOT
ATOM      1  O15 H1S d  68     -16.225   0.156   9.337  0.00  0.00    -0.369 OA
ATOM      2  S20 H1S d  68     -17.176   3.438   9.500  0.00  0.00     0.156 S 
ATOM      3  C7  H1S d  68     -21.547  -0.492   5.865  0.00  0.00     0.167 C 
ATOM      4  C10 H1S d  68     -17.617   0.046   8.978  0.00  0.00     0.147 C 
ATOM      5  C6  H1S d  68     -20.465  -2.098   9.575  0.00  0.00     0.067 C 
ATOM      6  S16 H1S d  68     -22.312  -3.175  11.033  0.00  0.00     0.251 S 
ATOM      7  O13 H1S d  68     -20.576  -0.503   4.764  0.00  0.00    -0.311 OA
ATOM      8  C19 H1S d  68     -21.176  -0.852   3.574  0.00  0.00     0.147 C 
ATOM      9  O34 H1S d  68     -20.838  -2.031   1.440  0.00  0.00    -0.642 OA
ATOM     10  C27 H1S d  68     -20.343  -1.690   2.541  0.00  0.00     0.233 C 
ATOM     11  C8  H1S d  68     -17.988   1.316   8.199  0.00  0.00     0.081 C 
ATOM     12  O22 H1S d  68     -23.797  -3.083  11.281  0.00  0.00    -0.572 OA
ATOM     13  O23 H1S d  68     -21.631  -3.026  12.378  0.00  0.00    -0.572 OA
ATOM     14  O9  H1S d  68     -18.287   0.495   6.053  0.00  0.00    -0.391 OA
ATOM     15  O21 H1S d  68     -21.985  -4.542  10.451  0.00  0.00    -0.572 OA
ATOM     16  C24 H1S d  68     -22.510  -0.442   3.323  0.00  0.00    -0.034 C 
ATOM     17  O35 H1S d  68     -19.188  -1.991   2.871  0.00  0.00    -0.642 OA
ATOM     18  S26 H1S d  68     -22.312   2.149   7.820  0.00  0.00     0.252 S 
ATOM     19  O25 H1S d  68     -23.947   1.544   3.674  0.00  0.00    -0.389 OA
ATOM     20  C12 H1S d  68     -22.407   0.779   5.571  0.00  0.00     0.135 C 
ATOM     21  C17 H1S d  68     -23.337   0.402   4.355  0.00  0.00     0.086 C 
ATOM     22  O5  H1S d  68     -18.665  -0.295   9.988  0.00  0.00    -0.350 OA
ATOM     23  C2  H1S d  68     -19.906  -0.663   9.272  0.00  0.00     0.091 C 
ATOM     24  O18 H1S d  68     -23.079   1.350   6.777  0.00  0.00    -0.244 OA
ATOM     25  O28 H1S d  68     -16.585   2.789  10.725  0.00  0.00    -0.296 OA
ATOM     26  N14 H1S d  68     -18.481   2.459   9.039  0.00  0.00    -0.210 NA
ATOM     27  O31 H1S d  68     -21.094   2.831   7.222  0.00  0.00    -0.572 OA
ATOM     28  O11 H1S d  68     -21.856  -2.099  10.103  0.00  0.00    -0.254 OA
ATOM     29  O3  H1S d  68     -21.130  -0.643   7.273  0.00  0.00    -0.348 OA
ATOM     30  C4  H1S d  68     -19.023   0.817   7.225  0.00  0.00     0.083 C 
ATOM     31  C1  H1S d  68     -19.748  -0.482   7.720  0.00  0.00     0.095 C 
ATOM     32  O33 H1S d  68     -21.879   1.244   8.946  0.00  0.00    -0.572 OA
ATOM     33  O30 H1S d  68     -16.213   3.423   8.338  0.00  0.00    -0.296 OA
ATOM     34  O32 H1S d  68     -23.218   3.168   8.491  0.00  0.00    -0.572 OA
ATOM     35  O29 H1S d  68     -17.510   4.868   9.826  0.00  0.00    -0.296 OA
ATOM     36  H   H1S d  68     -15.955  -0.632   9.833  0.00  0.00     0.212 HD
ATOM     37  H   H1S d  68     -22.069  -1.425   5.843  0.00  0.00     0.134 H 
ATOM     38  H   H1S d  68     -17.649  -0.864   8.415  0.00  0.00     0.131 H 
ATOM     39  H   H1S d  68     -19.828  -2.563  10.299  0.00  0.00     0.080 H 
ATOM     40  H   H1S d  68     -20.482  -2.629   8.646  0.00  0.00     0.080 H 
ATOM     41  H   H1S d  68     -17.131   1.756   7.734  0.00  0.00     0.076 H 
ATOM     42  H   H1S d  68     -17.831   1.287   5.730  0.00  0.00     0.210 HD
ATOM     43  H   H1S d  68     -22.953  -0.708   2.430  0.00  0.00     0.085 H 
ATOM     44  H   H1S d  68     -24.500   1.226   2.943  0.00  0.00     0.210 HD
ATOM     45  H   H1S d  68     -21.798   1.614   5.292  0.00  0.00     0.097 H 
ATOM     46  H   H1S d  68     -24.150  -0.158   4.765  0.00  0.00     0.093 H 
ATOM     47  H   H1S d  68     -20.631   0.022   9.658  0.00  0.00     0.090 H 
ATOM     48  H   H1S d  68     -17.230   2.817  11.449  0.00  0.00     0.231 HD
ATOM     49  H   H1S d  68     -19.147   3.013   8.500  0.00  0.00     0.140 HD
ATOM     50  H   H1S d  68     -19.783   1.558   7.085  0.00  0.00     0.089 H 
ATOM     51  H   H1S d  68     -19.066  -1.187   7.292  0.00  0.00     0.091 H 
ATOM     52  H   H1S d  68     -15.988   2.505   8.117  0.00  0.00     0.231 HD
ATOM     53  H   H1S d  68     -18.130   4.893  10.572  0.00  0.00     0.231 HD
ENDROOT
TORSDOF 16
ENDMDL
MODEL 51
REMARK VINA RESULT:      -5.7      2.951      4.449
REMARK  0 active torsions:
REMARK  status: ('A' for Active; 'I' for Inactive)
REMARK       I    between atoms: O15_1  and  C10_4 
REMARK       I    between atoms: S20_2  and  N14_26 
REMARK       I    between atoms: S20_2  and  O28_25 
REMARK       I    between atoms: S20_2  and  O29_35 
REMARK       I    between atoms: S20_2  and  O30_33 
REMARK       I    between atoms: C7_3  and  O3_29 
REMARK       I    between atoms: C6_5  and  C2_23 
REMARK       I    between atoms: C6_5  and  O11_28 
REMARK       I    between atoms: S16_6  and  O11_28 
REMARK       I    between atoms: C19_8  and  C27_10 
REMARK       I    between atoms: C8_11  and  N14_26 
REMARK       I    between atoms: O9_14  and  C4_30 
REMARK       I    between atoms: S26_18  and  O18_24 
REMARK       I    between atoms: O25_19  and  C17_21 
REMARK       I    between atoms: C12_20  and  O18_24 
REMARK       I    between atoms: O3_29  and  C1_31 
ROOT
ATOM      1  O15 H1S d  68     -16.464   1.337   7.545  0.00  0.00    -0.369 OA
ATOM      2  S20 H1S d  68     -17.367   4.198   9.190  0.00  0.00     0.156 S 
ATOM      3  C7  H1S d  68     -22.686   1.013   6.137  0.00  0.00     0.167 C 
ATOM      4  C10 H1S d  68     -17.886   1.130   7.674  0.00  0.00     0.147 C 
ATOM      5  C6  H1S d  68     -20.240  -1.512   8.408  0.00  0.00     0.067 C 
ATOM      6  S16 H1S d  68     -21.370  -3.278   9.925  0.00  0.00     0.251 S 
ATOM      7  O13 H1S d  68     -22.204   1.511   4.844  0.00  0.00    -0.311 OA
ATOM      8  C19 H1S d  68     -23.202   1.473   3.893  0.00  0.00     0.147 C 
ATOM      9  O34 H1S d  68     -23.667   1.115   1.503  0.00  0.00    -0.642 OA
ATOM     10  C27 H1S d  68     -22.800   1.156   2.409  0.00  0.00     0.233 C 
ATOM     11  C8  H1S d  68     -18.556   2.509   7.581  0.00  0.00     0.081 C 
ATOM     12  O22 H1S d  68     -22.652  -3.506  10.686  0.00  0.00    -0.572 OA
ATOM     13  O23 H1S d  68     -20.233  -3.465  10.910  0.00  0.00    -0.572 OA
ATOM     14  O9  H1S d  68     -19.625   2.388   5.529  0.00  0.00    -0.391 OA
ATOM     15  O21 H1S d  68     -21.252  -4.315   8.818  0.00  0.00    -0.572 OA
ATOM     16  C24 H1S d  68     -24.541   1.727   4.282  0.00  0.00    -0.034 C 
ATOM     17  O35 H1S d  68     -21.599   0.951   2.189  0.00  0.00    -0.642 OA
ATOM     18  S26 H1S d  68     -22.722   2.727   9.043  0.00  0.00     0.252 S 
ATOM     19  O25 H1S d  68     -25.789   3.241   5.793  0.00  0.00    -0.389 OA
ATOM     20  C12 H1S d  68     -23.626   2.159   6.635  0.00  0.00     0.135 C 
ATOM     21  C17 H1S d  68     -24.936   2.052   5.765  0.00  0.00     0.086 C 
ATOM     22  O5  H1S d  68     -18.464   0.322   8.791  0.00  0.00    -0.350 OA
ATOM     23  C2  H1S d  68     -19.874   0.014   8.465  0.00  0.00     0.091 C 
ATOM     24  O18 H1S d  68     -23.805   2.197   8.117  0.00  0.00    -0.244 OA
ATOM     25  O28 H1S d  68     -16.339   3.290   9.817  0.00  0.00    -0.296 OA
ATOM     26  N14 H1S d  68     -18.723   3.227   8.890  0.00  0.00    -0.210 NA
ATOM     27  O31 H1S d  68     -21.838   3.748   8.348  0.00  0.00    -0.572 OA
ATOM     28  O11 H1S d  68     -21.327  -1.902   9.345  0.00  0.00    -0.254 OA
ATOM     29  O3  H1S d  68     -21.763   0.484   7.161  0.00  0.00    -0.348 OA
ATOM     30  C4  H1S d  68     -19.870   2.194   6.916  0.00  0.00     0.083 C 
ATOM     31  C1  H1S d  68     -20.320   0.708   7.129  0.00  0.00     0.095 C 
ATOM     32  O33 H1S d  68     -21.871   1.587   9.547  0.00  0.00    -0.572 OA
ATOM     33  O30 H1S d  68     -16.915   4.710   7.844  0.00  0.00    -0.296 OA
ATOM     34  O32 H1S d  68     -23.332   3.319  10.303  0.00  0.00    -0.572 OA
ATOM     35  O29 H1S d  68     -17.589   5.374  10.099  0.00  0.00    -0.296 OA
ATOM     36  H   H1S d  68     -16.006   0.484   7.600  0.00  0.00     0.212 HD
ATOM     37  H   H1S d  68     -23.154   0.067   5.965  0.00  0.00     0.134 H 
ATOM     38  H   H1S d  68     -18.104   0.458   6.872  0.00  0.00     0.131 H 
ATOM     39  H   H1S d  68     -19.365  -2.079   8.650  0.00  0.00     0.080 H 
ATOM     40  H   H1S d  68     -20.594  -1.711   7.418  0.00  0.00     0.080 H 
ATOM     41  H   H1S d  68     -17.950   3.204   7.039  0.00  0.00     0.076 H 
ATOM     42  H   H1S d  68     -19.344   3.303   5.375  0.00  0.00     0.210 HD
ATOM     43  H   H1S d  68     -25.282   1.698   3.565  0.00  0.00     0.085 H 
ATOM     44  H   H1S d  68     -26.568   3.093   5.236  0.00  0.00     0.210 HD
ATOM     45  H   H1S d  68     -23.189   3.123   6.481  0.00  0.00     0.097 H 
ATOM     46  H   H1S d  68     -25.520   1.269   6.202  0.00  0.00     0.093 H 
ATOM     47  H   H1S d  68     -20.416   0.414   9.297  0.00  0.00     0.090 H 
ATOM     48  H   H1S d  68     -16.663   2.982  10.677  0.00  0.00     0.231 HD
ATOM     49  H   H1S d  68     -19.557   3.813   8.850  0.00  0.00     0.140 HD
ATOM     50  H   H1S d  68     -20.644   2.811   7.321  0.00  0.00     0.089 H 
ATOM     51  H   H1S d  68     -19.833   0.295   6.270  0.00  0.00     0.091 H 
ATOM     52  H   H1S d  68     -16.767   3.961   7.246  0.00  0.00     0.231 HD
ATOM     53  H   H1S d  68     -17.880   5.060  10.970  0.00  0.00     0.231 HD
ENDROOT
TORSDOF 16
ENDMDL
MODEL 52
REMARK VINA RESULT:      -5.7      3.259      6.712
REMARK  0 active torsions:
REMARK  status: ('A' for Active; 'I' for Inactive)
REMARK       I    between atoms: O15_1  and  C10_4 
REMARK       I    between atoms: S20_2  and  N14_26 
REMARK       I    between atoms: S20_2  and  O28_25 
REMARK       I    between atoms: S20_2  and  O29_35 
REMARK       I    between atoms: S20_2  and  O30_33 
REMARK       I    between atoms: C7_3  and  O3_29 
REMARK       I    between atoms: C6_5  and  C2_23 
REMARK       I    between atoms: C6_5  and  O11_28 
REMARK       I    between atoms: S16_6  and  O11_28 
REMARK       I    between atoms: C19_8  and  C27_10 
REMARK       I    between atoms: C8_11  and  N14_26 
REMARK       I    between atoms: O9_14  and  C4_30 
REMARK       I    between atoms: S26_18  and  O18_24 
REMARK       I    between atoms: O25_19  and  C17_21 
REMARK       I    between atoms: C12_20  and  O18_24 
REMARK       I    between atoms: O3_29  and  C1_31 
ROOT
ATOM      1  O15 H1S d  68     -20.751  -4.278   8.334  0.00  0.00    -0.369 OA
ATOM      2  S20 H1S d  68     -23.157  -2.967  10.383  0.00  0.00     0.156 S 
ATOM      3  C7  H1S d  68     -19.107   1.839   7.510  0.00  0.00     0.167 C 
ATOM      4  C10 H1S d  68     -20.764  -2.908   7.883  0.00  0.00     0.147 C 
ATOM      5  C6  H1S d  68     -20.581  -1.004   4.817  0.00  0.00     0.067 C 
ATOM      6  S16 H1S d  68     -21.452  -0.186   2.521  0.00  0.00     0.251 S 
ATOM      7  O13 H1S d  68     -18.042   1.460   8.447  0.00  0.00    -0.311 OA
ATOM      8  C19 H1S d  68     -17.093   2.454   8.550  0.00  0.00     0.147 C 
ATOM      9  O34 H1S d  68     -14.693   2.895   8.873  0.00  0.00    -0.642 OA
ATOM     10  C27 H1S d  68     -15.597   2.031   8.766  0.00  0.00     0.233 C 
ATOM     11  C8  H1S d  68     -21.073  -2.030   9.105  0.00  0.00     0.081 C 
ATOM     12  O22 H1S d  68     -22.064   1.033   1.878  0.00  0.00    -0.572 OA
ATOM     13  O23 H1S d  68     -22.370  -1.353   2.217  0.00  0.00    -0.572 OA
ATOM     14  O9  H1S d  68     -19.047  -0.962   9.456  0.00  0.00    -0.391 OA
ATOM     15  O21 H1S d  68     -20.086  -0.446   1.902  0.00  0.00    -0.572 OA
ATOM     16  C24 H1S d  68     -17.497   3.810   8.465  0.00  0.00    -0.034 C 
ATOM     17  O35 H1S d  68     -15.365   0.816   8.824  0.00  0.00    -0.642 OA
ATOM     18  S26 H1S d  68     -22.393   2.096   8.228  0.00  0.00     0.252 S 
ATOM     19  O25 H1S d  68     -19.354   5.255   9.236  0.00  0.00    -0.389 OA
ATOM     20  C12 H1S d  68     -19.898   2.937   8.292  0.00  0.00     0.135 C 
ATOM     21  C17 H1S d  68     -18.994   4.229   8.257  0.00  0.00     0.086 C 
ATOM     22  O5  H1S d  68     -21.563  -2.479   6.694  0.00  0.00    -0.350 OA
ATOM     23  C2  H1S d  68     -21.112  -1.130   6.289  0.00  0.00     0.091 C 
ATOM     24  O18 H1S d  68     -21.315   3.098   7.847  0.00  0.00    -0.244 OA
ATOM     25  O28 H1S d  68     -23.512  -4.133   9.495  0.00  0.00    -0.296 OA
ATOM     26  N14 H1S d  68     -22.531  -1.774   9.355  0.00  0.00    -0.210 NA
ATOM     27  O31 H1S d  68     -22.072   1.392   9.535  0.00  0.00    -0.572 OA
ATOM     28  O11 H1S d  68     -21.319  -0.006   3.998  0.00  0.00    -0.254 OA
ATOM     29  O3  H1S d  68     -19.951   0.829   6.841  0.00  0.00    -0.348 OA
ATOM     30  C4  H1S d  68     -20.300  -0.771   8.813  0.00  0.00     0.083 C 
ATOM     31  C1  H1S d  68     -20.037  -0.561   7.281  0.00  0.00     0.095 C 
ATOM     32  O33 H1S d  68     -22.554   1.071   7.133  0.00  0.00    -0.572 OA
ATOM     33  O30 H1S d  68     -22.047  -3.313  11.344  0.00  0.00    -0.296 OA
ATOM     34  O32 H1S d  68     -23.753   2.771   8.306  0.00  0.00    -0.572 OA
ATOM     35  O29 H1S d  68     -24.374  -2.579  11.177  0.00  0.00    -0.296 OA
ATOM     36  H   H1S d  68     -20.559  -4.863   7.585  0.00  0.00     0.212 HD
ATOM     37  H   H1S d  68     -18.639   2.156   6.602  0.00  0.00     0.134 H 
ATOM     38  H   H1S d  68     -19.788  -2.784   7.463  0.00  0.00     0.131 H 
ATOM     39  H   H1S d  68     -20.669  -1.961   4.343  0.00  0.00     0.080 H 
ATOM     40  H   H1S d  68     -19.567  -0.670   4.878  0.00  0.00     0.080 H 
ATOM     41  H   H1S d  68     -20.788  -2.512  10.017  0.00  0.00     0.076 H 
ATOM     42  H   H1S d  68     -19.187  -1.094  10.406  0.00  0.00     0.210 HD
ATOM     43  H   H1S d  68     -16.780   4.549   8.543  0.00  0.00     0.085 H 
ATOM     44  H   H1S d  68     -18.753   6.011   9.148  0.00  0.00     0.210 HD
ATOM     45  H   H1S d  68     -20.060   2.659   9.312  0.00  0.00     0.097 H 
ATOM     46  H   H1S d  68     -19.152   4.677   7.299  0.00  0.00     0.093 H 
ATOM     47  H   H1S d  68     -22.007  -0.545   6.329  0.00  0.00     0.090 H 
ATOM     48  H   H1S d  68     -24.226  -3.874   8.893  0.00  0.00     0.231 HD
ATOM     49  H   H1S d  68     -22.644  -0.858   9.791  0.00  0.00     0.140 HD
ATOM     50  H   H1S d  68     -20.848   0.083   9.150  0.00  0.00     0.089 H 
ATOM     51  H   H1S d  68     -19.109  -1.093   7.230  0.00  0.00     0.091 H 
ATOM     52  H   H1S d  68     -21.254  -3.566  10.845  0.00  0.00     0.231 HD
ATOM     53  H   H1S d  68     -25.097  -2.353  10.571  0.00  0.00     0.231 HD
ENDROOT
TORSDOF 16
ENDMDL
MODEL 53
REMARK VINA RESULT:      -5.7      3.528      4.927
REMARK  0 active torsions:
REMARK  status: ('A' for Active; 'I' for Inactive)
REMARK       I    between atoms: O15_1  and  C10_4 
REMARK       I    between atoms: S20_2  and  N14_26 
REMARK       I    between atoms: S20_2  and  O28_25 
REMARK       I    between atoms: S20_2  and  O29_35 
REMARK       I    between atoms: S20_2  and  O30_33 
REMARK       I    between atoms: C7_3  and  O3_29 
REMARK       I    between atoms: C6_5  and  C2_23 
REMARK       I    between atoms: C6_5  and  O11_28 
REMARK       I    between atoms: S16_6  and  O11_28 
REMARK       I    between atoms: C19_8  and  C27_10 
REMARK       I    between atoms: C8_11  and  N14_26 
REMARK       I    between atoms: O9_14  and  C4_30 
REMARK       I    between atoms: S26_18  and  O18_24 
REMARK       I    between atoms: O25_19  and  C17_21 
REMARK       I    between atoms: C12_20  and  O18_24 
REMARK       I    between atoms: O3_29  and  C1_31 
ROOT
ATOM      1  O15 H1S d  68     -19.606   2.415   1.522  0.00  0.00    -0.369 OA
ATOM      2  S20 H1S d  68     -16.505   3.060   2.815  0.00  0.00     0.156 S 
ATOM      3  C7  H1S d  68     -20.949   0.585   7.493  0.00  0.00     0.167 C 
ATOM      4  C10 H1S d  68     -19.657   1.633   2.734  0.00  0.00     0.147 C 
ATOM      5  C6  H1S d  68     -20.843  -1.572   3.909  0.00  0.00     0.067 C 
ATOM      6  S16 H1S d  68     -20.851  -4.157   4.030  0.00  0.00     0.251 S 
ATOM      7  O13 H1S d  68     -21.603   1.899   7.525  0.00  0.00    -0.311 OA
ATOM      8  C19 H1S d  68     -22.359   2.052   8.667  0.00  0.00     0.147 C 
ATOM      9  O34 H1S d  68     -24.412   3.056   9.581  0.00  0.00    -0.642 OA
ATOM     10  C27 H1S d  68     -23.688   2.881   8.571  0.00  0.00     0.233 C 
ATOM     11  C8  H1S d  68     -18.837   2.384   3.794  0.00  0.00     0.081 C 
ATOM     12  O22 H1S d  68     -20.435  -5.278   4.949  0.00  0.00    -0.572 OA
ATOM     13  O23 H1S d  68     -20.214  -4.432   2.683  0.00  0.00    -0.572 OA
ATOM     14  O9  H1S d  68     -20.485   3.113   5.250  0.00  0.00    -0.391 OA
ATOM     15  O21 H1S d  68     -22.365  -4.167   3.882  0.00  0.00    -0.572 OA
ATOM     16  C24 H1S d  68     -21.912   1.467   9.878  0.00  0.00    -0.034 C 
ATOM     17  O35 H1S d  68     -23.976   3.344   7.458  0.00  0.00    -0.642 OA
ATOM     18  S26 H1S d  68     -17.628   0.017   7.325  0.00  0.00     0.252 S 
ATOM     19  O25 H1S d  68     -19.792   1.120  11.110  0.00  0.00    -0.389 OA
ATOM     20  C12 H1S d  68     -19.836   0.713   8.582  0.00  0.00     0.135 C 
ATOM     21  C17 H1S d  68     -20.578   0.645   9.971  0.00  0.00     0.086 C 
ATOM     22  O5  H1S d  68     -19.341   0.172   2.740  0.00  0.00    -0.350 OA
ATOM     23  C2  H1S d  68     -19.803  -0.402   4.023  0.00  0.00     0.091 C 
ATOM     24  O18 H1S d  68     -18.687  -0.223   8.390  0.00  0.00    -0.244 OA
ATOM     25  O28 H1S d  68     -16.609   2.457   1.438  0.00  0.00    -0.296 OA
ATOM     26  N14 H1S d  68     -17.378   2.031   3.840  0.00  0.00    -0.210 NA
ATOM     27  O31 H1S d  68     -17.482   1.492   6.997  0.00  0.00    -0.572 OA
ATOM     28  O11 H1S d  68     -20.396  -2.835   4.555  0.00  0.00    -0.254 OA
ATOM     29  O3  H1S d  68     -20.507  -0.035   6.228  0.00  0.00    -0.348 OA
ATOM     30  C4  H1S d  68     -19.561   2.048   5.071  0.00  0.00     0.083 C 
ATOM     31  C1  H1S d  68     -20.370   0.709   4.978  0.00  0.00     0.095 C 
ATOM     32  O33 H1S d  68     -17.978  -0.744   6.070  0.00  0.00    -0.572 OA
ATOM     33  O30 H1S d  68     -17.189   4.403   2.892  0.00  0.00    -0.296 OA
ATOM     34  O32 H1S d  68     -16.292  -0.570   7.752  0.00  0.00    -0.572 OA
ATOM     35  O29 H1S d  68     -15.051   3.244   3.152  0.00  0.00    -0.296 OA
ATOM     36  H   H1S d  68     -20.115   1.969   0.828  0.00  0.00     0.212 HD
ATOM     37  H   H1S d  68     -21.701  -0.153   7.677  0.00  0.00     0.134 H 
ATOM     38  H   H1S d  68     -20.706   1.562   2.930  0.00  0.00     0.131 H 
ATOM     39  H   H1S d  68     -21.019  -1.767   2.871  0.00  0.00     0.080 H 
ATOM     40  H   H1S d  68     -21.728  -1.255   4.420  0.00  0.00     0.080 H 
ATOM     41  H   H1S d  68     -18.790   3.432   3.584  0.00  0.00     0.076 H 
ATOM     42  H   H1S d  68     -20.004   3.952   5.310  0.00  0.00     0.210 HD
ATOM     43  H   H1S d  68     -22.483   1.585  10.729  0.00  0.00     0.085 H 
ATOM     44  H   H1S d  68     -20.319   1.044  11.921  0.00  0.00     0.210 HD
ATOM     45  H   H1S d  68     -19.320   1.648   8.514  0.00  0.00     0.097 H 
ATOM     46  H   H1S d  68     -20.762  -0.391  10.160  0.00  0.00     0.093 H 
ATOM     47  H   H1S d  68     -18.917  -0.836   4.437  0.00  0.00     0.090 H 
ATOM     48  H   H1S d  68     -16.160   1.598   1.427  0.00  0.00     0.231 HD
ATOM     49  H   H1S d  68     -17.036   2.134   4.796  0.00  0.00     0.140 HD
ATOM     50  H   H1S d  68     -18.860   1.928   5.870  0.00  0.00     0.089 H 
ATOM     51  H   H1S d  68     -21.286   1.130   4.618  0.00  0.00     0.091 H 
ATOM     52  H   H1S d  68     -18.129   4.300   2.676  0.00  0.00     0.231 HD
ATOM     53  H   H1S d  68     -14.597   2.387   3.107  0.00  0.00     0.231 HD
ENDROOT
TORSDOF 16
ENDMDL
MODEL 54
REMARK VINA RESULT:      -5.7      2.408      3.151
REMARK  0 active torsions:
REMARK  status: ('A' for Active; 'I' for Inactive)
REMARK       I    between atoms: O15_1  and  C10_4 
REMARK       I    between atoms: S20_2  and  N14_26 
REMARK       I    between atoms: S20_2  and  O28_25 
REMARK       I    between atoms: S20_2  and  O29_35 
REMARK       I    between atoms: S20_2  and  O30_33 
REMARK       I    between atoms: C7_3  and  O3_29 
REMARK       I    between atoms: C6_5  and  C2_23 
REMARK       I    between atoms: C6_5  and  O11_28 
REMARK       I    between atoms: S16_6  and  O11_28 
REMARK       I    between atoms: C19_8  and  C27_10 
REMARK       I    between atoms: C8_11  and  N14_26 
REMARK       I    between atoms: O9_14  and  C4_30 
REMARK       I    between atoms: S26_18  and  O18_24 
REMARK       I    between atoms: O25_19  and  C17_21 
REMARK       I    between atoms: C12_20  and  O18_24 
REMARK       I    between atoms: O3_29  and  C1_31 
ROOT
ATOM      1  O15 H1S d  68     -20.342  -0.339   2.656  0.00  0.00    -0.369 OA
ATOM      2  S20 H1S d  68     -18.361   1.943   4.258  0.00  0.00     0.156 S 
ATOM      3  C7  H1S d  68     -22.731  -1.326   8.498  0.00  0.00     0.167 C 
ATOM      4  C10 H1S d  68     -20.475  -0.787   4.021  0.00  0.00     0.147 C 
ATOM      5  C6  H1S d  68     -20.611  -3.856   5.924  0.00  0.00     0.067 C 
ATOM      6  S16 H1S d  68     -19.637  -6.052   6.887  0.00  0.00     0.251 S 
ATOM      7  O13 H1S d  68     -23.821  -0.503   7.962  0.00  0.00    -0.311 OA
ATOM      8  C19 H1S d  68     -24.905  -0.497   8.813  0.00  0.00     0.147 C 
ATOM      9  O34 H1S d  68     -27.363  -0.420   8.913  0.00  0.00    -0.642 OA
ATOM     10  C27 H1S d  68     -26.342  -0.434   8.184  0.00  0.00     0.233 C 
ATOM     11  C8  H1S d  68     -20.416   0.460   4.916  0.00  0.00     0.081 C 
ATOM     12  O22 H1S d  68     -19.139  -6.628   8.189  0.00  0.00    -0.572 OA
ATOM     13  O23 H1S d  68     -18.539  -6.260   5.864  0.00  0.00    -0.572 OA
ATOM     14  O9  H1S d  68     -22.596   0.602   5.688  0.00  0.00    -0.391 OA
ATOM     15  O21 H1S d  68     -20.883  -6.806   6.450  0.00  0.00    -0.572 OA
ATOM     16  C24 H1S d  68     -24.688  -0.540  10.213  0.00  0.00    -0.034 C 
ATOM     17  O35 H1S d  68     -26.407  -0.400   6.948  0.00  0.00    -0.642 OA
ATOM     18  S26 H1S d  68     -19.601  -0.278   9.197  0.00  0.00     0.252 S 
ATOM     19  O25 H1S d  68     -23.136   0.415  11.890  0.00  0.00    -0.389 OA
ATOM     20  C12 H1S d  68     -22.183  -0.469   9.684  0.00  0.00     0.135 C 
ATOM     21  C17 H1S d  68     -23.250  -0.595  10.838  0.00  0.00     0.086 C 
ATOM     22  O5  H1S d  68     -19.628  -1.889   4.573  0.00  0.00    -0.350 OA
ATOM     23  C2  H1S d  68     -20.219  -2.338   5.853  0.00  0.00     0.091 C 
ATOM     24  O18 H1S d  68     -20.765  -0.767  10.045  0.00  0.00    -0.244 OA
ATOM     25  O28 H1S d  68     -17.760   1.096   3.166  0.00  0.00    -0.296 OA
ATOM     26  N14 H1S d  68     -19.040   0.857   5.368  0.00  0.00    -0.210 NA
ATOM     27  O31 H1S d  68     -19.952   0.989   8.437  0.00  0.00    -0.572 OA
ATOM     28  O11 H1S d  68     -19.941  -4.596   7.027  0.00  0.00    -0.254 OA
ATOM     29  O3  H1S d  68     -21.691  -1.907   7.624  0.00  0.00    -0.348 OA
ATOM     30  C4  H1S d  68     -21.323   0.090   6.060  0.00  0.00     0.083 C 
ATOM     31  C1  H1S d  68     -21.458  -1.460   6.253  0.00  0.00     0.095 C 
ATOM     32  O33 H1S d  68     -19.189  -1.352   8.220  0.00  0.00    -0.572 OA
ATOM     33  O30 H1S d  68     -19.504   2.787   3.748  0.00  0.00    -0.296 OA
ATOM     34  O32 H1S d  68     -18.364  -0.062  10.053  0.00  0.00    -0.572 OA
ATOM     35  O29 H1S d  68     -17.296   2.857   4.800  0.00  0.00    -0.296 OA
ATOM     36  H   H1S d  68     -20.375  -1.104   2.061  0.00  0.00     0.212 HD
ATOM     37  H   H1S d  68     -23.144  -2.277   8.760  0.00  0.00     0.134 H 
ATOM     38  H   H1S d  68     -21.411  -1.304   4.015  0.00  0.00     0.131 H 
ATOM     39  H   H1S d  68     -20.344  -4.318   4.996  0.00  0.00     0.080 H 
ATOM     40  H   H1S d  68     -21.664  -3.898   6.114  0.00  0.00     0.080 H 
ATOM     41  H   H1S d  68     -20.721   1.338   4.386  0.00  0.00     0.076 H 
ATOM     42  H   H1S d  68     -22.535   1.562   5.563  0.00  0.00     0.210 HD
ATOM     43  H   H1S d  68     -25.504  -0.535  10.844  0.00  0.00     0.085 H 
ATOM     44  H   H1S d  68     -23.825   0.267  12.557  0.00  0.00     0.210 HD
ATOM     45  H   H1S d  68     -22.088   0.563   9.416  0.00  0.00     0.097 H 
ATOM     46  H   H1S d  68     -23.060  -1.532  11.317  0.00  0.00     0.093 H 
ATOM     47  H   H1S d  68     -19.423  -2.207   6.556  0.00  0.00     0.090 H 
ATOM     48  H   H1S d  68     -17.031   0.570   3.529  0.00  0.00     0.231 HD
ATOM     49  H   H1S d  68     -19.100   1.302   6.284  0.00  0.00     0.140 HD
ATOM     50  H   H1S d  68     -20.936   0.482   6.977  0.00  0.00     0.089 H 
ATOM     51  H   H1S d  68     -22.292  -1.605   5.599  0.00  0.00     0.091 H 
ATOM     52  H   H1S d  68     -20.199   2.209   3.395  0.00  0.00     0.231 HD
ATOM     53  H   H1S d  68     -16.554   2.328   5.132  0.00  0.00     0.231 HD
ENDROOT
TORSDOF 16
ENDMDL
MODEL 55
REMARK VINA RESULT:      -5.7      2.905      6.569
REMARK  0 active torsions:
REMARK  status: ('A' for Active; 'I' for Inactive)
REMARK       I    between atoms: O15_1  and  C10_4 
REMARK       I    between atoms: S20_2  and  N14_26 
REMARK       I    between atoms: S20_2  and  O28_25 
REMARK       I    between atoms: S20_2  and  O29_35 
REMARK       I    between atoms: S20_2  and  O30_33 
REMARK       I    between atoms: C7_3  and  O3_29 
REMARK       I    between atoms: C6_5  and  C2_23 
REMARK       I    between atoms: C6_5  and  O11_28 
REMARK       I    between atoms: S16_6  and  O11_28 
REMARK       I    between atoms: C19_8  and  C27_10 
REMARK       I    between atoms: C8_11  and  N14_26 
REMARK       I    between atoms: O9_14  and  C4_30 
REMARK       I    between atoms: S26_18  and  O18_24 
REMARK       I    between atoms: O25_19  and  C17_21 
REMARK       I    between atoms: C12_20  and  O18_24 
REMARK       I    between atoms: O3_29  and  C1_31 
ROOT
ATOM      1  O15 H1S d  68     -18.381   0.913   9.269  0.00  0.00    -0.369 OA
ATOM      2  S20 H1S d  68     -18.709   2.489   6.251  0.00  0.00     0.156 S 
ATOM      3  C7  H1S d  68     -21.199  -3.958   6.247  0.00  0.00     0.167 C 
ATOM      4  C10 H1S d  68     -19.389   0.088   8.649  0.00  0.00     0.147 C 
ATOM      5  C6  H1S d  68     -22.457  -1.628   9.487  0.00  0.00     0.067 C 
ATOM      6  S16 H1S d  68     -24.942  -1.754  10.200  0.00  0.00     0.251 S 
ATOM      7  O13 H1S d  68     -19.820  -4.460   6.212  0.00  0.00    -0.311 OA
ATOM      8  C19 H1S d  68     -19.777  -5.767   5.780  0.00  0.00     0.147 C 
ATOM      9  O34 H1S d  68     -18.601  -7.915   6.034  0.00  0.00    -0.642 OA
ATOM     10  C27 H1S d  68     -18.689  -6.716   6.396  0.00  0.00     0.233 C 
ATOM     11  C8  H1S d  68     -19.087   0.057   7.144  0.00  0.00     0.081 C 
ATOM     12  O22 H1S d  68     -26.304  -2.039   9.618  0.00  0.00    -0.572 OA
ATOM     13  O23 H1S d  68     -25.030  -0.409  10.893  0.00  0.00    -0.572 OA
ATOM     14  O9  H1S d  68     -18.381  -2.129   6.839  0.00  0.00    -0.391 OA
ATOM     15  O21 H1S d  68     -24.601  -2.827  11.224  0.00  0.00    -0.572 OA
ATOM     16  C24 H1S d  68     -20.702  -6.205   4.799  0.00  0.00    -0.034 C 
ATOM     17  O35 H1S d  68     -17.935  -6.222   7.245  0.00  0.00    -0.642 OA
ATOM     18  S26 H1S d  68     -22.395  -1.301   4.545  0.00  0.00     0.252 S 
ATOM     19  O25 H1S d  68     -21.755  -5.363   2.722  0.00  0.00    -0.389 OA
ATOM     20  C12 H1S d  68     -21.558  -3.792   4.735  0.00  0.00     0.135 C 
ATOM     21  C17 H1S d  68     -21.783  -5.250   4.180  0.00  0.00     0.086 C 
ATOM     22  O5  H1S d  68     -20.846   0.303   8.905  0.00  0.00    -0.350 OA
ATOM     23  C2  H1S d  68     -21.587  -0.880   8.415  0.00  0.00     0.091 C 
ATOM     24  O18 H1S d  68     -22.644  -2.800   4.473  0.00  0.00    -0.244 OA
ATOM     25  O28 H1S d  68     -18.947   3.276   7.514  0.00  0.00    -0.296 OA
ATOM     26  N14 H1S d  68     -19.738   1.145   6.340  0.00  0.00    -0.210 NA
ATOM     27  O31 H1S d  68     -20.947  -0.955   4.244  0.00  0.00    -0.572 OA
ATOM     28  O11 H1S d  68     -23.899  -1.716   9.132  0.00  0.00    -0.254 OA
ATOM     29  O3  H1S d  68     -21.593  -2.821   7.103  0.00  0.00    -0.348 OA
ATOM     30  C4  H1S d  68     -19.546  -1.320   6.743  0.00  0.00     0.083 C 
ATOM     31  C1  H1S d  68     -20.630  -1.907   7.712  0.00  0.00     0.095 C 
ATOM     32  O33 H1S d  68     -22.760  -0.784   5.915  0.00  0.00    -0.572 OA
ATOM     33  O30 H1S d  68     -17.306   1.935   6.193  0.00  0.00    -0.296 OA
ATOM     34  O32 H1S d  68     -23.329  -0.554   3.607  0.00  0.00    -0.572 OA
ATOM     35  O29 H1S d  68     -18.914   3.398   5.071  0.00  0.00    -0.296 OA
ATOM     36  H   H1S d  68     -18.541   0.956  10.225  0.00  0.00     0.212 HD
ATOM     37  H   H1S d  68     -21.786  -4.666   6.792  0.00  0.00     0.134 H 
ATOM     38  H   H1S d  68     -19.282  -0.846   9.159  0.00  0.00     0.131 H 
ATOM     39  H   H1S d  68     -22.370  -1.105  10.417  0.00  0.00     0.080 H 
ATOM     40  H   H1S d  68     -22.087  -2.630   9.546  0.00  0.00     0.080 H 
ATOM     41  H   H1S d  68     -18.053   0.244   6.947  0.00  0.00     0.076 H 
ATOM     42  H   H1S d  68     -17.697  -1.783   6.246  0.00  0.00     0.210 HD
ATOM     43  H   H1S d  68     -20.664  -7.185   4.480  0.00  0.00     0.085 H 
ATOM     44  H   H1S d  68     -21.901  -6.287   2.466  0.00  0.00     0.210 HD
ATOM     45  H   H1S d  68     -20.761  -3.335   4.186  0.00  0.00     0.097 H 
ATOM     46  H   H1S d  68     -22.773  -5.530   4.472  0.00  0.00     0.093 H 
ATOM     47  H   H1S d  68     -22.280  -0.468   7.711  0.00  0.00     0.090 H 
ATOM     48  H   H1S d  68     -19.856   3.615   7.516  0.00  0.00     0.231 HD
ATOM     49  H   H1S d  68     -19.929   0.802   5.398  0.00  0.00     0.140 HD
ATOM     50  H   H1S d  68     -19.989  -1.291   5.769  0.00  0.00     0.089 H 
ATOM     51  H   H1S d  68     -19.956  -2.376   8.398  0.00  0.00     0.091 H 
ATOM     52  H   H1S d  68     -17.159   1.346   6.949  0.00  0.00     0.231 HD
ATOM     53  H   H1S d  68     -19.813   3.761   5.095  0.00  0.00     0.231 HD
ENDROOT
TORSDOF 16
ENDMDL
MODEL 56
REMARK VINA RESULT:      -5.7      2.117      2.290
REMARK  0 active torsions:
REMARK  status: ('A' for Active; 'I' for Inactive)
REMARK       I    between atoms: O15_1  and  C10_4 
REMARK       I    between atoms: S20_2  and  N14_26 
REMARK       I    between atoms: S20_2  and  O28_25 
REMARK       I    between atoms: S20_2  and  O29_35 
REMARK       I    between atoms: S20_2  and  O30_33 
REMARK       I    between atoms: C7_3  and  O3_29 
REMARK       I    between atoms: C6_5  and  C2_23 
REMARK       I    between atoms: C6_5  and  O11_28 
REMARK       I    between atoms: S16_6  and  O11_28 
REMARK       I    between atoms: C19_8  and  C27_10 
REMARK       I    between atoms: C8_11  and  N14_26 
REMARK       I    between atoms: O9_14  and  C4_30 
REMARK       I    between atoms: S26_18  and  O18_24 
REMARK       I    between atoms: O25_19  and  C17_21 
REMARK       I    between atoms: C12_20  and  O18_24 
REMARK       I    between atoms: O3_29  and  C1_31 
ROOT
ATOM      1  O15 H1S d  68     -18.220  -0.474   4.933  0.00  0.00    -0.369 OA
ATOM      2  S20 H1S d  68     -18.318   1.660   7.605  0.00  0.00     0.156 S 
ATOM      3  C7  H1S d  68     -23.920  -2.357   7.115  0.00  0.00     0.167 C 
ATOM      4  C10 H1S d  68     -19.233  -1.109   5.740  0.00  0.00     0.147 C 
ATOM      5  C6  H1S d  68     -20.292  -4.411   6.757  0.00  0.00     0.067 C 
ATOM      6  S16 H1S d  68     -20.031  -6.669   7.995  0.00  0.00     0.251 S 
ATOM      7  O13 H1S d  68     -24.387  -1.521   6.003  0.00  0.00    -0.311 OA
ATOM      8  C19 H1S d  68     -25.740  -1.681   5.794  0.00  0.00     0.147 C 
ATOM      9  O34 H1S d  68     -27.500  -1.734   4.074  0.00  0.00    -0.642 OA
ATOM     10  C27 H1S d  68     -26.277  -1.601   4.321  0.00  0.00     0.233 C 
ATOM     11  C8  H1S d  68     -19.999   0.007   6.466  0.00  0.00     0.081 C 
ATOM     12  O22 H1S d  68     -20.551  -7.393   9.211  0.00  0.00    -0.572 OA
ATOM     13  O23 H1S d  68     -18.518  -6.685   8.085  0.00  0.00    -0.572 OA
ATOM     14  O9  H1S d  68     -22.061  -0.060   5.412  0.00  0.00    -0.391 OA
ATOM     15  O21 H1S d  68     -20.469  -7.414   6.742  0.00  0.00    -0.572 OA
ATOM     16  C24 H1S d  68     -26.593  -1.904   6.904  0.00  0.00    -0.034 C 
ATOM     17  O35 H1S d  68     -25.437  -1.402   3.433  0.00  0.00    -0.642 OA
ATOM     18  S26 H1S d  68     -22.424  -1.268   9.936  0.00  0.00     0.252 S 
ATOM     19  O25 H1S d  68     -26.864  -1.113   9.235  0.00  0.00    -0.389 OA
ATOM     20  C12 H1S d  68     -24.512  -1.644   8.374  0.00  0.00     0.135 C 
ATOM     21  C17 H1S d  68     -26.053  -1.975   8.376  0.00  0.00     0.086 C 
ATOM     22  O5  H1S d  68     -18.907  -2.234   6.669  0.00  0.00    -0.350 OA
ATOM     23  C2  H1S d  68     -20.171  -2.880   7.084  0.00  0.00     0.091 C 
ATOM     24  O18 H1S d  68     -23.764  -1.921   9.637  0.00  0.00    -0.244 OA
ATOM     25  O28 H1S d  68     -17.011   0.998   7.248  0.00  0.00    -0.296 OA
ATOM     26  N14 H1S d  68     -19.437   0.402   7.802  0.00  0.00    -0.210 NA
ATOM     27  O31 H1S d  68     -22.283   0.073   9.237  0.00  0.00    -0.572 OA
ATOM     28  O11 H1S d  68     -20.530  -5.262   7.954  0.00  0.00    -0.254 OA
ATOM     29  O3  H1S d  68     -22.507  -2.764   7.243  0.00  0.00    -0.348 OA
ATOM     30  C4  H1S d  68     -21.392  -0.558   6.563  0.00  0.00     0.083 C 
ATOM     31  C1  H1S d  68     -21.420  -2.124   6.505  0.00  0.00     0.095 C 
ATOM     32  O33 H1S d  68     -21.299  -2.178   9.506  0.00  0.00    -0.572 OA
ATOM     33  O30 H1S d  68     -18.842   2.510   6.473  0.00  0.00    -0.296 OA
ATOM     34  O32 H1S d  68     -22.223  -1.113  11.434  0.00  0.00    -0.572 OA
ATOM     35  O29 H1S d  68     -18.101   2.540   8.804  0.00  0.00    -0.296 OA
ATOM     36  H   H1S d  68     -17.714  -1.151   4.458  0.00  0.00     0.212 HD
ATOM     37  H   H1S d  68     -24.266  -3.353   6.936  0.00  0.00     0.134 H 
ATOM     38  H   H1S d  68     -19.800  -1.664   5.022  0.00  0.00     0.131 H 
ATOM     39  H   H1S d  68     -19.382  -4.730   6.291  0.00  0.00     0.080 H 
ATOM     40  H   H1S d  68     -21.141  -4.528   6.116  0.00  0.00     0.080 H 
ATOM     41  H   H1S d  68     -19.942   0.933   5.935  0.00  0.00     0.076 H 
ATOM     42  H   H1S d  68     -22.056   0.910   5.428  0.00  0.00     0.210 HD
ATOM     43  H   H1S d  68     -27.604  -2.023   6.740  0.00  0.00     0.085 H 
ATOM     44  H   H1S d  68     -27.794  -1.383   9.179  0.00  0.00     0.210 HD
ATOM     45  H   H1S d  68     -24.389  -0.582   8.322  0.00  0.00     0.097 H 
ATOM     46  H   H1S d  68     -26.145  -2.959   8.785  0.00  0.00     0.093 H 
ATOM     47  H   H1S d  68     -20.150  -2.809   8.152  0.00  0.00     0.090 H 
ATOM     48  H   H1S d  68     -16.706   0.462   7.996  0.00  0.00     0.231 HD
ATOM     49  H   H1S d  68     -20.195   0.715   8.409  0.00  0.00     0.140 HD
ATOM     50  H   H1S d  68     -21.839  -0.277   7.494  0.00  0.00     0.089 H 
ATOM     51  H   H1S d  68     -21.500  -2.218   5.442  0.00  0.00     0.091 H 
ATOM     52  H   H1S d  68     -18.987   1.955   5.692  0.00  0.00     0.231 HD
ATOM     53  H   H1S d  68     -17.763   2.006   9.541  0.00  0.00     0.231 HD
ENDROOT
TORSDOF 16
ENDMDL
MODEL 57
REMARK VINA RESULT:      -5.7      2.963      6.496
REMARK  0 active torsions:
REMARK  status: ('A' for Active; 'I' for Inactive)
REMARK       I    between atoms: O15_1  and  C10_4 
REMARK       I    between atoms: S20_2  and  N14_26 
REMARK       I    between atoms: S20_2  and  O28_25 
REMARK       I    between atoms: S20_2  and  O29_35 
REMARK       I    between atoms: S20_2  and  O30_33 
REMARK       I    between atoms: C7_3  and  O3_29 
REMARK       I    between atoms: C6_5  and  C2_23 
REMARK       I    between atoms: C6_5  and  O11_28 
REMARK       I    between atoms: S16_6  and  O11_28 
REMARK       I    between atoms: C19_8  and  C27_10 
REMARK       I    between atoms: C8_11  and  N14_26 
REMARK       I    between atoms: O9_14  and  C4_30 
REMARK       I    between atoms: S26_18  and  O18_24 
REMARK       I    between atoms: O25_19  and  C17_21 
REMARK       I    between atoms: C12_20  and  O18_24 
REMARK       I    between atoms: O3_29  and  C1_31 
ROOT
ATOM      1  O15 H1S d  68     -24.169  -3.606  11.152  0.00  0.00    -0.369 OA
ATOM      2  S20 H1S d  68     -26.313  -2.157   8.916  0.00  0.00     0.156 S 
ATOM      3  C7  H1S d  68     -19.677  -0.673   7.684  0.00  0.00     0.167 C 
ATOM      4  C10 H1S d  68     -23.258  -3.294  10.077  0.00  0.00     0.147 C 
ATOM      5  C6  H1S d  68     -20.442  -4.737   8.332  0.00  0.00     0.067 C 
ATOM      6  S16 H1S d  68     -19.287  -6.465   6.790  0.00  0.00     0.251 S 
ATOM      7  O13 H1S d  68     -19.704   0.255   8.821  0.00  0.00    -0.311 OA
ATOM      8  C19 H1S d  68     -18.664   1.156   8.751  0.00  0.00     0.147 C 
ATOM      9  O34 H1S d  68     -17.062   2.461  10.090  0.00  0.00    -0.642 OA
ATOM     10  C27 H1S d  68     -18.009   1.637  10.095  0.00  0.00     0.233 C 
ATOM     11  C8  H1S d  68     -23.751  -1.992   9.429  0.00  0.00     0.081 C 
ATOM     12  O22 H1S d  68     -18.731  -6.587   5.393  0.00  0.00    -0.572 OA
ATOM     13  O23 H1S d  68     -20.273  -7.601   6.973  0.00  0.00    -0.572 OA
ATOM     14  O9  H1S d  68     -22.111  -0.485  10.066  0.00  0.00    -0.391 OA
ATOM     15  O21 H1S d  68     -18.154  -6.615   7.795  0.00  0.00    -0.572 OA
ATOM     16  C24 H1S d  68     -18.230   1.619   7.484  0.00  0.00    -0.034 C 
ATOM     17  O35 H1S d  68     -18.472   1.163  11.141  0.00  0.00    -0.642 OA
ATOM     18  S26 H1S d  68     -22.132  -1.110   5.411  0.00  0.00     0.252 S 
ATOM     19  O25 H1S d  68     -19.207   2.305   5.314  0.00  0.00    -0.389 OA
ATOM     20  C12 H1S d  68     -20.125   0.219   6.482  0.00  0.00     0.135 C 
ATOM     21  C17 H1S d  68     -18.893   1.142   6.144  0.00  0.00     0.086 C 
ATOM     22  O5  H1S d  68     -22.886  -4.307   9.043  0.00  0.00    -0.350 OA
ATOM     23  C2  H1S d  68     -21.708  -3.808   8.301  0.00  0.00     0.091 C 
ATOM     24  O18 H1S d  68     -20.721  -0.547   5.346  0.00  0.00    -0.244 OA
ATOM     25  O28 H1S d  68     -26.589  -3.563   9.383  0.00  0.00    -0.296 OA
ATOM     26  N14 H1S d  68     -24.732  -2.171   8.306  0.00  0.00    -0.210 NA
ATOM     27  O31 H1S d  68     -23.018  -0.305   6.345  0.00  0.00    -0.572 OA
ATOM     28  O11 H1S d  68     -19.972  -5.152   6.983  0.00  0.00    -0.254 OA
ATOM     29  O3  H1S d  68     -20.326  -1.998   7.745  0.00  0.00    -0.348 OA
ATOM     30  C4  H1S d  68     -22.470  -1.337   8.986  0.00  0.00     0.083 C 
ATOM     31  C1  H1S d  68     -21.305  -2.364   8.767  0.00  0.00     0.095 C 
ATOM     32  O33 H1S d  68     -22.092  -2.547   5.873  0.00  0.00    -0.572 OA
ATOM     33  O30 H1S d  68     -26.309  -1.176  10.063  0.00  0.00    -0.296 OA
ATOM     34  O32 H1S d  68     -22.747  -1.185   4.024  0.00  0.00    -0.572 OA
ATOM     35  O29 H1S d  68     -27.389  -1.752   7.946  0.00  0.00    -0.296 OA
ATOM     36  H   H1S d  68     -23.887  -4.426  11.587  0.00  0.00     0.212 HD
ATOM     37  H   H1S d  68     -18.690  -1.079   7.623  0.00  0.00     0.134 H 
ATOM     38  H   H1S d  68     -22.313  -3.231  10.574  0.00  0.00     0.131 H 
ATOM     39  H   H1S d  68     -20.683  -5.617   8.891  0.00  0.00     0.080 H 
ATOM     40  H   H1S d  68     -19.651  -4.172   8.778  0.00  0.00     0.080 H 
ATOM     41  H   H1S d  68     -24.326  -1.405  10.114  0.00  0.00     0.076 H 
ATOM     42  H   H1S d  68     -22.820   0.159  10.219  0.00  0.00     0.210 HD
ATOM     43  H   H1S d  68     -17.450   2.294   7.440  0.00  0.00     0.085 H 
ATOM     44  H   H1S d  68     -18.398   2.816   5.155  0.00  0.00     0.210 HD
ATOM     45  H   H1S d  68     -20.959   0.839   6.738  0.00  0.00     0.097 H 
ATOM     46  H   H1S d  68     -18.224   0.544   5.561  0.00  0.00     0.093 H 
ATOM     47  H   H1S d  68     -22.039  -3.797   7.283  0.00  0.00     0.090 H 
ATOM     48  H   H1S d  68     -26.584  -4.163   8.621  0.00  0.00     0.231 HD
ATOM     49  H   H1S d  68     -24.621  -1.410   7.635  0.00  0.00     0.140 HD
ATOM     50  H   H1S d  68     -22.617  -0.835   8.052  0.00  0.00     0.089 H 
ATOM     51  H   H1S d  68     -20.921  -2.346   9.765  0.00  0.00     0.091 H 
ATOM     52  H   H1S d  68     -25.618  -1.426  10.698  0.00  0.00     0.231 HD
ATOM     53  H   H1S d  68     -27.404  -2.374   7.201  0.00  0.00     0.231 HD
ENDROOT
TORSDOF 16
ENDMDL
MODEL 58
REMARK VINA RESULT:      -5.7      4.012      7.922
REMARK  0 active torsions:
REMARK  status: ('A' for Active; 'I' for Inactive)
REMARK       I    between atoms: O15_1  and  C10_4 
REMARK       I    between atoms: S20_2  and  N14_26 
REMARK       I    between atoms: S20_2  and  O28_25 
REMARK       I    between atoms: S20_2  and  O29_35 
REMARK       I    between atoms: S20_2  and  O30_33 
REMARK       I    between atoms: C7_3  and  O3_29 
REMARK       I    between atoms: C6_5  and  C2_23 
REMARK       I    between atoms: C6_5  and  O11_28 
REMARK       I    between atoms: S16_6  and  O11_28 
REMARK       I    between atoms: C19_8  and  C27_10 
REMARK       I    between atoms: C8_11  and  N14_26 
REMARK       I    between atoms: O9_14  and  C4_30 
REMARK       I    between atoms: S26_18  and  O18_24 
REMARK       I    between atoms: O25_19  and  C17_21 
REMARK       I    between atoms: C12_20  and  O18_24 
REMARK       I    between atoms: O3_29  and  C1_31 
ROOT
ATOM      1  O15 H1S d  68     -23.770   3.750  10.440  0.00  0.00    -0.369 OA
ATOM      2  S20 H1S d  68     -24.800   4.871   7.377  0.00  0.00     0.156 S 
ATOM      3  C7  H1S d  68     -18.380   2.313   7.327  0.00  0.00     0.167 C 
ATOM      4  C10 H1S d  68     -22.824   3.079   9.582  0.00  0.00     0.147 C 
ATOM      5  C6  H1S d  68     -21.191  -0.127   9.240  0.00  0.00     0.067 C 
ATOM      6  S16 H1S d  68     -21.118  -2.673   8.786  0.00  0.00     0.251 S 
ATOM      7  O13 H1S d  68     -17.918   3.538   7.992  0.00  0.00    -0.311 OA
ATOM      8  C19 H1S d  68     -16.558   3.701   7.845  0.00  0.00     0.147 C 
ATOM      9  O34 H1S d  68     -14.518   4.533   8.943  0.00  0.00    -0.642 OA
ATOM     10  C27 H1S d  68     -15.757   4.355   9.026  0.00  0.00     0.233 C 
ATOM     11  C8  H1S d  68     -22.546   4.013   8.395  0.00  0.00     0.081 C 
ATOM     12  O22 H1S d  68     -20.702  -3.651   7.715  0.00  0.00    -0.572 OA
ATOM     13  O23 H1S d  68     -22.558  -2.990   9.135  0.00  0.00    -0.572 OA
ATOM     14  O9  H1S d  68     -20.360   4.668   8.799  0.00  0.00    -0.391 OA
ATOM     15  O21 H1S d  68     -20.246  -2.875  10.015  0.00  0.00    -0.572 OA
ATOM     16  C24 H1S d  68     -15.934   3.283   6.642  0.00  0.00    -0.034 C 
ATOM     17  O35 H1S d  68     -16.410   4.680  10.028  0.00  0.00    -0.642 OA
ATOM     18  S26 H1S d  68     -20.675   2.129   4.861  0.00  0.00     0.252 S 
ATOM     19  O25 H1S d  68     -16.382   3.301   4.206  0.00  0.00    -0.389 OA
ATOM     20  C12 H1S d  68     -18.276   2.669   5.809  0.00  0.00     0.135 C 
ATOM     21  C17 H1S d  68     -16.739   2.637   5.460  0.00  0.00     0.086 C 
ATOM     22  O5  H1S d  68     -23.039   1.672   9.125  0.00  0.00    -0.350 OA
ATOM     23  C2  H1S d  68     -21.770   1.164   8.559  0.00  0.00     0.091 C 
ATOM     24  O18 H1S d  68     -19.179   1.862   4.933  0.00  0.00    -0.244 OA
ATOM     25  O28 H1S d  68     -25.784   4.139   8.254  0.00  0.00    -0.296 OA
ATOM     26  N14 H1S d  68     -23.463   3.841   7.219  0.00  0.00    -0.210 NA
ATOM     27  O31 H1S d  68     -21.004   3.577   5.181  0.00  0.00    -0.572 OA
ATOM     28  O11 H1S d  68     -21.003  -1.265   8.301  0.00  0.00    -0.254 OA
ATOM     29  O3  H1S d  68     -19.634   1.640   7.720  0.00  0.00    -0.348 OA
ATOM     30  C4  H1S d  68     -21.108   3.709   8.064  0.00  0.00     0.083 C 
ATOM     31  C1  H1S d  68     -20.665   2.280   8.534  0.00  0.00     0.095 C 
ATOM     32  O33 H1S d  68     -21.407   1.224   5.821  0.00  0.00    -0.572 OA
ATOM     33  O30 H1S d  68     -24.284   6.125   8.039  0.00  0.00    -0.296 OA
ATOM     34  O32 H1S d  68     -21.225   1.746   3.497  0.00  0.00    -0.572 OA
ATOM     35  O29 H1S d  68     -25.489   5.255   6.097  0.00  0.00    -0.296 OA
ATOM     36  H   H1S d  68     -23.970   3.187  11.204  0.00  0.00     0.212 HD
ATOM     37  H   H1S d  68     -17.758   1.510   7.663  0.00  0.00     0.134 H 
ATOM     38  H   H1S d  68     -21.993   2.902  10.232  0.00  0.00     0.131 H 
ATOM     39  H   H1S d  68     -21.866  -0.433  10.012  0.00  0.00     0.080 H 
ATOM     40  H   H1S d  68     -20.224   0.128   9.621  0.00  0.00     0.080 H 
ATOM     41  H   H1S d  68     -22.725   5.036   8.650  0.00  0.00     0.076 H 
ATOM     42  H   H1S d  68     -20.619   5.561   8.524  0.00  0.00     0.210 HD
ATOM     43  H   H1S d  68     -14.915   3.409   6.539  0.00  0.00     0.085 H 
ATOM     44  H   H1S d  68     -15.424   3.236   4.068  0.00  0.00     0.210 HD
ATOM     45  H   H1S d  68     -18.655   3.648   5.604  0.00  0.00     0.097 H 
ATOM     46  H   H1S d  68     -16.486   1.607   5.323  0.00  0.00     0.093 H 
ATOM     47  H   H1S d  68     -22.036   0.876   7.563  0.00  0.00     0.090 H 
ATOM     48  H   H1S d  68     -26.093   3.342   7.797  0.00  0.00     0.231 HD
ATOM     49  H   H1S d  68     -22.960   4.068   6.361  0.00  0.00     0.140 HD
ATOM     50  H   H1S d  68     -20.959   3.744   7.005  0.00  0.00     0.089 H 
ATOM     51  H   H1S d  68     -20.338   2.556   9.514  0.00  0.00     0.091 H 
ATOM     52  H   H1S d  68     -23.836   5.892   8.868  0.00  0.00     0.231 HD
ATOM     53  H   H1S d  68     -25.826   4.458   5.659  0.00  0.00     0.231 HD
ENDROOT
TORSDOF 16
ENDMDL
MODEL 59
REMARK VINA RESULT:      -5.7      3.532      4.657
REMARK  0 active torsions:
REMARK  status: ('A' for Active; 'I' for Inactive)
REMARK       I    between atoms: O15_1  and  C10_4 
REMARK       I    between atoms: S20_2  and  N14_26 
REMARK       I    between atoms: S20_2  and  O28_25 
REMARK       I    between atoms: S20_2  and  O29_35 
REMARK       I    between atoms: S20_2  and  O30_33 
REMARK       I    between atoms: C7_3  and  O3_29 
REMARK       I    between atoms: C6_5  and  C2_23 
REMARK       I    between atoms: C6_5  and  O11_28 
REMARK       I    between atoms: S16_6  and  O11_28 
REMARK       I    between atoms: C19_8  and  C27_10 
REMARK       I    between atoms: C8_11  and  N14_26 
REMARK       I    between atoms: O9_14  and  C4_30 
REMARK       I    between atoms: S26_18  and  O18_24 
REMARK       I    between atoms: O25_19  and  C17_21 
REMARK       I    between atoms: C12_20  and  O18_24 
REMARK       I    between atoms: O3_29  and  C1_31 
ROOT
ATOM      1  O15 H1S d  68     -17.027   3.683   2.907  0.00  0.00    -0.369 OA
ATOM      2  S20 H1S d  68     -15.108   3.422   5.726  0.00  0.00     0.156 S 
ATOM      3  C7  H1S d  68     -21.613   1.277   6.648  0.00  0.00     0.167 C 
ATOM      4  C10 H1S d  68     -17.815   2.751   3.677  0.00  0.00     0.147 C 
ATOM      5  C6  H1S d  68     -19.761  -0.260   3.224  0.00  0.00     0.067 C 
ATOM      6  S16 H1S d  68     -20.089  -2.767   2.671  0.00  0.00     0.251 S 
ATOM      7  O13 H1S d  68     -22.042   2.681   6.666  0.00  0.00    -0.311 OA
ATOM      8  C19 H1S d  68     -23.283   2.814   7.250  0.00  0.00     0.147 C 
ATOM      9  O34 H1S d  68     -25.389   4.087   7.193  0.00  0.00    -0.642 OA
ATOM     10  C27 H1S d  68     -24.250   3.919   6.694  0.00  0.00     0.233 C 
ATOM     11  C8  H1S d  68     -17.646   3.128   5.156  0.00  0.00     0.081 C 
ATOM     12  O22 H1S d  68     -20.362  -4.082   3.357  0.00  0.00    -0.572 OA
ATOM     13  O23 H1S d  68     -18.846  -2.960   1.827  0.00  0.00    -0.572 OA
ATOM     14  O9  H1S d  68     -19.743   3.962   5.683  0.00  0.00    -0.391 OA
ATOM     15  O21 H1S d  68     -21.263  -2.421   1.766  0.00  0.00    -0.572 OA
ATOM     16  C24 H1S d  68     -23.638   1.962   8.327  0.00  0.00    -0.034 C 
ATOM     17  O35 H1S d  68     -23.830   4.602   5.751  0.00  0.00    -0.642 OA
ATOM     18  S26 H1S d  68     -18.824   0.029   8.079  0.00  0.00     0.252 S 
ATOM     19  O25 H1S d  68     -22.596   0.970  10.342  0.00  0.00    -0.389 OA
ATOM     20  C12 H1S d  68     -21.278   0.985   8.146  0.00  0.00     0.135 C 
ATOM     21  C17 H1S d  68     -22.666   0.865   8.884  0.00  0.00     0.086 C 
ATOM     22  O5  H1S d  68     -17.700   1.274   3.479  0.00  0.00    -0.350 OA
ATOM     23  C2  H1S d  68     -18.847   0.621   4.148  0.00  0.00     0.091 C 
ATOM     24  O18 H1S d  68     -20.312  -0.137   8.346  0.00  0.00    -0.244 OA
ATOM     25  O28 H1S d  68     -14.494   3.080   4.393  0.00  0.00    -0.296 OA
ATOM     26  N14 H1S d  68     -16.498   2.461   5.858  0.00  0.00    -0.210 NA
ATOM     27  O31 H1S d  68     -18.378   1.469   8.256  0.00  0.00    -0.572 OA
ATOM     28  O11 H1S d  68     -19.871  -1.676   3.667  0.00  0.00    -0.254 OA
ATOM     29  O3  H1S d  68     -20.610   0.782   5.684  0.00  0.00    -0.348 OA
ATOM     30  C4  H1S d  68     -18.983   2.762   5.746  0.00  0.00     0.083 C 
ATOM     31  C1  H1S d  68     -19.734   1.664   4.916  0.00  0.00     0.095 C 
ATOM     32  O33 H1S d  68     -18.498  -0.430   6.679  0.00  0.00    -0.572 OA
ATOM     33  O30 H1S d  68     -15.585   4.853   5.773  0.00  0.00    -0.296 OA
ATOM     34  O32 H1S d  68     -18.011  -0.896   8.971  0.00  0.00    -0.572 OA
ATOM     35  O29 H1S d  68     -14.071   3.228   6.798  0.00  0.00    -0.296 OA
ATOM     36  H   H1S d  68     -17.110   3.474   1.964  0.00  0.00     0.212 HD
ATOM     37  H   H1S d  68     -22.409   0.702   6.226  0.00  0.00     0.134 H 
ATOM     38  H   H1S d  68     -18.799   2.882   3.279  0.00  0.00     0.131 H 
ATOM     39  H   H1S d  68     -19.354  -0.247   2.234  0.00  0.00     0.080 H 
ATOM     40  H   H1S d  68     -20.745   0.159   3.267  0.00  0.00     0.080 H 
ATOM     41  H   H1S d  68     -17.388   4.160   5.272  0.00  0.00     0.076 H 
ATOM     42  H   H1S d  68     -19.295   4.656   6.191  0.00  0.00     0.210 HD
ATOM     43  H   H1S d  68     -24.569   2.068   8.759  0.00  0.00     0.085 H 
ATOM     44  H   H1S d  68     -23.487   0.886  10.715  0.00  0.00     0.210 HD
ATOM     45  H   H1S d  68     -20.721   1.783   8.590  0.00  0.00     0.097 H 
ATOM     46  H   H1S d  68     -23.025  -0.123   8.684  0.00  0.00     0.093 H 
ATOM     47  H   H1S d  68     -18.384  -0.057   4.835  0.00  0.00     0.090 H 
ATOM     48  H   H1S d  68     -14.200   2.156   4.400  0.00  0.00     0.231 HD
ATOM     49  H   H1S d  68     -16.731   2.335   6.843  0.00  0.00     0.140 HD
ATOM     50  H   H1S d  68     -18.855   2.367   6.732  0.00  0.00     0.089 H 
ATOM     51  H   H1S d  68     -20.253   2.327   4.255  0.00  0.00     0.091 H 
ATOM     52  H   H1S d  68     -16.255   4.993   5.086  0.00  0.00     0.231 HD
ATOM     53  H   H1S d  68     -13.755   2.311   6.780  0.00  0.00     0.231 HD
ENDROOT
TORSDOF 16
ENDMDL
MODEL 60
REMARK VINA RESULT:      -5.7      3.240      6.373
REMARK  0 active torsions:
REMARK  status: ('A' for Active; 'I' for Inactive)
REMARK       I    between atoms: O15_1  and  C10_4 
REMARK       I    between atoms: S20_2  and  N14_26 
REMARK       I    between atoms: S20_2  and  O28_25 
REMARK       I    between atoms: S20_2  and  O29_35 
REMARK       I    between atoms: S20_2  and  O30_33 
REMARK       I    between atoms: C7_3  and  O3_29 
REMARK       I    between atoms: C6_5  and  C2_23 
REMARK       I    between atoms: C6_5  and  O11_28 
REMARK       I    between atoms: S16_6  and  O11_28 
REMARK       I    between atoms: C19_8  and  C27_10 
REMARK       I    between atoms: C8_11  and  N14_26 
REMARK       I    between atoms: O9_14  and  C4_30 
REMARK       I    between atoms: S26_18  and  O18_24 
REMARK       I    between atoms: O25_19  and  C17_21 
REMARK       I    between atoms: C12_20  and  O18_24 
REMARK       I    between atoms: O3_29  and  C1_31 
ROOT
ATOM      1  O15 H1S d  68     -25.744   0.714   9.042  0.00  0.00    -0.369 OA
ATOM      2  S20 H1S d  68     -22.586   2.003   9.305  0.00  0.00     0.156 S 
ATOM      3  C7  H1S d  68     -22.665  -4.819   8.202  0.00  0.00     0.167 C 
ATOM      4  C10 H1S d  68     -24.976  -0.344   8.433  0.00  0.00     0.147 C 
ATOM      5  C6  H1S d  68     -25.148  -2.632   5.640  0.00  0.00     0.067 C 
ATOM      6  S16 H1S d  68     -25.173  -3.252   3.128  0.00  0.00     0.251 S 
ATOM      7  O13 H1S d  68     -23.064  -5.012   9.601  0.00  0.00    -0.311 OA
ATOM      8  C19 H1S d  68     -22.815  -6.302  10.017  0.00  0.00     0.147 C 
ATOM      9  O34 H1S d  68     -23.628  -8.125  11.457  0.00  0.00    -0.642 OA
ATOM     10  C27 H1S d  68     -23.809  -6.955  11.041  0.00  0.00     0.233 C 
ATOM     11  C8  H1S d  68     -23.622  -0.397   9.157  0.00  0.00     0.081 C 
ATOM     12  O22 H1S d  68     -24.282  -3.858   2.072  0.00  0.00    -0.572 OA
ATOM     13  O23 H1S d  68     -25.653  -1.920   2.588  0.00  0.00    -0.572 OA
ATOM     14  O9  H1S d  68     -23.779  -2.392  10.324  0.00  0.00    -0.391 OA
ATOM     15  O21 H1S d  68     -26.369  -4.163   3.357  0.00  0.00    -0.572 OA
ATOM     16  C24 H1S d  68     -21.679  -6.986   9.516  0.00  0.00    -0.034 C 
ATOM     17  O35 H1S d  68     -24.767  -6.261  11.408  0.00  0.00    -0.642 OA
ATOM     18  S26 H1S d  68     -20.404  -2.588   7.063  0.00  0.00     0.252 S 
ATOM     19  O25 H1S d  68     -19.311  -6.515   8.967  0.00  0.00    -0.389 OA
ATOM     20  C12 H1S d  68     -21.104  -4.824   8.270  0.00  0.00     0.135 C 
ATOM     21  C17 H1S d  68     -20.684  -6.326   8.498  0.00  0.00     0.086 C 
ATOM     22  O5  H1S d  68     -24.801  -0.435   6.951  0.00  0.00    -0.350 OA
ATOM     23  C2  H1S d  68     -24.271  -1.777   6.623  0.00  0.00     0.091 C 
ATOM     24  O18 H1S d  68     -20.444  -4.107   7.138  0.00  0.00    -0.244 OA
ATOM     25  O28 H1S d  68     -23.636   2.792   8.566  0.00  0.00    -0.296 OA
ATOM     26  N14 H1S d  68     -22.550   0.475   8.570  0.00  0.00    -0.210 NA
ATOM     27  O31 H1S d  68     -20.467  -1.956   8.443  0.00  0.00    -0.572 OA
ATOM     28  O11 H1S d  68     -24.429  -3.051   4.407  0.00  0.00    -0.254 OA
ATOM     29  O3  H1S d  68     -23.243  -3.747   7.368  0.00  0.00    -0.348 OA
ATOM     30  C4  H1S d  68     -23.277  -1.862   9.105  0.00  0.00     0.083 C 
ATOM     31  C1  H1S d  68     -23.979  -2.612   7.920  0.00  0.00     0.095 C 
ATOM     32  O33 H1S d  68     -21.554  -2.083   6.227  0.00  0.00    -0.572 OA
ATOM     33  O30 H1S d  68     -22.975   1.764  10.743  0.00  0.00    -0.296 OA
ATOM     34  O32 H1S d  68     -19.168  -2.118   6.316  0.00  0.00    -0.572 OA
ATOM     35  O29 H1S d  68     -21.296   2.775   9.279  0.00  0.00    -0.296 OA
ATOM     36  H   H1S d  68     -26.609   0.777   8.608  0.00  0.00     0.212 HD
ATOM     37  H   H1S d  68     -23.110  -5.605   7.629  0.00  0.00     0.134 H 
ATOM     38  H   H1S d  68     -25.601  -1.202   8.564  0.00  0.00     0.131 H 
ATOM     39  H   H1S d  68     -25.999  -2.049   5.353  0.00  0.00     0.080 H 
ATOM     40  H   H1S d  68     -25.422  -3.525   6.162  0.00  0.00     0.080 H 
ATOM     41  H   H1S d  68     -23.692  -0.002  10.148  0.00  0.00     0.076 H 
ATOM     42  H   H1S d  68     -23.356  -1.941  11.071  0.00  0.00     0.210 HD
ATOM     43  H   H1S d  68     -21.500  -7.952   9.831  0.00  0.00     0.085 H 
ATOM     44  H   H1S d  68     -19.135  -7.461   9.080  0.00  0.00     0.210 HD
ATOM     45  H   H1S d  68     -20.741  -4.238   9.089  0.00  0.00     0.097 H 
ATOM     46  H   H1S d  68     -20.728  -6.796   7.538  0.00  0.00     0.093 H 
ATOM     47  H   H1S d  68     -23.363  -1.567   6.098  0.00  0.00     0.090 H 
ATOM     48  H   H1S d  68     -23.353   2.926   7.648  0.00  0.00     0.231 HD
ATOM     49  H   H1S d  68     -21.639   0.045   8.728  0.00  0.00     0.140 HD
ATOM     50  H   H1S d  68     -22.223  -1.987   8.965  0.00  0.00     0.089 H 
ATOM     51  H   H1S d  68     -24.871  -2.883   8.444  0.00  0.00     0.091 H 
ATOM     52  H   H1S d  68     -23.806   1.266  10.775  0.00  0.00     0.231 HD
ATOM     53  H   H1S d  68     -21.033   2.936   8.359  0.00  0.00     0.231 HD
ENDROOT
TORSDOF 16
ENDMDL
MODEL 61
REMARK VINA RESULT:      -5.6      2.984      5.207
REMARK  0 active torsions:
REMARK  status: ('A' for Active; 'I' for Inactive)
REMARK       I    between atoms: O15_1  and  C10_4 
REMARK       I    between atoms: S20_2  and  N14_26 
REMARK       I    between atoms: S20_2  and  O28_25 
REMARK       I    between atoms: S20_2  and  O29_35 
REMARK       I    between atoms: S20_2  and  O30_33 
REMARK       I    between atoms: C7_3  and  O3_29 
REMARK       I    between atoms: C6_5  and  C2_23 
REMARK       I    between atoms: C6_5  and  O11_28 
REMARK       I    between atoms: S16_6  and  O11_28 
REMARK       I    between atoms: C19_8  and  C27_10 
REMARK       I    between atoms: C8_11  and  N14_26 
REMARK       I    between atoms: O9_14  and  C4_30 
REMARK       I    between atoms: S26_18  and  O18_24 
REMARK       I    between atoms: O25_19  and  C17_21 
REMARK       I    between atoms: C12_20  and  O18_24 
REMARK       I    between atoms: O3_29  and  C1_31 
ROOT
ATOM      1  O15 H1S d  68     -19.863  -5.970   4.738  0.00  0.00    -0.369 OA
ATOM      2  S20 H1S d  68     -20.193  -6.846   8.029  0.00  0.00     0.156 S 
ATOM      3  C7  H1S d  68     -21.552  -0.176   6.832  0.00  0.00     0.167 C 
ATOM      4  C10 H1S d  68     -20.661  -4.871   5.225  0.00  0.00     0.147 C 
ATOM      5  C6  H1S d  68     -23.456  -2.820   4.206  0.00  0.00     0.067 C 
ATOM      6  S16 H1S d  68     -25.936  -2.383   3.606  0.00  0.00     0.251 S 
ATOM      7  O13 H1S d  68     -20.111   0.063   6.694  0.00  0.00    -0.311 OA
ATOM      8  C19 H1S d  68     -19.811   1.399   6.846  0.00  0.00     0.147 C 
ATOM      9  O34 H1S d  68     -18.316   3.206   6.099  0.00  0.00    -0.642 OA
ATOM     10  C27 H1S d  68     -18.635   1.997   5.996  0.00  0.00     0.233 C 
ATOM     11  C8  H1S d  68     -20.231  -4.605   6.675  0.00  0.00     0.081 C 
ATOM     12  O22 H1S d  68     -27.176  -1.748   4.184  0.00  0.00    -0.572 OA
ATOM     13  O23 H1S d  68     -26.308  -3.797   3.210  0.00  0.00    -0.572 OA
ATOM     14  O9  H1S d  68     -19.144  -2.567   6.489  0.00  0.00    -0.391 OA
ATOM     15  O21 H1S d  68     -25.508  -1.609   2.368  0.00  0.00    -0.572 OA
ATOM     16  C24 H1S d  68     -20.562   2.179   7.761  0.00  0.00    -0.034 C 
ATOM     17  O35 H1S d  68     -18.051   1.219   5.229  0.00  0.00    -0.642 OA
ATOM     18  S26 H1S d  68     -23.029  -2.191   9.100  0.00  0.00     0.252 S 
ATOM     19  O25 H1S d  68     -21.561   1.961  10.016  0.00  0.00    -0.389 OA
ATOM     20  C12 H1S d  68     -21.803   0.022   8.362  0.00  0.00     0.135 C 
ATOM     21  C17 H1S d  68     -21.732   1.576   8.615  0.00  0.00     0.086 C 
ATOM     22  O5  H1S d  68     -22.150  -4.863   5.092  0.00  0.00    -0.350 OA
ATOM     23  C2  H1S d  68     -22.637  -3.492   5.364  0.00  0.00     0.091 C 
ATOM     24  O18 H1S d  68     -23.015  -0.687   8.875  0.00  0.00    -0.244 OA
ATOM     25  O28 H1S d  68     -20.667  -7.806   6.968  0.00  0.00    -0.296 OA
ATOM     26  N14 H1S d  68     -20.985  -5.380   7.717  0.00  0.00    -0.210 NA
ATOM     27  O31 H1S d  68     -21.640  -2.730   9.394  0.00  0.00    -0.572 OA
ATOM     28  O11 H1S d  68     -24.827  -2.403   4.606  0.00  0.00    -0.254 OA
ATOM     29  O3  H1S d  68     -22.204  -1.366   6.248  0.00  0.00    -0.348 OA
ATOM     30  C4  H1S d  68     -20.416  -3.116   6.807  0.00  0.00     0.083 C 
ATOM     31  C1  H1S d  68     -21.464  -2.541   5.793  0.00  0.00     0.095 C 
ATOM     32  O33 H1S d  68     -23.591  -2.888   7.885  0.00  0.00    -0.572 OA
ATOM     33  O30 H1S d  68     -18.717  -6.557   7.902  0.00  0.00    -0.296 OA
ATOM     34  O32 H1S d  68     -23.992  -2.559  10.217  0.00  0.00    -0.572 OA
ATOM     35  O29 H1S d  68     -20.447  -7.456   9.379  0.00  0.00    -0.296 OA
ATOM     36  H   H1S d  68     -20.108  -6.167   3.821  0.00  0.00     0.212 HD
ATOM     37  H   H1S d  68     -22.056   0.508   6.183  0.00  0.00     0.134 H 
ATOM     38  H   H1S d  68     -20.442  -4.089   4.529  0.00  0.00     0.131 H 
ATOM     39  H   H1S d  68     -23.538  -3.520   3.400  0.00  0.00     0.080 H 
ATOM     40  H   H1S d  68     -22.929  -1.932   3.924  0.00  0.00     0.080 H 
ATOM     41  H   H1S d  68     -19.230  -4.936   6.855  0.00  0.00     0.076 H 
ATOM     42  H   H1S d  68     -18.480  -2.911   7.106  0.00  0.00     0.210 HD
ATOM     43  H   H1S d  68     -20.332   3.179   7.869  0.00  0.00     0.085 H 
ATOM     44  H   H1S d  68     -21.527   2.928  10.084  0.00  0.00     0.210 HD
ATOM     45  H   H1S d  68     -21.051  -0.458   8.952  0.00  0.00     0.097 H 
ATOM     46  H   H1S d  68     -22.682   1.969   8.322  0.00  0.00     0.093 H 
ATOM     47  H   H1S d  68     -23.326  -3.627   6.171  0.00  0.00     0.090 H 
ATOM     48  H   H1S d  68     -21.617  -7.967   7.080  0.00  0.00     0.231 HD
ATOM     49  H   H1S d  68     -21.035  -4.832   8.576  0.00  0.00     0.140 HD
ATOM     50  H   H1S d  68     -20.772  -2.875   7.787  0.00  0.00     0.089 H 
ATOM     51  H   H1S d  68     -20.782  -2.343   4.992  0.00  0.00     0.091 H 
ATOM     52  H   H1S d  68     -18.538  -6.162   7.035  0.00  0.00     0.231 HD
ATOM     53  H   H1S d  68     -21.393  -7.648   9.475  0.00  0.00     0.231 HD
ENDROOT
TORSDOF 16
ENDMDL
MODEL 62
REMARK VINA RESULT:      -5.6      2.704      7.053
REMARK  0 active torsions:
REMARK  status: ('A' for Active; 'I' for Inactive)
REMARK       I    between atoms: O15_1  and  C10_4 
REMARK       I    between atoms: S20_2  and  N14_26 
REMARK       I    between atoms: S20_2  and  O28_25 
REMARK       I    between atoms: S20_2  and  O29_35 
REMARK       I    between atoms: S20_2  and  O30_33 
REMARK       I    between atoms: C7_3  and  O3_29 
REMARK       I    between atoms: C6_5  and  C2_23 
REMARK       I    between atoms: C6_5  and  O11_28 
REMARK       I    between atoms: S16_6  and  O11_28 
REMARK       I    between atoms: C19_8  and  C27_10 
REMARK       I    between atoms: C8_11  and  N14_26 
REMARK       I    between atoms: O9_14  and  C4_30 
REMARK       I    between atoms: S26_18  and  O18_24 
REMARK       I    between atoms: O25_19  and  C17_21 
REMARK       I    between atoms: C12_20  and  O18_24 
REMARK       I    between atoms: O3_29  and  C1_31 
ROOT
ATOM      1  O15 H1S d  68     -21.617   1.139   4.176  0.00  0.00    -0.369 OA
ATOM      2  S20 H1S d  68     -24.375   0.767   6.164  0.00  0.00     0.156 S 
ATOM      3  C7  H1S d  68     -19.839  -4.409   6.796  0.00  0.00     0.167 C 
ATOM      4  C10 H1S d  68     -21.128   0.171   5.127  0.00  0.00     0.147 C 
ATOM      5  C6  H1S d  68     -18.137  -0.591   7.007  0.00  0.00     0.067 C 
ATOM      6  S16 H1S d  68     -16.338  -0.146   8.813  0.00  0.00     0.251 S 
ATOM      7  O13 H1S d  68     -20.291  -4.925   5.499  0.00  0.00    -0.311 OA
ATOM      8  C19 H1S d  68     -19.946  -6.250   5.343  0.00  0.00     0.147 C 
ATOM      9  O34 H1S d  68     -19.253  -7.951   3.704  0.00  0.00    -0.642 OA
ATOM     10  C27 H1S d  68     -19.570  -6.754   3.904  0.00  0.00     0.233 C 
ATOM     11  C8  H1S d  68     -22.316  -0.717   5.522  0.00  0.00     0.081 C 
ATOM     12  O22 H1S d  68     -15.923  -0.626  10.182  0.00  0.00    -0.572 OA
ATOM     13  O23 H1S d  68     -16.497   1.358   8.902  0.00  0.00    -0.572 OA
ATOM     14  O9  H1S d  68     -21.761  -2.736   4.528  0.00  0.00    -0.391 OA
ATOM     15  O21 H1S d  68     -15.241  -0.478   7.812  0.00  0.00    -0.572 OA
ATOM     16  C24 H1S d  68     -19.949  -7.106   6.473  0.00  0.00    -0.034 C 
ATOM     17  O35 H1S d  68     -19.602  -5.914   2.994  0.00  0.00    -0.642 OA
ATOM     18  S26 H1S d  68     -21.797  -3.097   9.211  0.00  0.00     0.252 S 
ATOM     19  O25 H1S d  68     -21.312  -7.512   8.500  0.00  0.00    -0.389 OA
ATOM     20  C12 H1S d  68     -20.805  -5.098   7.813  0.00  0.00     0.135 C 
ATOM     21  C17 H1S d  68     -20.334  -6.600   7.907  0.00  0.00     0.086 C 
ATOM     22  O5  H1S d  68     -20.335   0.580   6.326  0.00  0.00    -0.350 OA
ATOM     23  C2  H1S d  68     -19.703  -0.627   6.904  0.00  0.00     0.091 C 
ATOM     24  O18 H1S d  68     -20.956  -4.360   9.103  0.00  0.00    -0.244 OA
ATOM     25  O28 H1S d  68     -23.775   2.140   6.000  0.00  0.00    -0.296 OA
ATOM     26  N14 H1S d  68     -23.113  -0.231   6.698  0.00  0.00    -0.210 NA
ATOM     27  O31 H1S d  68     -22.904  -3.068   8.172  0.00  0.00    -0.572 OA
ATOM     28  O11 H1S d  68     -17.624  -0.777   8.391  0.00  0.00    -0.254 OA
ATOM     29  O3  H1S d  68     -19.625  -2.966   7.028  0.00  0.00    -0.348 OA
ATOM     30  C4  H1S d  68     -21.664  -2.052   5.771  0.00  0.00     0.083 C 
ATOM     31  C1  H1S d  68     -20.145  -1.927   6.142  0.00  0.00     0.095 C 
ATOM     32  O33 H1S d  68     -20.921  -1.880   9.044  0.00  0.00    -0.572 OA
ATOM     33  O30 H1S d  68     -24.830   0.193   4.844  0.00  0.00    -0.296 OA
ATOM     34  O32 H1S d  68     -22.372  -2.951  10.610  0.00  0.00    -0.572 OA
ATOM     35  O29 H1S d  68     -25.565   0.867   7.078  0.00  0.00    -0.296 OA
ATOM     36  H   H1S d  68     -20.890   1.720   3.902  0.00  0.00     0.212 HD
ATOM     37  H   H1S d  68     -18.802  -4.652   6.896  0.00  0.00     0.134 H 
ATOM     38  H   H1S d  68     -20.345  -0.321   4.588  0.00  0.00     0.131 H 
ATOM     39  H   H1S d  68     -17.796   0.357   6.645  0.00  0.00     0.080 H 
ATOM     40  H   H1S d  68     -17.766  -1.408   6.424  0.00  0.00     0.080 H 
ATOM     41  H   H1S d  68     -23.064  -0.736   4.758  0.00  0.00     0.076 H 
ATOM     42  H   H1S d  68     -22.694  -2.823   4.279  0.00  0.00     0.210 HD
ATOM     43  H   H1S d  68     -19.690  -8.096   6.348  0.00  0.00     0.085 H 
ATOM     44  H   H1S d  68     -20.946  -8.410   8.520  0.00  0.00     0.210 HD
ATOM     45  H   H1S d  68     -21.819  -5.077   7.473  0.00  0.00     0.097 H 
ATOM     46  H   H1S d  68     -19.494  -6.607   8.570  0.00  0.00     0.093 H 
ATOM     47  H   H1S d  68     -20.063  -0.641   7.912  0.00  0.00     0.090 H 
ATOM     48  H   H1S d  68     -23.496   2.476   6.865  0.00  0.00     0.231 HD
ATOM     49  H   H1S d  68     -23.502  -1.031   7.198  0.00  0.00     0.140 HD
ATOM     50  H   H1S d  68     -22.140  -2.548   6.590  0.00  0.00     0.089 H 
ATOM     51  H   H1S d  68     -19.759  -1.970   5.145  0.00  0.00     0.091 H 
ATOM     52  H   H1S d  68     -24.071   0.122   4.244  0.00  0.00     0.231 HD
ATOM     53  H   H1S d  68     -25.288   1.235   7.932  0.00  0.00     0.231 HD
ENDROOT
TORSDOF 16
ENDMDL
MODEL 63
REMARK VINA RESULT:      -5.6      2.940      6.514
REMARK  0 active torsions:
REMARK  status: ('A' for Active; 'I' for Inactive)
REMARK       I    between atoms: O15_1  and  C10_4 
REMARK       I    between atoms: S20_2  and  N14_26 
REMARK       I    between atoms: S20_2  and  O28_25 
REMARK       I    between atoms: S20_2  and  O29_35 
REMARK       I    between atoms: S20_2  and  O30_33 
REMARK       I    between atoms: C7_3  and  O3_29 
REMARK       I    between atoms: C6_5  and  C2_23 
REMARK       I    between atoms: C6_5  and  O11_28 
REMARK       I    between atoms: S16_6  and  O11_28 
REMARK       I    between atoms: C19_8  and  C27_10 
REMARK       I    between atoms: C8_11  and  N14_26 
REMARK       I    between atoms: O9_14  and  C4_30 
REMARK       I    between atoms: S26_18  and  O18_24 
REMARK       I    between atoms: O25_19  and  C17_21 
REMARK       I    between atoms: C12_20  and  O18_24 
REMARK       I    between atoms: O3_29  and  C1_31 
ROOT
ATOM      1  O15 H1S d  68     -18.115  -0.951   3.169  0.00  0.00    -0.369 OA
ATOM      2  S20 H1S d  68     -21.067   0.493   2.219  0.00  0.00     0.156 S 
ATOM      3  C7  H1S d  68     -21.561  -3.113   8.094  0.00  0.00     0.167 C 
ATOM      4  C10 H1S d  68     -18.843  -0.994   4.414  0.00  0.00     0.147 C 
ATOM      5  C6  H1S d  68     -18.303  -0.490   7.951  0.00  0.00     0.067 C 
ATOM      6  S16 H1S d  68     -17.769   0.921  10.054  0.00  0.00     0.251 S 
ATOM      7  O13 H1S d  68     -21.525  -4.349   7.304  0.00  0.00    -0.311 OA
ATOM      8  C19 H1S d  68     -22.018  -5.415   8.026  0.00  0.00     0.147 C 
ATOM      9  O34 H1S d  68     -21.791  -7.835   8.417  0.00  0.00    -0.642 OA
ATOM     10  C27 H1S d  68     -21.377  -6.829   7.792  0.00  0.00     0.233 C 
ATOM     11  C8  H1S d  68     -20.324  -1.206   4.067  0.00  0.00     0.081 C 
ATOM     12  O22 H1S d  68     -18.456   1.521  11.255  0.00  0.00    -0.572 OA
ATOM     13  O23 H1S d  68     -17.018   2.044   9.368  0.00  0.00    -0.572 OA
ATOM     14  O9  H1S d  68     -20.687  -3.372   4.807  0.00  0.00    -0.391 OA
ATOM     15  O21 H1S d  68     -16.778  -0.135  10.520  0.00  0.00    -0.572 OA
ATOM     16  C24 H1S d  68     -23.081  -5.202   8.940  0.00  0.00    -0.034 C 
ATOM     17  O35 H1S d  68     -20.455  -6.892   6.968  0.00  0.00    -0.642 OA
ATOM     18  S26 H1S d  68     -23.207  -0.280   7.287  0.00  0.00     0.252 S 
ATOM     19  O25 H1S d  68     -25.181  -3.898   9.088  0.00  0.00    -0.389 OA
ATOM     20  C12 H1S d  68     -23.084  -2.767   8.150  0.00  0.00     0.135 C 
ATOM     21  C17 H1S d  68     -23.724  -3.789   9.165  0.00  0.00     0.086 C 
ATOM     22  O5  H1S d  68     -18.677   0.063   5.458  0.00  0.00    -0.350 OA
ATOM     23  C2  H1S d  68     -19.274  -0.428   6.720  0.00  0.00     0.091 C 
ATOM     24  O18 H1S d  68     -23.370  -1.319   8.386  0.00  0.00    -0.244 OA
ATOM     25  O28 H1S d  68     -19.786   1.266   2.037  0.00  0.00    -0.296 OA
ATOM     26  N14 H1S d  68     -21.116   0.052   3.855  0.00  0.00    -0.210 NA
ATOM     27  O31 H1S d  68     -23.390  -0.886   5.907  0.00  0.00    -0.572 OA
ATOM     28  O11 H1S d  68     -18.760   0.315   9.116  0.00  0.00    -0.254 OA
ATOM     29  O3  H1S d  68     -20.678  -1.969   7.790  0.00  0.00    -0.348 OA
ATOM     30  C4  H1S d  68     -20.823  -2.022   5.231  0.00  0.00     0.083 C 
ATOM     31  C1  H1S d  68     -19.960  -1.826   6.525  0.00  0.00     0.095 C 
ATOM     32  O33 H1S d  68     -21.841   0.355   7.378  0.00  0.00    -0.572 OA
ATOM     33  O30 H1S d  68     -21.057  -0.800   1.439  0.00  0.00    -0.296 OA
ATOM     34  O32 H1S d  68     -24.168   0.878   7.494  0.00  0.00    -0.572 OA
ATOM     35  O29 H1S d  68     -22.212   1.337   1.731  0.00  0.00    -0.296 OA
ATOM     36  H   H1S d  68     -17.172  -0.818   3.350  0.00  0.00     0.212 HD
ATOM     37  H   H1S d  68     -21.093  -3.317   9.034  0.00  0.00     0.134 H 
ATOM     38  H   H1S d  68     -18.373  -1.800   4.938  0.00  0.00     0.131 H 
ATOM     39  H   H1S d  68     -17.344  -0.126   7.645  0.00  0.00     0.080 H 
ATOM     40  H   H1S d  68     -18.269  -1.511   8.271  0.00  0.00     0.080 H 
ATOM     41  H   H1S d  68     -20.440  -1.687   3.118  0.00  0.00     0.076 H 
ATOM     42  H   H1S d  68     -21.214  -3.514   4.006  0.00  0.00     0.210 HD
ATOM     43  H   H1S d  68     -23.444  -6.005   9.476  0.00  0.00     0.085 H 
ATOM     44  H   H1S d  68     -25.491  -4.544   9.741  0.00  0.00     0.210 HD
ATOM     45  H   H1S d  68     -23.553  -2.890   7.196  0.00  0.00     0.097 H 
ATOM     46  H   H1S d  68     -23.515  -3.408  10.142  0.00  0.00     0.093 H 
ATOM     47  H   H1S d  68     -20.003   0.319   6.959  0.00  0.00     0.090 H 
ATOM     48  H   H1S d  68     -19.829   2.087   2.551  0.00  0.00     0.231 HD
ATOM     49  H   H1S d  68     -22.084  -0.107   4.134  0.00  0.00     0.140 HD
ATOM     50  H   H1S d  68     -21.822  -1.732   5.481  0.00  0.00     0.089 H 
ATOM     51  H   H1S d  68     -19.254  -2.607   6.335  0.00  0.00     0.091 H 
ATOM     52  H   H1S d  68     -20.322  -1.355   1.744  0.00  0.00     0.231 HD
ATOM     53  H   H1S d  68     -22.232   2.172   2.224  0.00  0.00     0.231 HD
ENDROOT
TORSDOF 16
ENDMDL
MODEL 64
REMARK VINA RESULT:      -5.6      2.616      6.563
REMARK  0 active torsions:
REMARK  status: ('A' for Active; 'I' for Inactive)
REMARK       I    between atoms: O15_1  and  C10_4 
REMARK       I    between atoms: S20_2  and  N14_26 
REMARK       I    between atoms: S20_2  and  O28_25 
REMARK       I    between atoms: S20_2  and  O29_35 
REMARK       I    between atoms: S20_2  and  O30_33 
REMARK       I    between atoms: C7_3  and  O3_29 
REMARK       I    between atoms: C6_5  and  C2_23 
REMARK       I    between atoms: C6_5  and  O11_28 
REMARK       I    between atoms: S16_6  and  O11_28 
REMARK       I    between atoms: C19_8  and  C27_10 
REMARK       I    between atoms: C8_11  and  N14_26 
REMARK       I    between atoms: O9_14  and  C4_30 
REMARK       I    between atoms: S26_18  and  O18_24 
REMARK       I    between atoms: O25_19  and  C17_21 
REMARK       I    between atoms: C12_20  and  O18_24 
REMARK       I    between atoms: O3_29  and  C1_31 
ROOT
ATOM      1  O15 H1S d  68     -21.045  -2.371  10.782  0.00  0.00    -0.369 OA
ATOM      2  S20 H1S d  68     -21.300  -4.725   8.313  0.00  0.00     0.156 S 
ATOM      3  C7  H1S d  68     -21.318   1.755   5.913  0.00  0.00     0.167 C 
ATOM      4  C10 H1S d  68     -20.668  -1.588   9.630  0.00  0.00     0.147 C 
ATOM      5  C6  H1S d  68     -18.279   0.950   8.675  0.00  0.00     0.067 C 
ATOM      6  S16 H1S d  68     -15.904   1.856   8.187  0.00  0.00     0.251 S 
ATOM      7  O13 H1S d  68     -22.701   1.895   6.384  0.00  0.00    -0.311 OA
ATOM      8  C19 H1S d  68     -23.336   2.946   5.759  0.00  0.00     0.147 C 
ATOM      9  O34 H1S d  68     -24.998   4.737   6.060  0.00  0.00    -0.642 OA
ATOM     10  C27 H1S d  68     -24.386   3.774   6.582  0.00  0.00     0.233 C 
ATOM     11  C8  H1S d  68     -21.477  -2.116   8.437  0.00  0.00     0.081 C 
ATOM     12  O22 H1S d  68     -15.022   2.235   7.024  0.00  0.00    -0.572 OA
ATOM     13  O23 H1S d  68     -15.125   0.865   9.028  0.00  0.00    -0.572 OA
ATOM     14  O9  H1S d  68     -22.941  -0.365   8.035  0.00  0.00    -0.391 OA
ATOM     15  O21 H1S d  68     -16.200   3.097   9.016  0.00  0.00    -0.572 OA
ATOM     16  C24 H1S d  68     -23.028   3.237   4.406  0.00  0.00    -0.034 C 
ATOM     17  O35 H1S d  68     -24.572   3.426   7.756  0.00  0.00    -0.642 OA
ATOM     18  S26 H1S d  68     -19.982  -0.969   4.438  0.00  0.00     0.252 S 
ATOM     19  O25 H1S d  68     -22.565   2.026   2.297  0.00  0.00    -0.389 OA
ATOM     20  C12 H1S d  68     -21.488   1.193   4.465  0.00  0.00     0.135 C 
ATOM     21  C17 H1S d  68     -21.984   2.403   3.585  0.00  0.00     0.086 C 
ATOM     22  O5  H1S d  68     -19.235  -1.375   9.260  0.00  0.00    -0.350 OA
ATOM     23  C2  H1S d  68     -19.165  -0.281   8.268  0.00  0.00     0.091 C 
ATOM     24  O18 H1S d  68     -20.299   0.440   3.962  0.00  0.00    -0.244 OA
ATOM     25  O28 H1S d  68     -20.376  -4.985   9.475  0.00  0.00    -0.296 OA
ATOM     26  N14 H1S d  68     -20.828  -3.231   7.668  0.00  0.00    -0.210 NA
ATOM     27  O31 H1S d  68     -21.233  -1.710   4.877  0.00  0.00    -0.572 OA
ATOM     28  O11 H1S d  68     -17.180   1.240   7.715  0.00  0.00    -0.254 OA
ATOM     29  O3  H1S d  68     -20.285   1.078   6.721  0.00  0.00    -0.348 OA
ATOM     30  C4  H1S d  68     -21.687  -0.878   7.605  0.00  0.00     0.083 C 
ATOM     31  C1  H1S d  68     -20.597   0.219   7.862  0.00  0.00     0.095 C 
ATOM     32  O33 H1S d  68     -19.001  -0.917   5.584  0.00  0.00    -0.572 OA
ATOM     33  O30 H1S d  68     -22.731  -4.551   8.763  0.00  0.00    -0.296 OA
ATOM     34  O32 H1S d  68     -19.250  -1.750   3.359  0.00  0.00    -0.572 OA
ATOM     35  O29 H1S d  68     -21.234  -5.898   7.373  0.00  0.00    -0.296 OA
ATOM     36  H   H1S d  68     -20.551  -2.064  11.558  0.00  0.00     0.212 HD
ATOM     37  H   H1S d  68     -20.853   2.715   5.990  0.00  0.00     0.134 H 
ATOM     38  H   H1S d  68     -20.896  -0.588   9.934  0.00  0.00     0.131 H 
ATOM     39  H   H1S d  68     -17.846   0.752   9.634  0.00  0.00     0.080 H 
ATOM     40  H   H1S d  68     -18.920   1.807   8.685  0.00  0.00     0.080 H 
ATOM     41  H   H1S d  68     -22.385  -2.585   8.754  0.00  0.00     0.076 H 
ATOM     42  H   H1S d  68     -23.631  -1.030   7.885  0.00  0.00     0.210 HD
ATOM     43  H   H1S d  68     -23.507   4.026   3.945  0.00  0.00     0.085 H 
ATOM     44  H   H1S d  68     -22.843   2.825   1.821  0.00  0.00     0.210 HD
ATOM     45  H   H1S d  68     -22.223   0.416   4.426  0.00  0.00     0.097 H 
ATOM     46  H   H1S d  68     -21.112   2.977   3.351  0.00  0.00     0.093 H 
ATOM     47  H   H1S d  68     -18.673  -0.732   7.431  0.00  0.00     0.090 H 
ATOM     48  H   H1S d  68     -19.469  -5.091   9.149  0.00  0.00     0.231 HD
ATOM     49  H   H1S d  68     -21.113  -3.179   6.690  0.00  0.00     0.140 HD
ATOM     50  H   H1S d  68     -21.638  -1.121   6.564  0.00  0.00     0.089 H 
ATOM     51  H   H1S d  68     -21.098   0.722   8.662  0.00  0.00     0.091 H 
ATOM     52  H   H1S d  68     -22.788  -3.797   9.371  0.00  0.00     0.231 HD
ATOM     53  H   H1S d  68     -20.319  -6.022   7.075  0.00  0.00     0.231 HD
ENDROOT
TORSDOF 16
ENDMDL
MODEL 65
REMARK VINA RESULT:      -5.6      3.107      6.899
REMARK  0 active torsions:
REMARK  status: ('A' for Active; 'I' for Inactive)
REMARK       I    between atoms: O15_1  and  C10_4 
REMARK       I    between atoms: S20_2  and  N14_26 
REMARK       I    between atoms: S20_2  and  O28_25 
REMARK       I    between atoms: S20_2  and  O29_35 
REMARK       I    between atoms: S20_2  and  O30_33 
REMARK       I    between atoms: C7_3  and  O3_29 
REMARK       I    between atoms: C6_5  and  C2_23 
REMARK       I    between atoms: C6_5  and  O11_28 
REMARK       I    between atoms: S16_6  and  O11_28 
REMARK       I    between atoms: C19_8  and  C27_10 
REMARK       I    between atoms: C8_11  and  N14_26 
REMARK       I    between atoms: O9_14  and  C4_30 
REMARK       I    between atoms: S26_18  and  O18_24 
REMARK       I    between atoms: O25_19  and  C17_21 
REMARK       I    between atoms: C12_20  and  O18_24 
REMARK       I    between atoms: O3_29  and  C1_31 
ROOT
ATOM      1  O15 H1S d  68     -20.418  -2.676   9.172  0.00  0.00    -0.369 OA
ATOM      2  S20 H1S d  68     -20.741  -3.513   5.871  0.00  0.00     0.156 S 
ATOM      3  C7  H1S d  68     -21.574   3.243   7.066  0.00  0.00     0.167 C 
ATOM      4  C10 H1S d  68     -20.237  -1.386   8.554  0.00  0.00     0.147 C 
ATOM      5  C6  H1S d  68     -18.193   1.576   8.884  0.00  0.00     0.067 C 
ATOM      6  S16 H1S d  68     -15.972   2.902   8.796  0.00  0.00     0.251 S 
ATOM      7  O13 H1S d  68     -22.903   2.952   7.614  0.00  0.00    -0.311 OA
ATOM      8  C19 H1S d  68     -23.690   4.083   7.638  0.00  0.00     0.147 C 
ATOM      9  O34 H1S d  68     -25.456   5.260   8.885  0.00  0.00    -0.642 OA
ATOM     10  C27 H1S d  68     -24.711   4.253   8.818  0.00  0.00     0.233 C 
ATOM     11  C8  H1S d  68     -21.125  -1.354   7.301  0.00  0.00     0.081 C 
ATOM     12  O22 H1S d  68     -15.257   3.915   7.938  0.00  0.00    -0.572 OA
ATOM     13  O23 H1S d  68     -15.023   1.735   8.982  0.00  0.00    -0.572 OA
ATOM     14  O9  H1S d  68     -22.767   0.162   7.912  0.00  0.00    -0.391 OA
ATOM     15  O21 H1S d  68     -16.279   3.521  10.152  0.00  0.00    -0.572 OA
ATOM     16  C24 H1S d  68     -23.558   5.042   6.602  0.00  0.00    -0.034 C 
ATOM     17  O35 H1S d  68     -24.737   3.350   9.666  0.00  0.00    -0.642 OA
ATOM     18  S26 H1S d  68     -20.180   1.801   4.352  0.00  0.00     0.252 S 
ATOM     19  O25 H1S d  68     -23.227   5.103   4.148  0.00  0.00    -0.389 OA
ATOM     20  C12 H1S d  68     -21.852   3.453   5.543  0.00  0.00     0.135 C 
ATOM     21  C17 H1S d  68     -22.543   4.864   5.419  0.00  0.00     0.086 C 
ATOM     22  O5  H1S d  68     -18.877  -0.835   8.268  0.00  0.00    -0.350 OA
ATOM     23  C2  H1S d  68     -19.009   0.605   7.959  0.00  0.00     0.091 C 
ATOM     24  O18 H1S d  68     -20.666   3.207   4.668  0.00  0.00    -0.244 OA
ATOM     25  O28 H1S d  68     -19.676  -4.192   6.694  0.00  0.00    -0.296 OA
ATOM     26  N14 H1S d  68     -20.471  -1.849   6.043  0.00  0.00    -0.210 NA
ATOM     27  O31 H1S d  68     -21.307   0.786   4.423  0.00  0.00    -0.572 OA
ATOM     28  O11 H1S d  68     -17.234   2.441   8.145  0.00  0.00    -0.254 OA
ATOM     29  O3  H1S d  68     -20.404   2.394   7.368  0.00  0.00    -0.348 OA
ATOM     30  C4  H1S d  68     -21.529   0.095   7.218  0.00  0.00     0.083 C 
ATOM     31  C1  H1S d  68     -20.514   1.051   7.935  0.00  0.00     0.095 C 
ATOM     32  O33 H1S d  68     -19.087   1.405   5.316  0.00  0.00    -0.572 OA
ATOM     33  O30 H1S d  68     -22.123  -3.770   6.421  0.00  0.00    -0.296 OA
ATOM     34  O32 H1S d  68     -19.506   1.757   2.991  0.00  0.00    -0.572 OA
ATOM     35  O29 H1S d  68     -20.678  -4.048   4.467  0.00  0.00    -0.296 OA
ATOM     36  H   H1S d  68     -19.870  -2.732   9.970  0.00  0.00     0.212 HD
ATOM     37  H   H1S d  68     -21.186   4.090   7.592  0.00  0.00     0.134 H 
ATOM     38  H   H1S d  68     -20.515  -0.705   9.331  0.00  0.00     0.131 H 
ATOM     39  H   H1S d  68     -17.642   0.988   9.589  0.00  0.00     0.080 H 
ATOM     40  H   H1S d  68     -18.899   2.225   9.357  0.00  0.00     0.080 H 
ATOM     41  H   H1S d  68     -21.949  -2.030   7.386  0.00  0.00     0.076 H 
ATOM     42  H   H1S d  68     -23.410  -0.424   7.484  0.00  0.00     0.210 HD
ATOM     43  H   H1S d  68     -24.151   5.886   6.626  0.00  0.00     0.085 H 
ATOM     44  H   H1S d  68     -23.622   5.988   4.155  0.00  0.00     0.210 HD
ATOM     45  H   H1S d  68     -22.518   2.710   5.155  0.00  0.00     0.097 H 
ATOM     46  H   H1S d  68     -21.754   5.586   5.461  0.00  0.00     0.093 H 
ATOM     47  H   H1S d  68     -18.575   0.694   6.985  0.00  0.00     0.090 H 
ATOM     48  H   H1S d  68     -18.805  -4.005   6.312  0.00  0.00     0.231 HD
ATOM     49  H   H1S d  68     -20.865  -1.357   5.240  0.00  0.00     0.140 HD
ATOM     50  H   H1S d  68     -21.574   0.406   6.196  0.00  0.00     0.089 H 
ATOM     51  H   H1S d  68     -20.966   1.024   8.905  0.00  0.00     0.091 H 
ATOM     52  H   H1S d  68     -22.178  -3.429   7.328  0.00  0.00     0.231 HD
ATOM     53  H   H1S d  68     -19.794  -3.889   4.099  0.00  0.00     0.231 HD
ENDROOT
TORSDOF 16
ENDMDL
MODEL 66
REMARK VINA RESULT:      -5.6      2.729      5.093
REMARK  0 active torsions:
REMARK  status: ('A' for Active; 'I' for Inactive)
REMARK       I    between atoms: O15_1  and  C10_4 
REMARK       I    between atoms: S20_2  and  N14_26 
REMARK       I    between atoms: S20_2  and  O28_25 
REMARK       I    between atoms: S20_2  and  O29_35 
REMARK       I    between atoms: S20_2  and  O30_33 
REMARK       I    between atoms: C7_3  and  O3_29 
REMARK       I    between atoms: C6_5  and  C2_23 
REMARK       I    between atoms: C6_5  and  O11_28 
REMARK       I    between atoms: S16_6  and  O11_28 
REMARK       I    between atoms: C19_8  and  C27_10 
REMARK       I    between atoms: C8_11  and  N14_26 
REMARK       I    between atoms: O9_14  and  C4_30 
REMARK       I    between atoms: S26_18  and  O18_24 
REMARK       I    between atoms: O25_19  and  C17_21 
REMARK       I    between atoms: C12_20  and  O18_24 
REMARK       I    between atoms: O3_29  and  C1_31 
ROOT
ATOM      1  O15 H1S d  68     -20.368   3.799   8.931  0.00  0.00    -0.369 OA
ATOM      2  S20 H1S d  68     -17.721   1.670   9.335  0.00  0.00     0.156 S 
ATOM      3  C7  H1S d  68     -23.706  -1.600   8.215  0.00  0.00     0.167 C 
ATOM      4  C10 H1S d  68     -20.909   2.593   8.354  0.00  0.00     0.147 C 
ATOM      5  C6  H1S d  68     -22.930   1.534   5.551  0.00  0.00     0.067 C 
ATOM      6  S16 H1S d  68     -23.426   1.161   3.039  0.00  0.00     0.251 S 
ATOM      7  O13 H1S d  68     -24.099  -1.292   9.595  0.00  0.00    -0.311 OA
ATOM      8  C19 H1S d  68     -25.118  -2.117  10.018  0.00  0.00     0.147 C 
ATOM      9  O34 H1S d  68     -27.140  -2.234  11.417  0.00  0.00    -0.642 OA
ATOM     10  C27 H1S d  68     -26.194  -1.525  10.996  0.00  0.00     0.233 C 
ATOM     11  C8  H1S d  68     -20.319   1.411   9.136  0.00  0.00     0.081 C 
ATOM     12  O22 H1S d  68     -23.502   0.050   2.022  0.00  0.00    -0.572 OA
ATOM     13  O23 H1S d  68     -22.480   2.205   2.481  0.00  0.00    -0.572 OA
ATOM     14  O9  H1S d  68     -22.168   0.627  10.292  0.00  0.00    -0.391 OA
ATOM     15  O21 H1S d  68     -24.807   1.776   3.213  0.00  0.00    -0.572 OA
ATOM     16  C24 H1S d  68     -25.157  -3.460   9.566  0.00  0.00    -0.034 C 
ATOM     17  O35 H1S d  68     -26.057  -0.338  11.322  0.00  0.00    -0.642 OA
ATOM     18  S26 H1S d  68     -20.635  -2.541   7.182  0.00  0.00     0.252 S 
ATOM     19  O25 H1S d  68     -23.588  -5.324   9.123  0.00  0.00    -0.389 OA
ATOM     20  C12 H1S d  68     -22.957  -2.965   8.352  0.00  0.00     0.135 C 
ATOM     21  C17 H1S d  68     -24.075  -4.050   8.594  0.00  0.00     0.086 C 
ATOM     22  O5  H1S d  68     -20.870   2.340   6.881  0.00  0.00    -0.350 OA
ATOM     23  C2  H1S d  68     -21.782   1.217   6.574  0.00  0.00     0.091 C 
ATOM     24  O18 H1S d  68     -21.985  -3.238   7.251  0.00  0.00    -0.244 OA
ATOM     25  O28 H1S d  68     -17.520   2.942   8.553  0.00  0.00    -0.296 OA
ATOM     26  N14 H1S d  68     -19.024   0.873   8.600  0.00  0.00    -0.210 NA
ATOM     27  O31 H1S d  68     -20.143  -2.129   8.558  0.00  0.00    -0.572 OA
ATOM     28  O11 H1S d  68     -22.922   0.656   4.350  0.00  0.00    -0.254 OA
ATOM     29  O3  H1S d  68     -23.027  -0.607   7.358  0.00  0.00    -0.348 OA
ATOM     30  C4  H1S d  68     -21.433   0.398   9.097  0.00  0.00     0.083 C 
ATOM     31  C1  H1S d  68     -22.401   0.606   7.881  0.00  0.00     0.095 C 
ATOM     32  O33 H1S d  68     -20.729  -1.323   6.297  0.00  0.00    -0.572 OA
ATOM     33  O30 H1S d  68     -18.151   1.948  10.755  0.00  0.00    -0.296 OA
ATOM     34  O32 H1S d  68     -19.609  -3.423   6.490  0.00  0.00    -0.572 OA
ATOM     35  O29 H1S d  68     -16.422   0.914   9.368  0.00  0.00    -0.296 OA
ATOM     36  H   H1S d  68     -20.720   4.570   8.459  0.00  0.00     0.212 HD
ATOM     37  H   H1S d  68     -24.595  -1.612   7.621  0.00  0.00     0.134 H 
ATOM     38  H   H1S d  68     -21.965   2.731   8.456  0.00  0.00     0.131 H 
ATOM     39  H   H1S d  68     -22.825   2.549   5.229  0.00  0.00     0.080 H 
ATOM     40  H   H1S d  68     -23.856   1.361   6.059  0.00  0.00     0.080 H 
ATOM     41  H   H1S d  68     -20.029   1.699  10.125  0.00  0.00     0.076 H 
ATOM     42  H   H1S d  68     -21.587   0.503  11.058  0.00  0.00     0.210 HD
ATOM     43  H   H1S d  68     -25.923  -4.072   9.887  0.00  0.00     0.085 H 
ATOM     44  H   H1S d  68     -24.335  -5.931   9.242  0.00  0.00     0.210 HD
ATOM     45  H   H1S d  68     -22.289  -2.968   9.187  0.00  0.00     0.097 H 
ATOM     46  H   H1S d  68     -24.485  -4.274   7.632  0.00  0.00     0.093 H 
ATOM     47  H   H1S d  68     -21.147   0.504   6.089  0.00  0.00     0.090 H 
ATOM     48  H   H1S d  68     -17.245   2.725   7.648  0.00  0.00     0.231 HD
ATOM     49  H   H1S d  68     -18.964  -0.126   8.797  0.00  0.00     0.140 HD
ATOM     50  H   H1S d  68     -21.030  -0.589   9.003  0.00  0.00     0.089 H 
ATOM     51  H   H1S d  68     -23.082   1.275   8.364  0.00  0.00     0.091 H 
ATOM     52  H   H1S d  68     -18.990   2.436  10.749  0.00  0.00     0.231 HD
ATOM     53  H   H1S d  68     -16.132   0.727   8.461  0.00  0.00     0.231 HD
ENDROOT
TORSDOF 16
ENDMDL
MODEL 67
REMARK VINA RESULT:      -5.5      3.016      6.975
REMARK  0 active torsions:
REMARK  status: ('A' for Active; 'I' for Inactive)
REMARK       I    between atoms: O15_1  and  C10_4 
REMARK       I    between atoms: S20_2  and  N14_26 
REMARK       I    between atoms: S20_2  and  O28_25 
REMARK       I    between atoms: S20_2  and  O29_35 
REMARK       I    between atoms: S20_2  and  O30_33 
REMARK       I    between atoms: C7_3  and  O3_29 
REMARK       I    between atoms: C6_5  and  C2_23 
REMARK       I    between atoms: C6_5  and  O11_28 
REMARK       I    between atoms: S16_6  and  O11_28 
REMARK       I    between atoms: C19_8  and  C27_10 
REMARK       I    between atoms: C8_11  and  N14_26 
REMARK       I    between atoms: O9_14  and  C4_30 
REMARK       I    between atoms: S26_18  and  O18_24 
REMARK       I    between atoms: O25_19  and  C17_21 
REMARK       I    between atoms: C12_20  and  O18_24 
REMARK       I    between atoms: O3_29  and  C1_31 
ROOT
ATOM      1  O15 H1S d  68     -24.126  -0.145  10.836  0.00  0.00    -0.369 OA
ATOM      2  S20 H1S d  68     -25.784   1.934   8.685  0.00  0.00     0.156 S 
ATOM      3  C7  H1S d  68     -19.125   1.069   7.052  0.00  0.00     0.167 C 
ATOM      4  C10 H1S d  68     -23.230  -0.167   9.705  0.00  0.00     0.147 C 
ATOM      5  C6  H1S d  68     -21.181  -2.490   7.845  0.00  0.00     0.067 C 
ATOM      6  S16 H1S d  68     -20.774  -4.516   6.287  0.00  0.00     0.251 S 
ATOM      7  O13 H1S d  68     -18.767   1.957   8.164  0.00  0.00    -0.311 OA
ATOM      8  C19 H1S d  68     -17.489   2.451   8.014  0.00  0.00     0.147 C 
ATOM      9  O34 H1S d  68     -15.463   3.142   9.229  0.00  0.00    -0.642 OA
ATOM     10  C27 H1S d  68     -16.630   2.688   9.307  0.00  0.00     0.233 C 
ATOM     11  C8  H1S d  68     -23.292   1.222   9.051  0.00  0.00     0.081 C 
ATOM     12  O22 H1S d  68     -20.379  -4.827   4.865  0.00  0.00    -0.572 OA
ATOM     13  O23 H1S d  68     -22.074  -5.249   6.553  0.00  0.00    -0.572 OA
ATOM     14  O9  H1S d  68     -21.203   2.086   9.558  0.00  0.00    -0.391 OA
ATOM     15  O21 H1S d  68     -19.701  -5.036   7.231  0.00  0.00    -0.572 OA
ATOM     16  C24 H1S d  68     -17.002   2.732   6.713  0.00  0.00    -0.034 C 
ATOM     17  O35 H1S d  68     -17.162   2.406  10.389  0.00  0.00    -0.642 OA
ATOM     18  S26 H1S d  68     -21.716   1.479   4.929  0.00  0.00     0.252 S 
ATOM     19  O25 H1S d  68     -17.818   3.697   4.584  0.00  0.00    -0.389 OA
ATOM     20  C12 H1S d  68     -19.316   2.053   5.854  0.00  0.00     0.135 C 
ATOM     21  C17 H1S d  68     -17.867   2.501   5.425  0.00  0.00     0.086 C 
ATOM     22  O5  H1S d  68     -23.287  -1.252   8.678  0.00  0.00    -0.350 OA
ATOM     23  C2  H1S d  68     -22.056  -1.187   7.860  0.00  0.00     0.091 C 
ATOM     24  O18 H1S d  68     -20.204   1.530   4.772  0.00  0.00    -0.244 OA
ATOM     25  O28 H1S d  68     -26.491   0.707   9.202  0.00  0.00    -0.296 OA
ATOM     26  N14 H1S d  68     -24.341   1.381   7.989  0.00  0.00    -0.210 NA
ATOM     27  O31 H1S d  68     -22.218   2.543   5.890  0.00  0.00    -0.572 OA
ATOM     28  O11 H1S d  68     -20.962  -3.047   6.483  0.00  0.00    -0.254 OA
ATOM     29  O3  H1S d  68     -20.180   0.043   7.182  0.00  0.00    -0.348 OA
ATOM     30  C4  H1S d  68     -21.893   1.400   8.522  0.00  0.00     0.083 C 
ATOM     31  C1  H1S d  68     -21.161   0.038   8.265  0.00  0.00     0.095 C 
ATOM     32  O33 H1S d  68     -22.136   0.117   5.425  0.00  0.00    -0.572 OA
ATOM     33  O30 H1S d  68     -25.378   2.861   9.805  0.00  0.00    -0.296 OA
ATOM     34  O32 H1S d  68     -22.402   1.610   3.580  0.00  0.00    -0.572 OA
ATOM     35  O29 H1S d  68     -26.716   2.675   7.765  0.00  0.00    -0.296 OA
ATOM     36  H   H1S d  68     -24.113  -1.010  11.275  0.00  0.00     0.212 HD
ATOM     37  H   H1S d  68     -18.339   0.351   6.946  0.00  0.00     0.134 H 
ATOM     38  H   H1S d  68     -22.291  -0.425  10.148  0.00  0.00     0.131 H 
ATOM     39  H   H1S d  68     -21.670  -3.233   8.439  0.00  0.00     0.080 H 
ATOM     40  H   H1S d  68     -20.219  -2.225   8.232  0.00  0.00     0.080 H 
ATOM     41  H   H1S d  68     -23.590   1.973   9.752  0.00  0.00     0.076 H 
ATOM     42  H   H1S d  68     -21.640   2.933   9.733  0.00  0.00     0.210 HD
ATOM     43  H   H1S d  68     -16.044   3.102   6.609  0.00  0.00     0.085 H 
ATOM     44  H   H1S d  68     -16.895   3.902   4.367  0.00  0.00     0.210 HD
ATOM     45  H   H1S d  68     -19.873   2.921   6.139  0.00  0.00     0.097 H 
ATOM     46  H   H1S d  68     -17.477   1.708   4.822  0.00  0.00     0.093 H 
ATOM     47  H   H1S d  68     -22.424  -1.069   6.862  0.00  0.00     0.090 H 
ATOM     48  H   H1S d  68     -26.736   0.138   8.457  0.00  0.00     0.231 HD
ATOM     49  H   H1S d  68     -24.020   2.055   7.294  0.00  0.00     0.140 HD
ATOM     50  H   H1S d  68     -21.917   1.917   7.585  0.00  0.00     0.089 H 
ATOM     51  H   H1S d  68     -20.734  -0.071   9.240  0.00  0.00     0.091 H 
ATOM     52  H   H1S d  68     -24.776   2.396  10.407  0.00  0.00     0.231 HD
ATOM     53  H   H1S d  68     -26.985   2.091   7.039  0.00  0.00     0.231 HD
ENDROOT
TORSDOF 16
ENDMDL
MODEL 68
REMARK VINA RESULT:      -5.5      3.461      7.335
REMARK  0 active torsions:
REMARK  status: ('A' for Active; 'I' for Inactive)
REMARK       I    between atoms: O15_1  and  C10_4 
REMARK       I    between atoms: S20_2  and  N14_26 
REMARK       I    between atoms: S20_2  and  O28_25 
REMARK       I    between atoms: S20_2  and  O29_35 
REMARK       I    between atoms: S20_2  and  O30_33 
REMARK       I    between atoms: C7_3  and  O3_29 
REMARK       I    between atoms: C6_5  and  C2_23 
REMARK       I    between atoms: C6_5  and  O11_28 
REMARK       I    between atoms: S16_6  and  O11_28 
REMARK       I    between atoms: C19_8  and  C27_10 
REMARK       I    between atoms: C8_11  and  N14_26 
REMARK       I    between atoms: O9_14  and  C4_30 
REMARK       I    between atoms: S26_18  and  O18_24 
REMARK       I    between atoms: O25_19  and  C17_21 
REMARK       I    between atoms: C12_20  and  O18_24 
REMARK       I    between atoms: O3_29  and  C1_31 
ROOT
ATOM      1  O15 H1S d  68     -24.852   2.540   6.759  0.00  0.00    -0.369 OA
ATOM      2  S20 H1S d  68     -23.770   1.863   3.586  0.00  0.00     0.156 S 
ATOM      3  C7  H1S d  68     -18.652   2.069   8.225  0.00  0.00     0.167 C 
ATOM      4  C10 H1S d  68     -23.551   1.981   7.037  0.00  0.00     0.147 C 
ATOM      5  C6  H1S d  68     -21.942  -0.239   9.392  0.00  0.00     0.067 C 
ATOM      6  S16 H1S d  68     -21.500  -2.529  10.515  0.00  0.00     0.251 S 
ATOM      7  O13 H1S d  68     -18.759   3.533   8.236  0.00  0.00    -0.311 OA
ATOM      8  C19 H1S d  68     -17.617   4.112   8.744  0.00  0.00     0.147 C 
ATOM      9  O34 H1S d  68     -16.756   6.004  10.062  0.00  0.00    -0.642 OA
ATOM     10  C27 H1S d  68     -17.764   5.432   9.581  0.00  0.00     0.233 C 
ATOM     11  C8  H1S d  68     -22.626   2.387   5.881  0.00  0.00     0.081 C 
ATOM     12  O22 H1S d  68     -20.465  -3.625  10.549  0.00  0.00    -0.572 OA
ATOM     13  O23 H1S d  68     -22.826  -3.184  10.185  0.00  0.00    -0.572 OA
ATOM     14  O9  H1S d  68     -21.208   3.905   6.909  0.00  0.00    -0.391 OA
ATOM     15  O21 H1S d  68     -21.587  -1.880  11.888  0.00  0.00    -0.572 OA
ATOM     16  C24 H1S d  68     -16.360   3.507   8.490  0.00  0.00    -0.034 C 
ATOM     17  O35 H1S d  68     -18.913   5.867   9.737  0.00  0.00    -0.642 OA
ATOM     18  S26 H1S d  68     -18.876   0.074   5.514  0.00  0.00     0.252 S 
ATOM     19  O25 H1S d  68     -15.177   2.375   6.633  0.00  0.00    -0.389 OA
ATOM     20  C12 H1S d  68     -17.631   1.793   7.075  0.00  0.00     0.135 C 
ATOM     21  C17 H1S d  68     -16.217   2.193   7.645  0.00  0.00     0.086 C 
ATOM     22  O5  H1S d  68     -23.375   0.539   7.391  0.00  0.00    -0.350 OA
ATOM     23  C2  H1S d  68     -22.014   0.353   7.940  0.00  0.00     0.091 C 
ATOM     24  O18 H1S d  68     -17.750   0.431   6.471  0.00  0.00    -0.244 OA
ATOM     25  O28 H1S d  68     -25.056   1.241   4.065  0.00  0.00    -0.296 OA
ATOM     26  N14 H1S d  68     -22.591   1.430   4.725  0.00  0.00    -0.210 NA
ATOM     27  O31 H1S d  68     -19.391   1.294   4.770  0.00  0.00    -0.572 OA
ATOM     28  O11 H1S d  68     -21.161  -1.502   9.484  0.00  0.00    -0.254 OA
ATOM     29  O3  H1S d  68     -19.846   1.201   8.213  0.00  0.00    -0.348 OA
ATOM     30  C4  H1S d  68     -21.289   2.529   6.562  0.00  0.00     0.083 C 
ATOM     31  C1  H1S d  68     -21.184   1.685   7.879  0.00  0.00     0.095 C 
ATOM     32  O33 H1S d  68     -20.013  -0.567   6.272  0.00  0.00    -0.572 OA
ATOM     33  O30 H1S d  68     -23.835   3.371   3.606  0.00  0.00    -0.296 OA
ATOM     34  O32 H1S d  68     -18.431  -1.000   4.535  0.00  0.00    -0.572 OA
ATOM     35  O29 H1S d  68     -23.515   1.414   2.173  0.00  0.00    -0.296 OA
ATOM     36  H   H1S d  68     -25.465   2.302   7.472  0.00  0.00     0.212 HD
ATOM     37  H   H1S d  68     -18.349   1.762   9.204  0.00  0.00     0.134 H 
ATOM     38  H   H1S d  68     -23.308   2.401   7.991  0.00  0.00     0.131 H 
ATOM     39  H   H1S d  68     -22.940  -0.434   9.727  0.00  0.00     0.080 H 
ATOM     40  H   H1S d  68     -21.440   0.484  10.000  0.00  0.00     0.080 H 
ATOM     41  H   H1S d  68     -22.965   3.280   5.401  0.00  0.00     0.076 H 
ATOM     42  H   H1S d  68     -21.272   4.445   6.107  0.00  0.00     0.210 HD
ATOM     43  H   H1S d  68     -15.509   3.947   8.874  0.00  0.00     0.085 H 
ATOM     44  H   H1S d  68     -14.344   2.618   7.065  0.00  0.00     0.210 HD
ATOM     45  H   H1S d  68     -17.835   2.391   6.212  0.00  0.00     0.097 H 
ATOM     46  H   H1S d  68     -15.894   1.369   8.245  0.00  0.00     0.093 H 
ATOM     47  H   H1S d  68     -21.584  -0.388   7.299  0.00  0.00     0.090 H 
ATOM     48  H   H1S d  68     -24.978   0.275   4.038  0.00  0.00     0.231 HD
ATOM     49  H   H1S d  68     -21.670   1.460   4.287  0.00  0.00     0.140 HD
ATOM     50  H   H1S d  68     -20.509   2.186   5.914  0.00  0.00     0.089 H 
ATOM     51  H   H1S d  68     -21.557   2.432   8.547  0.00  0.00     0.091 H 
ATOM     52  H   H1S d  68     -23.999   3.675   4.513  0.00  0.00     0.231 HD
ATOM     53  H   H1S d  68     -23.470   0.445   2.144  0.00  0.00     0.231 HD
ENDROOT
TORSDOF 16
ENDMDL
MODEL 69
REMARK VINA RESULT:      -5.5      2.322      6.071
REMARK  0 active torsions:
REMARK  status: ('A' for Active; 'I' for Inactive)
REMARK       I    between atoms: O15_1  and  C10_4 
REMARK       I    between atoms: S20_2  and  N14_26 
REMARK       I    between atoms: S20_2  and  O28_25 
REMARK       I    between atoms: S20_2  and  O29_35 
REMARK       I    between atoms: S20_2  and  O30_33 
REMARK       I    between atoms: C7_3  and  O3_29 
REMARK       I    between atoms: C6_5  and  C2_23 
REMARK       I    between atoms: C6_5  and  O11_28 
REMARK       I    between atoms: S16_6  and  O11_28 
REMARK       I    between atoms: C19_8  and  C27_10 
REMARK       I    between atoms: C8_11  and  N14_26 
REMARK       I    between atoms: O9_14  and  C4_30 
REMARK       I    between atoms: S26_18  and  O18_24 
REMARK       I    between atoms: O25_19  and  C17_21 
REMARK       I    between atoms: C12_20  and  O18_24 
REMARK       I    between atoms: O3_29  and  C1_31 
ROOT
ATOM      1  O15 H1S d  68     -21.559  -3.528  11.937  0.00  0.00    -0.369 OA
ATOM      2  S20 H1S d  68     -22.214  -5.799   9.464  0.00  0.00     0.156 S 
ATOM      3  C7  H1S d  68     -22.556   0.758   7.307  0.00  0.00     0.167 C 
ATOM      4  C10 H1S d  68     -21.359  -2.708  10.767  0.00  0.00     0.147 C 
ATOM      5  C6  H1S d  68     -19.129  -0.146   9.533  0.00  0.00     0.067 C 
ATOM      6  S16 H1S d  68     -16.853   0.770   8.711  0.00  0.00     0.251 S 
ATOM      7  O13 H1S d  68     -23.847   0.886   7.992  0.00  0.00    -0.311 OA
ATOM      8  C19 H1S d  68     -24.564   1.958   7.508  0.00  0.00     0.147 C 
ATOM      9  O34 H1S d  68     -26.145   3.743   8.122  0.00  0.00    -0.642 OA
ATOM     10  C27 H1S d  68     -25.466   2.761   8.511  0.00  0.00     0.233 C 
ATOM     11  C8  H1S d  68     -22.349  -3.195   9.698  0.00  0.00     0.081 C 
ATOM     12  O22 H1S d  68     -16.160   1.184   7.437  0.00  0.00    -0.572 OA
ATOM     13  O23 H1S d  68     -15.960  -0.250   9.388  0.00  0.00    -0.572 OA
ATOM     14  O9  H1S d  68     -23.844  -1.428   9.587  0.00  0.00    -0.391 OA
ATOM     15  O21 H1S d  68     -17.006   1.984   9.616  0.00  0.00    -0.572 OA
ATOM     16  C24 H1S d  68     -24.468   2.293   6.134  0.00  0.00    -0.034 C 
ATOM     17  O35 H1S d  68     -25.470   2.375   9.687  0.00  0.00    -0.642 OA
ATOM     18  S26 H1S d  68     -21.486  -1.920   5.554  0.00  0.00     0.252 S 
ATOM     19  O25 H1S d  68     -24.349   1.151   3.940  0.00  0.00    -0.389 OA
ATOM     20  C12 H1S d  68     -22.953   0.244   5.886  0.00  0.00     0.135 C 
ATOM     21  C17 H1S d  68     -23.571   1.484   5.133  0.00  0.00     0.086 C 
ATOM     22  O5  H1S d  68     -20.000  -2.487  10.185  0.00  0.00    -0.350 OA
ATOM     23  C2  H1S d  68     -20.077  -1.360   9.230  0.00  0.00     0.091 C 
ATOM     24  O18 H1S d  68     -21.863  -0.495   5.180  0.00  0.00    -0.244 OA
ATOM     25  O28 H1S d  68     -21.122  -6.099  10.459  0.00  0.00    -0.296 OA
ATOM     26  N14 H1S d  68     -21.836  -4.285   8.802  0.00  0.00    -0.210 NA
ATOM     27  O31 H1S d  68     -22.659  -2.671   6.159  0.00  0.00    -0.572 OA
ATOM     28  O11 H1S d  68     -18.191   0.173   8.424  0.00  0.00    -0.254 OA
ATOM     29  O3  H1S d  68     -21.414   0.052   7.922  0.00  0.00    -0.348 OA
ATOM     30  C4  H1S d  68     -22.676  -1.929   8.950  0.00  0.00     0.083 C 
ATOM     31  C1  H1S d  68     -21.551  -0.844   9.069  0.00  0.00     0.095 C 
ATOM     32  O33 H1S d  68     -20.339  -1.908   6.534  0.00  0.00    -0.572 OA
ATOM     33  O30 H1S d  68     -23.555  -5.636  10.137  0.00  0.00    -0.296 OA
ATOM     34  O32 H1S d  68     -20.937  -2.666   4.350  0.00  0.00    -0.572 OA
ATOM     35  O29 H1S d  68     -22.303  -6.939   8.488  0.00  0.00    -0.296 OA
ATOM     36  H   H1S d  68     -20.948  -3.248  12.637  0.00  0.00     0.212 HD
ATOM     37  H   H1S d  68     -22.077   1.714   7.341  0.00  0.00     0.134 H 
ATOM     38  H   H1S d  68     -21.529  -1.718  11.135  0.00  0.00     0.131 H 
ATOM     39  H   H1S d  68     -18.554  -0.376  10.406  0.00  0.00     0.080 H 
ATOM     40  H   H1S d  68     -19.754   0.711   9.671  0.00  0.00     0.080 H 
ATOM     41  H   H1S d  68     -23.199  -3.671  10.138  0.00  0.00     0.076 H 
ATOM     42  H   H1S d  68     -24.554  -2.085   9.524  0.00  0.00     0.210 HD
ATOM     43  H   H1S d  68     -25.007   3.098   5.778  0.00  0.00     0.085 H 
ATOM     44  H   H1S d  68     -24.691   1.966   3.540  0.00  0.00     0.210 HD
ATOM     45  H   H1S d  68     -23.691  -0.529   5.936  0.00  0.00     0.097 H 
ATOM     46  H   H1S d  68     -22.742   2.063   4.785  0.00  0.00     0.093 H 
ATOM     47  H   H1S d  68     -19.725  -1.785   8.313  0.00  0.00     0.090 H 
ATOM     48  H   H1S d  68     -20.277  -6.197   9.992  0.00  0.00     0.231 HD
ATOM     49  H   H1S d  68     -22.269  -4.200   7.883  0.00  0.00     0.140 HD
ATOM     50  H   H1S d  68     -22.792  -2.138   7.907  0.00  0.00     0.089 H 
ATOM     51  H   H1S d  68     -21.918  -0.366   9.953  0.00  0.00     0.091 H 
ATOM     52  H   H1S d  68     -23.512  -4.902  10.771  0.00  0.00     0.231 HD
ATOM     53  H   H1S d  68     -21.447  -7.056   8.047  0.00  0.00     0.231 HD
ENDROOT
TORSDOF 16
ENDMDL
MODEL 70
REMARK VINA RESULT:      -5.5      3.359      5.855
REMARK  0 active torsions:
REMARK  status: ('A' for Active; 'I' for Inactive)
REMARK       I    between atoms: O15_1  and  C10_4 
REMARK       I    between atoms: S20_2  and  N14_26 
REMARK       I    between atoms: S20_2  and  O28_25 
REMARK       I    between atoms: S20_2  and  O29_35 
REMARK       I    between atoms: S20_2  and  O30_33 
REMARK       I    between atoms: C7_3  and  O3_29 
REMARK       I    between atoms: C6_5  and  C2_23 
REMARK       I    between atoms: C6_5  and  O11_28 
REMARK       I    between atoms: S16_6  and  O11_28 
REMARK       I    between atoms: C19_8  and  C27_10 
REMARK       I    between atoms: C8_11  and  N14_26 
REMARK       I    between atoms: O9_14  and  C4_30 
REMARK       I    between atoms: S26_18  and  O18_24 
REMARK       I    between atoms: O25_19  and  C17_21 
REMARK       I    between atoms: C12_20  and  O18_24 
REMARK       I    between atoms: O3_29  and  C1_31 
ROOT
ATOM      1  O15 H1S d  68     -20.878   2.273   9.526  0.00  0.00    -0.369 OA
ATOM      2  S20 H1S d  68     -24.155   3.152   9.090  0.00  0.00     0.156 S 
ATOM      3  C7  H1S d  68     -22.413  -2.633   5.734  0.00  0.00     0.167 C 
ATOM      4  C10 H1S d  68     -21.428   1.022   9.065  0.00  0.00     0.147 C 
ATOM      5  C6  H1S d  68     -21.176  -2.521   9.731  0.00  0.00     0.067 C 
ATOM      6  S16 H1S d  68     -21.470  -4.654  11.168  0.00  0.00     0.251 S 
ATOM      7  O13 H1S d  68     -21.713  -1.811   4.740  0.00  0.00    -0.311 OA
ATOM      8  C19 H1S d  68     -21.510  -2.510   3.570  0.00  0.00     0.147 C 
ATOM      9  O34 H1S d  68     -19.962  -2.837   1.684  0.00  0.00    -0.642 OA
ATOM     10  C27 H1S d  68     -20.195  -2.233   2.759  0.00  0.00     0.233 C 
ATOM     11  C8  H1S d  68     -22.546   1.357   8.067  0.00  0.00     0.081 C 
ATOM     12  O22 H1S d  68     -22.347  -5.877  11.264  0.00  0.00    -0.572 OA
ATOM     13  O23 H1S d  68     -21.491  -3.988  12.529  0.00  0.00    -0.572 OA
ATOM     14  O9  H1S d  68     -21.622   0.669   6.057  0.00  0.00    -0.391 OA
ATOM     15  O21 H1S d  68     -20.048  -5.081  10.838  0.00  0.00    -0.572 OA
ATOM     16  C24 H1S d  68     -22.488  -3.442   3.140  0.00  0.00    -0.034 C 
ATOM     17  O35 H1S d  68     -19.414  -1.397   3.234  0.00  0.00    -0.642 OA
ATOM     18  S26 H1S d  68     -25.378  -1.918   7.178  0.00  0.00     0.252 S 
ATOM     19  O25 H1S d  68     -24.954  -3.647   3.047  0.00  0.00    -0.389 OA
ATOM     20  C12 H1S d  68     -23.868  -2.715   5.171  0.00  0.00     0.135 C 
ATOM     21  C17 H1S d  68     -23.805  -3.710   3.950  0.00  0.00     0.086 C 
ATOM     22  O5  H1S d  68     -21.855  -0.047  10.018  0.00  0.00    -0.350 OA
ATOM     23  C2  H1S d  68     -22.047  -1.303   9.259  0.00  0.00     0.091 C 
ATOM     24  O18 H1S d  68     -24.907  -2.991   6.208  0.00  0.00    -0.244 OA
ATOM     25  O28 H1S d  68     -23.528   3.329  10.449  0.00  0.00    -0.296 OA
ATOM     26  N14 H1S d  68     -23.910   1.528   8.672  0.00  0.00    -0.210 NA
ATOM     27  O31 H1S d  68     -25.225  -0.525   6.593  0.00  0.00    -0.572 OA
ATOM     28  O11 H1S d  68     -21.977  -3.711  10.126  0.00  0.00    -0.254 OA
ATOM     29  O3  H1S d  68     -22.326  -2.348   7.181  0.00  0.00    -0.348 OA
ATOM     30  C4  H1S d  68     -22.478   0.209   7.095  0.00  0.00     0.083 C 
ATOM     31  C1  H1S d  68     -21.840  -1.080   7.719  0.00  0.00     0.095 C 
ATOM     32  O33 H1S d  68     -24.597  -2.010   8.466  0.00  0.00    -0.572 OA
ATOM     33  O30 H1S d  68     -23.444   3.965   8.035  0.00  0.00    -0.296 OA
ATOM     34  O32 H1S d  68     -26.817  -2.166   7.599  0.00  0.00    -0.572 OA
ATOM     35  O29 H1S d  68     -25.587   3.605   9.158  0.00  0.00    -0.296 OA
ATOM     36  H   H1S d  68     -20.165   2.099  10.160  0.00  0.00     0.212 HD
ATOM     37  H   H1S d  68     -21.888  -3.562   5.812  0.00  0.00     0.134 H 
ATOM     38  H   H1S d  68     -20.576   0.523   8.650  0.00  0.00     0.131 H 
ATOM     39  H   H1S d  68     -20.592  -2.213  10.573  0.00  0.00     0.080 H 
ATOM     40  H   H1S d  68     -20.571  -2.814   8.898  0.00  0.00     0.080 H 
ATOM     41  H   H1S d  68     -22.397   2.316   7.618  0.00  0.00     0.076 H 
ATOM     42  H   H1S d  68     -21.999   1.468   5.657  0.00  0.00     0.210 HD
ATOM     43  H   H1S d  68     -22.329  -3.962   2.263  0.00  0.00     0.085 H 
ATOM     44  H   H1S d  68     -24.836  -4.287   2.328  0.00  0.00     0.210 HD
ATOM     45  H   H1S d  68     -24.212  -1.764   4.821  0.00  0.00     0.097 H 
ATOM     46  H   H1S d  68     -23.820  -4.695   4.368  0.00  0.00     0.093 H 
ATOM     47  H   H1S d  68     -23.062  -1.569   9.468  0.00  0.00     0.090 H 
ATOM     48  H   H1S d  68     -24.009   2.793  11.099  0.00  0.00     0.231 HD
ATOM     49  H   H1S d  68     -24.618   1.241   7.996  0.00  0.00     0.140 HD
ATOM     50  H   H1S d  68     -23.462  -0.060   6.774  0.00  0.00     0.089 H 
ATOM     51  H   H1S d  68     -20.823  -0.861   7.468  0.00  0.00     0.091 H 
ATOM     52  H   H1S d  68     -22.517   3.683   7.980  0.00  0.00     0.231 HD
ATOM     53  H   H1S d  68     -26.058   3.090   9.832  0.00  0.00     0.231 HD
ENDROOT
TORSDOF 16
ENDMDL
MODEL 71
REMARK VINA RESULT:      -5.5      3.216      4.150
REMARK  0 active torsions:
REMARK  status: ('A' for Active; 'I' for Inactive)
REMARK       I    between atoms: O15_1  and  C10_4 
REMARK       I    between atoms: S20_2  and  N14_26 
REMARK       I    between atoms: S20_2  and  O28_25 
REMARK       I    between atoms: S20_2  and  O29_35 
REMARK       I    between atoms: S20_2  and  O30_33 
REMARK       I    between atoms: C7_3  and  O3_29 
REMARK       I    between atoms: C6_5  and  C2_23 
REMARK       I    between atoms: C6_5  and  O11_28 
REMARK       I    between atoms: S16_6  and  O11_28 
REMARK       I    between atoms: C19_8  and  C27_10 
REMARK       I    between atoms: C8_11  and  N14_26 
REMARK       I    between atoms: O9_14  and  C4_30 
REMARK       I    between atoms: S26_18  and  O18_24 
REMARK       I    between atoms: O25_19  and  C17_21 
REMARK       I    between atoms: C12_20  and  O18_24 
REMARK       I    between atoms: O3_29  and  C1_31 
ROOT
ATOM      1  O15 H1S d  68     -18.629   4.938   6.393  0.00  0.00    -0.369 OA
ATOM      2  S20 H1S d  68     -17.136   3.920   9.297  0.00  0.00     0.156 S 
ATOM      3  C7  H1S d  68     -22.984   0.515   7.900  0.00  0.00     0.167 C 
ATOM      4  C10 H1S d  68     -19.269   3.659   6.585  0.00  0.00     0.147 C 
ATOM      5  C6  H1S d  68     -20.335   0.785   4.671  0.00  0.00     0.067 C 
ATOM      6  S16 H1S d  68     -19.959  -1.318   3.211  0.00  0.00     0.251 S 
ATOM      7  O13 H1S d  68     -23.741   1.703   8.312  0.00  0.00    -0.311 OA
ATOM      8  C19 H1S d  68     -25.048   1.382   8.608  0.00  0.00     0.147 C 
ATOM      9  O34 H1S d  68     -27.369   2.198   8.525  0.00  0.00    -0.642 OA
ATOM     10  C27 H1S d  68     -26.163   2.435   8.272  0.00  0.00     0.233 C 
ATOM     11  C8  H1S d  68     -19.415   3.448   8.099  0.00  0.00     0.081 C 
ATOM     12  O22 H1S d  68     -20.000  -2.822   3.310  0.00  0.00    -0.572 OA
ATOM     13  O23 H1S d  68     -18.596  -0.949   2.660  0.00  0.00    -0.572 OA
ATOM     14  O9  H1S d  68     -21.705   3.638   8.394  0.00  0.00    -0.391 OA
ATOM     15  O21 H1S d  68     -21.037  -0.850   2.245  0.00  0.00    -0.572 OA
ATOM     16  C24 H1S d  68     -25.338   0.130   9.204  0.00  0.00    -0.034 C 
ATOM     17  O35 H1S d  68     -25.790   3.495   7.752  0.00  0.00    -0.642 OA
ATOM     18  S26 H1S d  68     -20.215  -0.703   9.394  0.00  0.00     0.252 S 
ATOM     19  O25 H1S d  68     -24.390  -1.382  10.922  0.00  0.00    -0.389 OA
ATOM     20  C12 H1S d  68     -22.811  -0.281   9.233  0.00  0.00     0.135 C 
ATOM     21  C17 H1S d  68     -24.220  -0.916   9.546  0.00  0.00     0.086 C 
ATOM     22  O5  H1S d  68     -18.771   2.422   5.911  0.00  0.00    -0.350 OA
ATOM     23  C2  H1S d  68     -19.809   1.374   6.028  0.00  0.00     0.091 C 
ATOM     24  O18 H1S d  68     -21.640  -1.210   9.239  0.00  0.00    -0.244 OA
ATOM     25  O28 H1S d  68     -16.270   4.240   8.106  0.00  0.00    -0.296 OA
ATOM     26  N14 H1S d  68     -18.254   2.764   8.763  0.00  0.00    -0.210 NA
ATOM     27  O31 H1S d  68     -20.163   0.606  10.163  0.00  0.00    -0.572 OA
ATOM     28  O11 H1S d  68     -20.161  -0.687   4.550  0.00  0.00    -0.254 OA
ATOM     29  O3  H1S d  68     -21.762   0.616   7.078  0.00  0.00    -0.348 OA
ATOM     30  C4  H1S d  68     -20.694   2.658   8.201  0.00  0.00     0.083 C 
ATOM     31  C1  H1S d  68     -21.025   1.864   6.890  0.00  0.00     0.095 C 
ATOM     32  O33 H1S d  68     -19.586  -0.511   8.035  0.00  0.00    -0.572 OA
ATOM     33  O30 H1S d  68     -17.948   5.114   9.736  0.00  0.00    -0.296 OA
ATOM     34  O32 H1S d  68     -19.340  -1.750  10.062  0.00  0.00    -0.572 OA
ATOM     35  O29 H1S d  68     -16.250   3.500  10.437  0.00  0.00    -0.296 OA
ATOM     36  H   H1S d  68     -18.520   5.106   5.444  0.00  0.00     0.212 HD
ATOM     37  H   H1S d  68     -23.547   0.025   7.133  0.00  0.00     0.134 H 
ATOM     38  H   H1S d  68     -20.187   3.767   6.045  0.00  0.00     0.131 H 
ATOM     39  H   H1S d  68     -19.804   1.256   3.869  0.00  0.00     0.080 H 
ATOM     40  H   H1S d  68     -21.387   0.980   4.633  0.00  0.00     0.080 H 
ATOM     41  H   H1S d  68     -19.436   4.378   8.626  0.00  0.00     0.076 H 
ATOM     42  H   H1S d  68     -21.519   4.141   9.201  0.00  0.00     0.210 HD
ATOM     43  H   H1S d  68     -26.319  -0.103   9.422  0.00  0.00     0.085 H 
ATOM     44  H   H1S d  68     -25.279  -1.756  11.029  0.00  0.00     0.210 HD
ATOM     45  H   H1S d  68     -22.536   0.360  10.044  0.00  0.00     0.097 H 
ATOM     46  H   H1S d  68     -24.294  -1.791   8.934  0.00  0.00     0.093 H 
ATOM     47  H   H1S d  68     -19.299   0.570   6.518  0.00  0.00     0.090 H 
ATOM     48  H   H1S d  68     -15.764   3.452   7.854  0.00  0.00     0.231 HD
ATOM     49  H   H1S d  68     -18.590   2.224   9.560  0.00  0.00     0.140 HD
ATOM     50  H   H1S d  68     -20.618   1.935   8.987  0.00  0.00     0.089 H 
ATOM     51  H   H1S d  68     -21.588   2.635   6.406  0.00  0.00     0.091 H 
ATOM     52  H   H1S d  68     -18.525   5.397   9.009  0.00  0.00     0.231 HD
ATOM     53  H   H1S d  68     -15.721   2.732  10.170  0.00  0.00     0.231 HD
ENDROOT
TORSDOF 16
ENDMDL
MODEL 72
REMARK VINA RESULT:      -5.5      2.464      3.462
REMARK  0 active torsions:
REMARK  status: ('A' for Active; 'I' for Inactive)
REMARK       I    between atoms: O15_1  and  C10_4 
REMARK       I    between atoms: S20_2  and  N14_26 
REMARK       I    between atoms: S20_2  and  O28_25 
REMARK       I    between atoms: S20_2  and  O29_35 
REMARK       I    between atoms: S20_2  and  O30_33 
REMARK       I    between atoms: C7_3  and  O3_29 
REMARK       I    between atoms: C6_5  and  C2_23 
REMARK       I    between atoms: C6_5  and  O11_28 
REMARK       I    between atoms: S16_6  and  O11_28 
REMARK       I    between atoms: C19_8  and  C27_10 
REMARK       I    between atoms: C8_11  and  N14_26 
REMARK       I    between atoms: O9_14  and  C4_30 
REMARK       I    between atoms: S26_18  and  O18_24 
REMARK       I    between atoms: O25_19  and  C17_21 
REMARK       I    between atoms: C12_20  and  O18_24 
REMARK       I    between atoms: O3_29  and  C1_31 
ROOT
ATOM      1  O15 H1S d  68     -18.071  -1.005   5.499  0.00  0.00    -0.369 OA
ATOM      2  S20 H1S d  68     -18.193   2.255   6.527  0.00  0.00     0.156 S 
ATOM      3  C7  H1S d  68     -24.271  -0.995   7.039  0.00  0.00     0.167 C 
ATOM      4  C10 H1S d  68     -19.287  -1.018   6.276  0.00  0.00     0.147 C 
ATOM      5  C6  H1S d  68     -21.039  -3.124   8.633  0.00  0.00     0.067 C 
ATOM      6  S16 H1S d  68     -21.359  -4.323  10.905  0.00  0.00     0.251 S 
ATOM      7  O13 H1S d  68     -24.416  -0.891   5.583  0.00  0.00    -0.311 OA
ATOM      8  C19 H1S d  68     -25.730  -1.055   5.201  0.00  0.00     0.147 C 
ATOM      9  O34 H1S d  68     -27.199  -1.945   3.437  0.00  0.00    -0.642 OA
ATOM     10  C27 H1S d  68     -26.022  -1.774   3.836  0.00  0.00     0.233 C 
ATOM     11  C8  H1S d  68     -19.948   0.358   6.108  0.00  0.00     0.081 C 
ATOM     12  O22 H1S d  68     -22.170  -4.214  12.171  0.00  0.00    -0.572 OA
ATOM     13  O23 H1S d  68     -19.902  -4.381  11.318  0.00  0.00    -0.572 OA
ATOM     14  O9  H1S d  68     -21.811  -0.155   4.830  0.00  0.00    -0.391 OA
ATOM     15  O21 H1S d  68     -21.729  -5.609  10.182  0.00  0.00    -0.572 OA
ATOM     16  C24 H1S d  68     -26.763  -0.569   6.041  0.00  0.00    -0.034 C 
ATOM     17  O35 H1S d  68     -25.038  -2.156   3.188  0.00  0.00    -0.642 OA
ATOM     18  S26 H1S d  68     -23.042   1.383   9.094  0.00  0.00     0.252 S 
ATOM     19  O25 H1S d  68     -27.236   1.400   7.467  0.00  0.00    -0.389 OA
ATOM     20  C12 H1S d  68     -24.909   0.333   7.559  0.00  0.00     0.135 C 
ATOM     21  C17 H1S d  68     -26.468   0.156   7.401  0.00  0.00     0.086 C 
ATOM     22  O5  H1S d  68     -19.302  -1.456   7.705  0.00  0.00    -0.350 OA
ATOM     23  C2  H1S d  68     -20.706  -1.681   8.112  0.00  0.00     0.091 C 
ATOM     24  O18 H1S d  68     -24.416   0.759   8.904  0.00  0.00    -0.244 OA
ATOM     25  O28 H1S d  68     -16.982   1.427   6.873  0.00  0.00    -0.296 OA
ATOM     26  N14 H1S d  68     -19.530   1.393   7.112  0.00  0.00    -0.210 NA
ATOM     27  O31 H1S d  68     -22.570   2.097   7.839  0.00  0.00    -0.572 OA
ATOM     28  O11 H1S d  68     -21.595  -3.148  10.013  0.00  0.00    -0.254 OA
ATOM     29  O3  H1S d  68     -22.983  -1.349   7.670  0.00  0.00    -0.348 OA
ATOM     30  C4  H1S d  68     -21.416   0.031   6.183  0.00  0.00     0.083 C 
ATOM     31  C1  H1S d  68     -21.705  -1.298   6.963  0.00  0.00     0.095 C 
ATOM     32  O33 H1S d  68     -22.041   0.319   9.473  0.00  0.00    -0.572 OA
ATOM     33  O30 H1S d  68     -18.389   2.364   5.034  0.00  0.00    -0.296 OA
ATOM     34  O32 H1S d  68     -23.041   2.333  10.280  0.00  0.00    -0.572 OA
ATOM     35  O29 H1S d  68     -18.007   3.638   7.086  0.00  0.00    -0.296 OA
ATOM     36  H   H1S d  68     -17.625  -1.863   5.581  0.00  0.00     0.212 HD
ATOM     37  H   H1S d  68     -24.753  -1.898   7.348  0.00  0.00     0.134 H 
ATOM     38  H   H1S d  68     -19.829  -1.842   5.860  0.00  0.00     0.131 H 
ATOM     39  H   H1S d  68     -20.139  -3.703   8.621  0.00  0.00     0.080 H 
ATOM     40  H   H1S d  68     -21.792  -3.524   7.986  0.00  0.00     0.080 H 
ATOM     41  H   H1S d  68     -19.653   0.826   5.193  0.00  0.00     0.076 H 
ATOM     42  H   H1S d  68     -21.640   0.657   4.329  0.00  0.00     0.210 HD
ATOM     43  H   H1S d  68     -27.745  -0.696   5.749  0.00  0.00     0.085 H 
ATOM     44  H   H1S d  68     -28.179   1.203   7.361  0.00  0.00     0.210 HD
ATOM     45  H   H1S d  68     -24.598   1.176   6.979  0.00  0.00     0.097 H 
ATOM     46  H   H1S d  68     -26.788  -0.425   8.239  0.00  0.00     0.093 H 
ATOM     47  H   H1S d  68     -20.831  -1.029   8.952  0.00  0.00     0.090 H 
ATOM     48  H   H1S d  68     -16.889   1.379   7.837  0.00  0.00     0.231 HD
ATOM     49  H   H1S d  68     -20.303   2.037   7.277  0.00  0.00     0.140 HD
ATOM     50  H   H1S d  68     -21.940   0.809   6.697  0.00  0.00     0.089 H 
ATOM     51  H   H1S d  68     -21.642  -1.961   6.126  0.00  0.00     0.091 H 
ATOM     52  H   H1S d  68     -18.511   1.477   4.659  0.00  0.00     0.231 HD
ATOM     53  H   H1S d  68     -17.879   3.584   8.047  0.00  0.00     0.231 HD
ENDROOT
TORSDOF 16
ENDMDL
MODEL 73
REMARK VINA RESULT:      -5.5      2.627      6.132
REMARK  0 active torsions:
REMARK  status: ('A' for Active; 'I' for Inactive)
REMARK       I    between atoms: O15_1  and  C10_4 
REMARK       I    between atoms: S20_2  and  N14_26 
REMARK       I    between atoms: S20_2  and  O28_25 
REMARK       I    between atoms: S20_2  and  O29_35 
REMARK       I    between atoms: S20_2  and  O30_33 
REMARK       I    between atoms: C7_3  and  O3_29 
REMARK       I    between atoms: C6_5  and  C2_23 
REMARK       I    between atoms: C6_5  and  O11_28 
REMARK       I    between atoms: S16_6  and  O11_28 
REMARK       I    between atoms: C19_8  and  C27_10 
REMARK       I    between atoms: C8_11  and  N14_26 
REMARK       I    between atoms: O9_14  and  C4_30 
REMARK       I    between atoms: S26_18  and  O18_24 
REMARK       I    between atoms: O25_19  and  C17_21 
REMARK       I    between atoms: C12_20  and  O18_24 
REMARK       I    between atoms: O3_29  and  C1_31 
ROOT
ATOM      1  O15 H1S d  68     -21.869  -3.829  12.641  0.00  0.00    -0.369 OA
ATOM      2  S20 H1S d  68     -21.811  -6.766  10.888  0.00  0.00     0.156 S 
ATOM      3  C7  H1S d  68     -22.887  -1.229   6.896  0.00  0.00     0.167 C 
ATOM      4  C10 H1S d  68     -21.643  -3.335  11.305  0.00  0.00     0.147 C 
ATOM      5  C6  H1S d  68     -19.699  -0.827   9.576  0.00  0.00     0.067 C 
ATOM      6  S16 H1S d  68     -17.505   0.249   8.723  0.00  0.00     0.251 S 
ATOM      7  O13 H1S d  68     -24.264  -1.169   7.400  0.00  0.00    -0.311 OA
ATOM      8  C19 H1S d  68     -25.068  -0.425   6.565  0.00  0.00     0.147 C 
ATOM      9  O34 H1S d  68     -26.980   1.124   6.494  0.00  0.00    -0.642 OA
ATOM     10  C27 H1S d  68     -26.215   0.432   7.209  0.00  0.00     0.233 C 
ATOM     11  C8  H1S d  68     -22.387  -4.272  10.342  0.00  0.00     0.081 C 
ATOM     12  O22 H1S d  68     -16.718   0.427   7.449  0.00  0.00    -0.572 OA
ATOM     13  O23 H1S d  68     -16.563  -0.360   9.741  0.00  0.00    -0.572 OA
ATOM     14  O9  H1S d  68     -24.114  -2.920   9.593  0.00  0.00    -0.391 OA
ATOM     15  O21 H1S d  68     -17.970   1.610   9.218  0.00  0.00    -0.572 OA
ATOM     16  C24 H1S d  68     -24.839  -0.463   5.166  0.00  0.00    -0.034 C 
ATOM     17  O35 H1S d  68     -26.319   0.386   8.442  0.00  0.00    -0.642 OA
ATOM     18  S26 H1S d  68     -21.178  -4.027   6.097  0.00  0.00     0.252 S 
ATOM     19  O25 H1S d  68     -24.242  -2.111   3.418  0.00  0.00    -0.389 OA
ATOM     20  C12 H1S d  68     -23.000  -2.175   5.657  0.00  0.00     0.135 C 
ATOM     21  C17 H1S d  68     -23.697  -1.326   4.526  0.00  0.00     0.086 C 
ATOM     22  O5  H1S d  68     -20.269  -3.025  10.803  0.00  0.00    -0.350 OA
ATOM     23  C2  H1S d  68     -20.392  -2.235   9.558  0.00  0.00     0.091 C 
ATOM     24  O18 H1S d  68     -21.721  -2.856   5.293  0.00  0.00    -0.244 OA
ATOM     25  O28 H1S d  68     -20.832  -6.573  12.018  0.00  0.00    -0.296 OA
ATOM     26  N14 H1S d  68     -21.590  -5.445   9.850  0.00  0.00    -0.210 NA
ATOM     27  O31 H1S d  68     -22.289  -4.796   6.791  0.00  0.00    -0.572 OA
ATOM     28  O11 H1S d  68     -18.680  -0.647   8.507  0.00  0.00    -0.254 OA
ATOM     29  O3  H1S d  68     -21.744  -1.512   7.786  0.00  0.00    -0.348 OA
ATOM     30  C4  H1S d  68     -22.805  -3.343   9.233  0.00  0.00     0.083 C 
ATOM     31  C1  H1S d  68     -21.893  -2.072   9.127  0.00  0.00     0.095 C 
ATOM     32  O33 H1S d  68     -20.192  -3.532   7.127  0.00  0.00    -0.572 OA
ATOM     33  O30 H1S d  68     -23.241  -6.686  11.367  0.00  0.00    -0.296 OA
ATOM     34  O32 H1S d  68     -20.358  -4.953   5.214  0.00  0.00    -0.572 OA
ATOM     35  O29 H1S d  68     -21.585  -8.124  10.283  0.00  0.00    -0.296 OA
ATOM     36  H   H1S d  68     -21.411  -3.259  13.278  0.00  0.00     0.212 HD
ATOM     37  H   H1S d  68     -22.575  -0.227   6.692  0.00  0.00     0.134 H 
ATOM     38  H   H1S d  68     -22.016  -2.334  11.353  0.00  0.00     0.131 H 
ATOM     39  H   H1S d  68     -19.219  -0.698  10.525  0.00  0.00     0.080 H 
ATOM     40  H   H1S d  68     -20.464  -0.099   9.404  0.00  0.00     0.080 H 
ATOM     41  H   H1S d  68     -23.204  -4.764  10.826  0.00  0.00     0.076 H 
ATOM     42  H   H1S d  68     -24.695  -3.692   9.663  0.00  0.00     0.210 HD
ATOM     43  H   H1S d  68     -25.445   0.098   4.547  0.00  0.00     0.085 H 
ATOM     44  H   H1S d  68     -24.650  -1.517   2.770  0.00  0.00     0.210 HD
ATOM     45  H   H1S d  68     -23.606  -3.032   5.866  0.00  0.00     0.097 H 
ATOM     46  H   H1S d  68     -22.930  -0.716   4.097  0.00  0.00     0.093 H 
ATOM     47  H   H1S d  68     -19.855  -2.817   8.838  0.00  0.00     0.090 H 
ATOM     48  H   H1S d  68     -19.927  -6.630  11.674  0.00  0.00     0.231 HD
ATOM     49  H   H1S d  68     -21.902  -5.697   8.911  0.00  0.00     0.140 HD
ATOM     50  H   H1S d  68     -22.743  -3.844   8.290  0.00  0.00     0.089 H 
ATOM     51  H   H1S d  68     -22.448  -1.452   9.800  0.00  0.00     0.091 H 
ATOM     52  H   H1S d  68     -23.401  -5.814  11.760  0.00  0.00     0.231 HD
ATOM     53  H   H1S d  68     -20.669  -8.191   9.970  0.00  0.00     0.231 HD
ENDROOT
TORSDOF 16
ENDMDL
MODEL 74
REMARK VINA RESULT:      -5.5      2.810      6.620
REMARK  0 active torsions:
REMARK  status: ('A' for Active; 'I' for Inactive)
REMARK       I    between atoms: O15_1  and  C10_4 
REMARK       I    between atoms: S20_2  and  N14_26 
REMARK       I    between atoms: S20_2  and  O28_25 
REMARK       I    between atoms: S20_2  and  O29_35 
REMARK       I    between atoms: S20_2  and  O30_33 
REMARK       I    between atoms: C7_3  and  O3_29 
REMARK       I    between atoms: C6_5  and  C2_23 
REMARK       I    between atoms: C6_5  and  O11_28 
REMARK       I    between atoms: S16_6  and  O11_28 
REMARK       I    between atoms: C19_8  and  C27_10 
REMARK       I    between atoms: C8_11  and  N14_26 
REMARK       I    between atoms: O9_14  and  C4_30 
REMARK       I    between atoms: S26_18  and  O18_24 
REMARK       I    between atoms: O25_19  and  C17_21 
REMARK       I    between atoms: C12_20  and  O18_24 
REMARK       I    between atoms: O3_29  and  C1_31 
ROOT
ATOM      1  O15 H1S d  68     -23.176  -3.457  11.560  0.00  0.00    -0.369 OA
ATOM      2  S20 H1S d  68     -22.400  -6.698  10.789  0.00  0.00     0.156 S 
ATOM      3  C7  H1S d  68     -22.236  -2.479   5.318  0.00  0.00     0.167 C 
ATOM      4  C10 H1S d  68     -22.519  -3.276  10.288  0.00  0.00     0.147 C 
ATOM      5  C6  H1S d  68     -20.194  -1.031   8.672  0.00  0.00     0.067 C 
ATOM      6  S16 H1S d  68     -17.884   0.081   8.318  0.00  0.00     0.251 S 
ATOM      7  O13 H1S d  68     -23.703  -2.478   5.312  0.00  0.00    -0.311 OA
ATOM      8  C19 H1S d  68     -24.195  -2.068   4.091  0.00  0.00     0.147 C 
ATOM      9  O34 H1S d  68     -26.022  -0.843   2.987  0.00  0.00    -0.642 OA
ATOM     10  C27 H1S d  68     -25.527  -1.236   4.070  0.00  0.00     0.233 C 
ATOM     11  C8  H1S d  68     -22.846  -4.506   9.429  0.00  0.00     0.081 C 
ATOM     12  O22 H1S d  68     -16.711   0.045   7.371  0.00  0.00    -0.572 OA
ATOM     13  O23 H1S d  68     -17.331  -0.137   9.713  0.00  0.00    -0.572 OA
ATOM     14  O9  H1S d  68     -24.256  -3.611   7.823  0.00  0.00    -0.391 OA
ATOM     15  O21 H1S d  68     -18.545   1.449   8.246  0.00  0.00    -0.572 OA
ATOM     16  C24 H1S d  68     -23.494  -2.413   2.909  0.00  0.00    -0.034 C 
ATOM     17  O35 H1S d  68     -26.050  -0.996   5.166  0.00  0.00    -0.642 OA
ATOM     18  S26 H1S d  68     -20.249  -5.141   5.909  0.00  0.00     0.252 S 
ATOM     19  O25 H1S d  68     -22.263  -4.344   1.967  0.00  0.00    -0.389 OA
ATOM     20  C12 H1S d  68     -21.875  -3.703   4.416  0.00  0.00     0.135 C 
ATOM     21  C17 H1S d  68     -22.168  -3.251   2.934  0.00  0.00     0.086 C 
ATOM     22  O5  H1S d  68     -21.070  -2.921  10.196  0.00  0.00    -0.350 OA
ATOM     23  C2  H1S d  68     -20.783  -2.479   8.814  0.00  0.00     0.091 C 
ATOM     24  O18 H1S d  68     -20.523  -4.280   4.686  0.00  0.00    -0.244 OA
ATOM     25  O28 H1S d  68     -21.882  -6.112  12.077  0.00  0.00    -0.296 OA
ATOM     26  N14 H1S d  68     -21.883  -5.651   9.561  0.00  0.00    -0.210 NA
ATOM     27  O31 H1S d  68     -21.501  -5.857   6.386  0.00  0.00    -0.572 OA
ATOM     28  O11 H1S d  68     -18.875  -0.985   7.985  0.00  0.00    -0.254 OA
ATOM     29  O3  H1S d  68     -21.462  -2.387   6.572  0.00  0.00    -0.348 OA
ATOM     30  C4  H1S d  68     -22.888  -3.935   8.036  0.00  0.00     0.083 C 
ATOM     31  C1  H1S d  68     -22.046  -2.621   7.891  0.00  0.00     0.095 C 
ATOM     32  O33 H1S d  68     -19.702  -4.289   7.028  0.00  0.00    -0.572 OA
ATOM     33  O30 H1S d  68     -23.908  -6.690  10.737  0.00  0.00    -0.296 OA
ATOM     34  O32 H1S d  68     -19.138  -6.140   5.627  0.00  0.00    -0.572 OA
ATOM     35  O29 H1S d  68     -21.925  -8.121  10.683  0.00  0.00    -0.296 OA
ATOM     36  H   H1S d  68     -22.990  -2.696  12.131  0.00  0.00     0.212 HD
ATOM     37  H   H1S d  68     -21.911  -1.524   4.962  0.00  0.00     0.134 H 
ATOM     38  H   H1S d  68     -22.924  -2.350   9.939  0.00  0.00     0.131 H 
ATOM     39  H   H1S d  68     -20.079  -0.615   9.652  0.00  0.00     0.080 H 
ATOM     40  H   H1S d  68     -20.880  -0.472   8.069  0.00  0.00     0.080 H 
ATOM     41  H   H1S d  68     -23.761  -4.968   9.737  0.00  0.00     0.076 H 
ATOM     42  H   H1S d  68     -24.795  -4.412   7.908  0.00  0.00     0.210 HD
ATOM     43  H   H1S d  68     -23.868  -2.102   1.999  0.00  0.00     0.085 H 
ATOM     44  H   H1S d  68     -22.444  -3.982   1.086  0.00  0.00     0.210 HD
ATOM     45  H   H1S d  68     -22.482  -4.555   4.642  0.00  0.00     0.097 H 
ATOM     46  H   H1S d  68     -21.324  -2.669   2.629  0.00  0.00     0.093 H 
ATOM     47  H   H1S d  68     -20.007  -3.144   8.494  0.00  0.00     0.090 H 
ATOM     48  H   H1S d  68     -20.912  -6.134  12.075  0.00  0.00     0.231 HD
ATOM     49  H   H1S d  68     -21.840  -6.160   8.678  0.00  0.00     0.140 HD
ATOM     50  H   H1S d  68     -22.483  -4.638   7.338  0.00  0.00     0.089 H 
ATOM     51  H   H1S d  68     -22.824  -1.934   8.152  0.00  0.00     0.091 H 
ATOM     52  H   H1S d  68     -24.229  -5.777  10.804  0.00  0.00     0.231 HD
ATOM     53  H   H1S d  68     -20.955  -8.142  10.715  0.00  0.00     0.231 HD
ENDROOT
TORSDOF 16
ENDMDL
MODEL 75
REMARK VINA RESULT:      -5.4      2.825      6.214
REMARK  0 active torsions:
REMARK  status: ('A' for Active; 'I' for Inactive)
REMARK       I    between atoms: O15_1  and  C10_4 
REMARK       I    between atoms: S20_2  and  N14_26 
REMARK       I    between atoms: S20_2  and  O28_25 
REMARK       I    between atoms: S20_2  and  O29_35 
REMARK       I    between atoms: S20_2  and  O30_33 
REMARK       I    between atoms: C7_3  and  O3_29 
REMARK       I    between atoms: C6_5  and  C2_23 
REMARK       I    between atoms: C6_5  and  O11_28 
REMARK       I    between atoms: S16_6  and  O11_28 
REMARK       I    between atoms: C19_8  and  C27_10 
REMARK       I    between atoms: C8_11  and  N14_26 
REMARK       I    between atoms: O9_14  and  C4_30 
REMARK       I    between atoms: S26_18  and  O18_24 
REMARK       I    between atoms: O25_19  and  C17_21 
REMARK       I    between atoms: C12_20  and  O18_24 
REMARK       I    between atoms: O3_29  and  C1_31 
ROOT
ATOM      1  O15 H1S d  68     -18.146  -0.336  10.007  0.00  0.00    -0.369 OA
ATOM      2  S20 H1S d  68     -17.864   2.178   7.704  0.00  0.00     0.156 S 
ATOM      3  C7  H1S d  68     -21.793  -3.078   5.536  0.00  0.00     0.167 C 
ATOM      4  C10 H1S d  68     -19.270  -0.633   9.152  0.00  0.00     0.147 C 
ATOM      5  C6  H1S d  68     -22.710  -1.715   9.385  0.00  0.00     0.067 C 
ATOM      6  S16 H1S d  68     -25.202  -1.453  10.034  0.00  0.00     0.251 S 
ATOM      7  O13 H1S d  68     -20.572  -3.864   5.322  0.00  0.00    -0.311 OA
ATOM      8  C19 H1S d  68     -20.805  -4.923   4.471  0.00  0.00     0.147 C 
ATOM      9  O34 H1S d  68     -20.189  -7.254   3.972  0.00  0.00    -0.642 OA
ATOM     10  C27 H1S d  68     -20.020  -6.260   4.720  0.00  0.00     0.233 C 
ATOM     11  C8  H1S d  68     -18.870  -0.239   7.723  0.00  0.00     0.081 C 
ATOM     12  O22 H1S d  68     -26.544  -1.183   9.402  0.00  0.00    -0.572 OA
ATOM     13  O23 H1S d  68     -25.024  -0.435  11.142  0.00  0.00    -0.572 OA
ATOM     14  O9  H1S d  68     -18.677  -2.304   6.690  0.00  0.00    -0.391 OA
ATOM     15  O21 H1S d  68     -25.201  -2.852  10.631  0.00  0.00    -0.572 OA
ATOM     16  C24 H1S d  68     -21.730  -4.769   3.408  0.00  0.00    -0.034 C 
ATOM     17  O35 H1S d  68     -19.239  -6.277   5.680  0.00  0.00    -0.642 OA
ATOM     18  S26 H1S d  68     -22.197   0.200   4.846  0.00  0.00     0.252 S 
ATOM     19  O25 H1S d  68     -22.394  -3.056   1.748  0.00  0.00    -0.389 OA
ATOM     20  C12 H1S d  68     -21.986  -2.339   4.173  0.00  0.00     0.135 C 
ATOM     21  C17 H1S d  68     -22.505  -3.428   3.159  0.00  0.00     0.086 C 
ATOM     22  O5  H1S d  68     -20.651  -0.162   9.478  0.00  0.00    -0.350 OA
ATOM     23  C2  H1S d  68     -21.610  -0.895   8.623  0.00  0.00     0.091 C 
ATOM     24  O18 H1S d  68     -22.785  -1.080   4.272  0.00  0.00    -0.244 OA
ATOM     25  O28 H1S d  68     -18.006   2.537   9.161  0.00  0.00    -0.296 OA
ATOM     26  N14 H1S d  68     -19.184   1.179   7.341  0.00  0.00    -0.210 NA
ATOM     27  O31 H1S d  68     -20.690   0.257   4.668  0.00  0.00    -0.572 OA
ATOM     28  O11 H1S d  68     -24.101  -1.323   9.033  0.00  0.00    -0.254 OA
ATOM     29  O3  H1S d  68     -21.972  -2.228   6.730  0.00  0.00    -0.348 OA
ATOM     30  C4  H1S d  68     -19.609  -1.248   6.883  0.00  0.00     0.083 C 
ATOM     31  C1  H1S d  68     -20.870  -1.835   7.605  0.00  0.00     0.095 C 
ATOM     32  O33 H1S d  68     -22.533   0.308   6.313  0.00  0.00    -0.572 OA
ATOM     33  O30 H1S d  68     -16.630   1.346   7.450  0.00  0.00    -0.296 OA
ATOM     34  O32 H1S d  68     -22.855   1.421   4.224  0.00  0.00    -0.572 OA
ATOM     35  O29 H1S d  68     -17.759   3.446   6.904  0.00  0.00    -0.296 OA
ATOM     36  H   H1S d  68     -18.363  -0.574  10.922  0.00  0.00     0.212 HD
ATOM     37  H   H1S d  68     -22.570  -3.759   5.813  0.00  0.00     0.134 H 
ATOM     38  H   H1S d  68     -19.425  -1.679   9.315  0.00  0.00     0.131 H 
ATOM     39  H   H1S d  68     -22.574  -1.568  10.437  0.00  0.00     0.080 H 
ATOM     40  H   H1S d  68     -22.592  -2.739   9.097  0.00  0.00     0.080 H 
ATOM     41  H   H1S d  68     -17.809  -0.259   7.592  0.00  0.00     0.076 H 
ATOM     42  H   H1S d  68     -17.888  -1.962   6.243  0.00  0.00     0.210 HD
ATOM     43  H   H1S d  68     -21.899  -5.566   2.775  0.00  0.00     0.085 H 
ATOM     44  H   H1S d  68     -22.733  -3.777   1.196  0.00  0.00     0.210 HD
ATOM     45  H   H1S d  68     -21.065  -1.938   3.805  0.00  0.00     0.097 H 
ATOM     46  H   H1S d  68     -23.553  -3.535   3.347  0.00  0.00     0.093 H 
ATOM     47  H   H1S d  68     -22.131  -0.116   8.106  0.00  0.00     0.090 H 
ATOM     48  H   H1S d  68     -18.806   3.069   9.286  0.00  0.00     0.231 HD
ATOM     49  H   H1S d  68     -19.378   1.225   6.340  0.00  0.00     0.140 HD
ATOM     50  H   H1S d  68     -19.957  -0.790   5.980  0.00  0.00     0.089 H 
ATOM     51  H   H1S d  68     -20.380  -2.655   8.086  0.00  0.00     0.091 H 
ATOM     52  H   H1S d  68     -16.684   0.523   7.961  0.00  0.00     0.231 HD
ATOM     53  H   H1S d  68     -18.547   3.992   7.057  0.00  0.00     0.231 HD
ENDROOT
TORSDOF 16
ENDMDL
MODEL 76
REMARK VINA RESULT:      -5.4      3.842      5.004
REMARK  0 active torsions:
REMARK  status: ('A' for Active; 'I' for Inactive)
REMARK       I    between atoms: O15_1  and  C10_4 
REMARK       I    between atoms: S20_2  and  N14_26 
REMARK       I    between atoms: S20_2  and  O28_25 
REMARK       I    between atoms: S20_2  and  O29_35 
REMARK       I    between atoms: S20_2  and  O30_33 
REMARK       I    between atoms: C7_3  and  O3_29 
REMARK       I    between atoms: C6_5  and  C2_23 
REMARK       I    between atoms: C6_5  and  O11_28 
REMARK       I    between atoms: S16_6  and  O11_28 
REMARK       I    between atoms: C19_8  and  C27_10 
REMARK       I    between atoms: C8_11  and  N14_26 
REMARK       I    between atoms: O9_14  and  C4_30 
REMARK       I    between atoms: S26_18  and  O18_24 
REMARK       I    between atoms: O25_19  and  C17_21 
REMARK       I    between atoms: C12_20  and  O18_24 
REMARK       I    between atoms: O3_29  and  C1_31 
ROOT
ATOM      1  O15 H1S d  68     -16.531   4.899   4.830  0.00  0.00    -0.369 OA
ATOM      2  S20 H1S d  68     -15.013   4.159   7.805  0.00  0.00     0.156 S 
ATOM      3  C7  H1S d  68     -21.592   2.065   7.505  0.00  0.00     0.167 C 
ATOM      4  C10 H1S d  68     -17.420   3.881   5.334  0.00  0.00     0.147 C 
ATOM      5  C6  H1S d  68     -19.300   1.025   4.162  0.00  0.00     0.067 C 
ATOM      6  S16 H1S d  68     -19.562  -1.357   3.186  0.00  0.00     0.251 S 
ATOM      7  O13 H1S d  68     -22.014   3.460   7.684  0.00  0.00    -0.311 OA
ATOM      8  C19 H1S d  68     -23.322   3.533   8.111  0.00  0.00     0.147 C 
ATOM      9  O34 H1S d  68     -25.394   4.854   7.973  0.00  0.00    -0.642 OA
ATOM     10  C27 H1S d  68     -24.199   4.735   7.610  0.00  0.00     0.233 C 
ATOM     11  C8  H1S d  68     -17.452   4.021   6.863  0.00  0.00     0.081 C 
ATOM     12  O22 H1S d  68     -19.931  -2.754   3.617  0.00  0.00    -0.572 OA
ATOM     13  O23 H1S d  68     -18.216  -1.450   2.496  0.00  0.00    -0.572 OA
ATOM     14  O9  H1S d  68     -19.597   4.818   7.228  0.00  0.00    -0.391 OA
ATOM     15  O21 H1S d  68     -20.600  -0.847   2.198  0.00  0.00    -0.572 OA
ATOM     16  C24 H1S d  68     -23.824   2.536   8.985  0.00  0.00    -0.034 C 
ATOM     17  O35 H1S d  68     -23.652   5.544   6.849  0.00  0.00    -0.642 OA
ATOM     18  S26 H1S d  68     -19.030   0.541   9.084  0.00  0.00     0.252 S 
ATOM     19  O25 H1S d  68     -23.069   1.220  10.942  0.00  0.00    -0.389 OA
ATOM     20  C12 H1S d  68     -21.466   1.538   8.971  0.00  0.00     0.135 C 
ATOM     21  C17 H1S d  68     -22.941   1.341   9.490  0.00  0.00     0.086 C 
ATOM     22  O5  H1S d  68     -17.286   2.449   4.925  0.00  0.00    -0.350 OA
ATOM     23  C2  H1S d  68     -18.516   1.731   5.325  0.00  0.00     0.091 C 
ATOM     24  O18 H1S d  68     -20.541   0.374   9.120  0.00  0.00    -0.244 OA
ATOM     25  O28 H1S d  68     -14.225   4.011   6.528  0.00  0.00    -0.296 OA
ATOM     26  N14 H1S d  68     -16.413   3.225   7.599  0.00  0.00    -0.210 NA
ATOM     27  O31 H1S d  68     -18.604   1.925   9.540  0.00  0.00    -0.572 OA
ATOM     28  O11 H1S d  68     -19.476  -0.438   4.360  0.00  0.00    -0.254 OA
ATOM     29  O3  H1S d  68     -20.470   1.699   6.618  0.00  0.00    -0.348 OA
ATOM     30  C4  H1S d  68     -18.858   3.604   7.204  0.00  0.00     0.083 C 
ATOM     31  C1  H1S d  68     -19.494   2.666   6.121  0.00  0.00     0.095 C 
ATOM     32  O33 H1S d  68     -18.518   0.294   7.686  0.00  0.00    -0.572 OA
ATOM     33  O30 H1S d  68     -15.485   5.578   8.010  0.00  0.00    -0.296 OA
ATOM     34  O32 H1S d  68     -18.350  -0.530   9.921  0.00  0.00    -0.572 OA
ATOM     35  O29 H1S d  68     -14.132   3.776   8.962  0.00  0.00    -0.296 OA
ATOM     36  H   H1S d  68     -16.486   4.840   3.863  0.00  0.00     0.212 HD
ATOM     37  H   H1S d  68     -22.327   1.582   6.896  0.00  0.00     0.134 H 
ATOM     38  H   H1S d  68     -18.340   4.096   4.833  0.00  0.00     0.131 H 
ATOM     39  H   H1S d  68     -18.762   1.180   3.249  0.00  0.00     0.080 H 
ATOM     40  H   H1S d  68     -20.278   1.458   4.137  0.00  0.00     0.080 H 
ATOM     41  H   H1S d  68     -17.207   5.016   7.171  0.00  0.00     0.076 H 
ATOM     42  H   H1S d  68     -19.218   5.413   7.893  0.00  0.00     0.210 HD
ATOM     43  H   H1S d  68     -24.804   2.598   9.300  0.00  0.00     0.085 H 
ATOM     44  H   H1S d  68     -24.003   1.102  11.175  0.00  0.00     0.210 HD
ATOM     45  H   H1S d  68     -20.970   2.244   9.604  0.00  0.00     0.097 H 
ATOM     46  H   H1S d  68     -23.274   0.406   9.092  0.00  0.00     0.093 H 
ATOM     47  H   H1S d  68     -18.153   0.944   5.953  0.00  0.00     0.090 H 
ATOM     48  H   H1S d  68     -13.940   3.089   6.430  0.00  0.00     0.231 HD
ATOM     49  H   H1S d  68     -16.777   2.955   8.512  0.00  0.00     0.140 HD
ATOM     50  H   H1S d  68     -18.866   3.059   8.125  0.00  0.00     0.089 H 
ATOM     51  H   H1S d  68     -19.916   3.435   5.508  0.00  0.00     0.091 H 
ATOM     52  H   H1S d  68     -16.055   5.839   7.270  0.00  0.00     0.231 HD
ATOM     53  H   H1S d  68     -13.820   2.865   8.844  0.00  0.00     0.231 HD
ENDROOT
TORSDOF 16
ENDMDL
MODEL 77
REMARK VINA RESULT:      -5.3      2.917      6.436
REMARK  0 active torsions:
REMARK  status: ('A' for Active; 'I' for Inactive)
REMARK       I    between atoms: O15_1  and  C10_4 
REMARK       I    between atoms: S20_2  and  N14_26 
REMARK       I    between atoms: S20_2  and  O28_25 
REMARK       I    between atoms: S20_2  and  O29_35 
REMARK       I    between atoms: S20_2  and  O30_33 
REMARK       I    between atoms: C7_3  and  O3_29 
REMARK       I    between atoms: C6_5  and  C2_23 
REMARK       I    between atoms: C6_5  and  O11_28 
REMARK       I    between atoms: S16_6  and  O11_28 
REMARK       I    between atoms: C19_8  and  C27_10 
REMARK       I    between atoms: C8_11  and  N14_26 
REMARK       I    between atoms: O9_14  and  C4_30 
REMARK       I    between atoms: S26_18  and  O18_24 
REMARK       I    between atoms: O25_19  and  C17_21 
REMARK       I    between atoms: C12_20  and  O18_24 
REMARK       I    between atoms: O3_29  and  C1_31 
ROOT
ATOM      1  O15 H1S d  68     -23.060  -4.476  11.029  0.00  0.00    -0.369 OA
ATOM      2  S20 H1S d  68     -25.633  -2.525   9.901  0.00  0.00     0.156 S 
ATOM      3  C7  H1S d  68     -19.521  -0.833   7.155  0.00  0.00     0.167 C 
ATOM      4  C10 H1S d  68     -22.469  -3.923   9.835  0.00  0.00     0.147 C 
ATOM      5  C6  H1S d  68     -20.375  -4.929   7.066  0.00  0.00     0.067 C 
ATOM      6  S16 H1S d  68     -19.834  -6.250   4.908  0.00  0.00     0.251 S 
ATOM      7  O13 H1S d  68     -19.157  -0.200   8.428  0.00  0.00    -0.311 OA
ATOM      8  C19 H1S d  68     -18.114   0.685   8.264  0.00  0.00     0.147 C 
ATOM      9  O34 H1S d  68     -16.108   1.626   9.335  0.00  0.00    -0.642 OA
ATOM     10  C27 H1S d  68     -17.073   0.830   9.429  0.00  0.00     0.233 C 
ATOM     11  C8  H1S d  68     -23.026  -2.502   9.668  0.00  0.00     0.081 C 
ATOM     12  O22 H1S d  68     -19.705  -6.041   3.420  0.00  0.00    -0.572 OA
ATOM     13  O23 H1S d  68     -20.810  -7.391   5.110  0.00  0.00    -0.572 OA
ATOM     14  O9  H1S d  68     -21.164  -1.199  10.122  0.00  0.00    -0.391 OA
ATOM     15  O21 H1S d  68     -18.478  -6.640   5.478  0.00  0.00    -0.572 OA
ATOM     16  C24 H1S d  68     -18.022   1.433   7.063  0.00  0.00    -0.034 C 
ATOM     17  O35 H1S d  68     -17.257   0.125  10.431  0.00  0.00    -0.642 OA
ATOM     18  S26 H1S d  68     -22.543  -0.704   5.659  0.00  0.00     0.252 S 
ATOM     19  O25 H1S d  68     -19.517   2.619   5.485  0.00  0.00    -0.389 OA
ATOM     20  C12 H1S d  68     -20.222   0.322   6.369  0.00  0.00     0.135 C 
ATOM     21  C17 H1S d  68     -19.069   1.291   5.903  0.00  0.00     0.086 C 
ATOM     22  O5  H1S d  68     -22.480  -4.665   8.537  0.00  0.00    -0.350 OA
ATOM     23  C2  H1S d  68     -21.524  -4.012   7.616  0.00  0.00     0.091 C 
ATOM     24  O18 H1S d  68     -21.170  -0.149   5.314  0.00  0.00    -0.244 OA
ATOM     25  O28 H1S d  68     -25.870  -4.000  10.100  0.00  0.00    -0.296 OA
ATOM     26  N14 H1S d  68     -24.294  -2.403   8.870  0.00  0.00    -0.210 NA
ATOM     27  O31 H1S d  68     -23.067  -0.136   6.967  0.00  0.00    -0.572 OA
ATOM     28  O11 H1S d  68     -20.337  -5.016   5.582  0.00  0.00    -0.254 OA
ATOM     29  O3  H1S d  68     -20.224  -2.130   7.103  0.00  0.00    -0.348 OA
ATOM     30  C4  H1S d  68     -21.875  -1.768   9.031  0.00  0.00     0.083 C 
ATOM     31  C1  H1S d  68     -20.900  -2.721   8.256  0.00  0.00     0.095 C 
ATOM     32  O33 H1S d  68     -22.482  -2.208   5.754  0.00  0.00    -0.572 OA
ATOM     33  O30 H1S d  68     -25.232  -1.844  11.187  0.00  0.00    -0.296 OA
ATOM     34  O32 H1S d  68     -23.528  -0.443   4.532  0.00  0.00    -0.572 OA
ATOM     35  O29 H1S d  68     -26.905  -1.895   9.404  0.00  0.00    -0.296 OA
ATOM     36  H   H1S d  68     -22.729  -5.377  11.167  0.00  0.00     0.212 HD
ATOM     37  H   H1S d  68     -18.624  -1.219   6.719  0.00  0.00     0.134 H 
ATOM     38  H   H1S d  68     -21.420  -3.986  10.036  0.00  0.00     0.131 H 
ATOM     39  H   H1S d  68     -20.513  -5.915   7.459  0.00  0.00     0.080 H 
ATOM     40  H   H1S d  68     -19.450  -4.491   7.378  0.00  0.00     0.080 H 
ATOM     41  H   H1S d  68     -23.338  -2.090  10.605  0.00  0.00     0.076 H 
ATOM     42  H   H1S d  68     -21.751  -0.605  10.615  0.00  0.00     0.210 HD
ATOM     43  H   H1S d  68     -17.238   2.094   6.946  0.00  0.00     0.085 H 
ATOM     44  H   H1S d  68     -18.750   3.149   5.215  0.00  0.00     0.210 HD
ATOM     45  H   H1S d  68     -20.901   0.869   6.989  0.00  0.00     0.097 H 
ATOM     46  H   H1S d  68     -18.639   0.844   5.032  0.00  0.00     0.093 H 
ATOM     47  H   H1S d  68     -22.127  -3.757   6.769  0.00  0.00     0.090 H 
ATOM     48  H   H1S d  68     -26.126  -4.402   9.255  0.00  0.00     0.231 HD
ATOM     49  H   H1S d  68     -24.320  -1.506   8.385  0.00  0.00     0.140 HD
ATOM     50  H   H1S d  68     -22.241  -1.059   8.318  0.00  0.00     0.089 H 
ATOM     51  H   H1S d  68     -20.250  -2.943   9.076  0.00  0.00     0.091 H 
ATOM     52  H   H1S d  68     -24.411  -2.241  11.520  0.00  0.00     0.231 HD
ATOM     53  H   H1S d  68     -27.176  -2.323   8.576  0.00  0.00     0.231 HD
ENDROOT
TORSDOF 16
ENDMDL
MODEL 78
REMARK VINA RESULT:       1.6      3.449      7.262
REMARK  0 active torsions:
REMARK  status: ('A' for Active; 'I' for Inactive)
REMARK       I    between atoms: O15_1  and  C10_4 
REMARK       I    between atoms: S20_2  and  N14_26 
REMARK       I    between atoms: S20_2  and  O28_25 
REMARK       I    between atoms: S20_2  and  O29_35 
REMARK       I    between atoms: S20_2  and  O30_33 
REMARK       I    between atoms: C7_3  and  O3_29 
REMARK       I    between atoms: C6_5  and  C2_23 
REMARK       I    between atoms: C6_5  and  O11_28 
REMARK       I    between atoms: S16_6  and  O11_28 
REMARK       I    between atoms: C19_8  and  C27_10 
REMARK       I    between atoms: C8_11  and  N14_26 
REMARK       I    between atoms: O9_14  and  C4_30 
REMARK       I    between atoms: S26_18  and  O18_24 
REMARK       I    between atoms: O25_19  and  C17_21 
REMARK       I    between atoms: C12_20  and  O18_24 
REMARK       I    between atoms: O3_29  and  C1_31 
ROOT
ATOM      1  O15 H1S d  68     -20.713  -0.592   1.437  0.00  0.00    -0.369 OA
ATOM      2  S20 H1S d  68     -20.622  -3.737   2.781  0.00  0.00     0.156 S 
ATOM      3  C7  H1S d  68     -18.860   1.203   7.281  0.00  0.00     0.167 C 
ATOM      4  C10 H1S d  68     -20.744  -0.279   2.845  0.00  0.00     0.147 C 
ATOM      5  C6  H1S d  68     -22.365   1.997   5.137  0.00  0.00     0.067 C 
ATOM      6  S16 H1S d  68     -24.392   2.973   6.416  0.00  0.00     0.251 S 
ATOM      7  O13 H1S d  68     -17.561   1.314   6.606  0.00  0.00    -0.311 OA
ATOM      8  C19 H1S d  68     -16.631   1.931   7.414  0.00  0.00     0.147 C 
ATOM      9  O34 H1S d  68     -14.682   3.435   7.425  0.00  0.00    -0.642 OA
ATOM     10  C27 H1S d  68     -15.556   2.853   6.738  0.00  0.00     0.233 C 
ATOM     11  C8  H1S d  68     -19.905  -1.345   3.566  0.00  0.00     0.081 C 
ATOM     12  O22 H1S d  68     -24.996   2.988   7.798  0.00  0.00    -0.572 OA
ATOM     13  O23 H1S d  68     -25.480   2.517   5.464  0.00  0.00    -0.572 OA
ATOM     14  O9  H1S d  68     -18.055  -0.125   4.244  0.00  0.00    -0.391 OA
ATOM     15  O21 H1S d  68     -23.957   4.383   6.044  0.00  0.00    -0.572 OA
ATOM     16  C24 H1S d  68     -16.672   1.709   8.814  0.00  0.00    -0.034 C 
ATOM     17  O35 H1S d  68     -15.620   2.972   5.506  0.00  0.00    -0.642 OA
ATOM     18  S26 H1S d  68     -20.528  -1.657   7.931  0.00  0.00     0.252 S 
ATOM     19  O25 H1S d  68     -17.078  -0.153  10.395  0.00  0.00    -0.389 OA
ATOM     20  C12 H1S d  68     -18.610   0.098   8.358  0.00  0.00     0.135 C 
ATOM     21  C17 H1S d  68     -17.743   0.780   9.485  0.00  0.00     0.086 C 
ATOM     22  O5  H1S d  68     -22.029  -0.023   3.566  0.00  0.00    -0.350 OA
ATOM     23  C2  H1S d  68     -21.717   0.591   4.875  0.00  0.00     0.091 C 
ATOM     24  O18 H1S d  68     -19.848  -0.610   8.800  0.00  0.00    -0.244 OA
ATOM     25  O28 H1S d  68     -21.738  -3.383   1.831  0.00  0.00    -0.296 OA
ATOM     26  N14 H1S d  68     -20.663  -2.565   4.004  0.00  0.00    -0.210 NA
ATOM     27  O31 H1S d  68     -19.543  -2.339   6.997  0.00  0.00    -0.572 OA
ATOM     28  O11 H1S d  68     -23.226   2.043   6.350  0.00  0.00    -0.254 OA
ATOM     29  O3  H1S d  68     -20.120   1.055   6.526  0.00  0.00    -0.348 OA
ATOM     30  C4  H1S d  68     -19.316  -0.577   4.720  0.00  0.00     0.083 C 
ATOM     31  C1  H1S d  68     -20.168   0.678   5.115  0.00  0.00     0.095 C 
ATOM     32  O33 H1S d  68     -21.628  -1.018   7.120  0.00  0.00    -0.572 OA
ATOM     33  O30 H1S d  68     -19.268  -3.610   2.127  0.00  0.00    -0.296 OA
ATOM     34  O32 H1S d  68     -21.249  -2.684   8.789  0.00  0.00    -0.572 OA
ATOM     35  O29 H1S d  68     -20.805  -5.161   3.228  0.00  0.00    -0.296 OA
ATOM     36  H   H1S d  68     -21.235   0.063   0.949  0.00  0.00     0.212 HD
ATOM     37  H   H1S d  68     -19.112   2.172   7.655  0.00  0.00     0.134 H 
ATOM     38  H   H1S d  68     -20.351   0.716   2.879  0.00  0.00     0.131 H 
ATOM     39  H   H1S d  68     -22.963   2.257   4.288  0.00  0.00     0.080 H 
ATOM     40  H   H1S d  68     -21.562   2.686   5.298  0.00  0.00     0.080 H 
ATOM     41  H   H1S d  68     -19.176  -1.777   2.914  0.00  0.00     0.076 H 
ATOM     42  H   H1S d  68     -17.511  -0.887   3.993  0.00  0.00     0.210 HD
ATOM     43  H   H1S d  68     -15.972   2.174   9.412  0.00  0.00     0.085 H 
ATOM     44  H   H1S d  68     -16.570   0.345  11.053  0.00  0.00     0.210 HD
ATOM     45  H   H1S d  68     -18.063  -0.729   7.957  0.00  0.00     0.097 H 
ATOM     46  H   H1S d  68     -18.427   1.335  10.091  0.00  0.00     0.093 H 
ATOM     47  H   H1S d  68     -22.170  -0.076   5.579  0.00  0.00     0.090 H 
ATOM     48  H   H1S d  68     -22.590  -3.476   2.284  0.00  0.00     0.231 HD
ATOM     49  H   H1S d  68     -20.236  -2.943   4.850  0.00  0.00     0.140 HD
ATOM     50  H   H1S d  68     -19.266  -1.200   5.589  0.00  0.00     0.089 H 
ATOM     51  H   H1S d  68     -19.690   1.376   4.460  0.00  0.00     0.091 H 
ATOM     52  H   H1S d  68     -19.136  -2.694   1.833  0.00  0.00     0.231 HD
ATOM     53  H   H1S d  68     -21.673  -5.258   3.652  0.00  0.00     0.231 HD
ENDROOT
TORSDOF 16
ENDMDL
