MODEL 1
REMARK VINA RESULT:     -13.5      0.000      0.000
REMARK  0 active torsions:
REMARK  status: ('A' for Active; 'I' for Inactive)
REMARK       I    between atoms: C1_1  and  O3_15 
REMARK       I    between atoms: C1_2  and  O3_93 
REMARK       I    between atoms: C6_3  and  C5_89 
REMARK       I    between atoms: C6_3  and  O6_76 
REMARK       I    between atoms: O3_4  and  C3_22 
REMARK       I    between atoms: C6_5  and  C5_48 
REMARK       I    between atoms: C6_5  and  O6_31 
REMARK       I    between atoms: C4_6  and  O4_74 
REMARK       I    between atoms: C7_7  and  C8_62 
REMARK       I    between atoms: C7_7  and  N2_60 
REMARK       I    between atoms: C6_8  and  C5_52 
REMARK       I    between atoms: C3_9  and  O3_38 
REMARK       I    between atoms: C1_10  and  O4_75 
REMARK       I    between atoms: C6_12  and  C5_51 
REMARK       I    between atoms: O3_13  and  C3_42 
REMARK       I    between atoms: O4_14  and  C4_84 
REMARK       I    between atoms: O3_15  and  C3_86 
REMARK       I    between atoms: C6_16  and  C5_23 
REMARK       I    between atoms: C6_16  and  O6_58 
REMARK       I    between atoms: C1_17  and  O3_63 
REMARK       I    between atoms: C2_18  and  N2_60 
REMARK       I    between atoms: C2_19  and  N2_53 
REMARK       I    between atoms: O2_20  and  C2_66 
REMARK       I    between atoms: C3_25  and  O3_93 
REMARK       I    between atoms: C7_26  and  C8_32 
REMARK       I    between atoms: C7_26  and  N2_37 
REMARK       I    between atoms: C2_28  and  N2_44 
REMARK       I    between atoms: C7_29  and  C8_54 
REMARK       I    between atoms: C7_29  and  N2_53 
REMARK       I    between atoms: O1_33  and  C1_80 
REMARK       I    between atoms: O4_34  and  C4_40 
REMARK       I    between atoms: O4_34  and  C1_92 
REMARK       I    between atoms: C7_36  and  C8_81 
REMARK       I    between atoms: C7_36  and  N2_44 
REMARK       I    between atoms: N2_37  and  C2_83 
REMARK       I    between atoms: O3_39  and  C3_61 
REMARK       I    between atoms: C1_41  and  O4_46 
REMARK       I    between atoms: O2_43  and  C2_73 
REMARK       I    between atoms: C6_45  and  C5_87 
REMARK       I    between atoms: O4_46  and  C4_67 
REMARK       I    between atoms: C4_50  and  O4_65 
REMARK       I    between atoms: C2_55  and  O2_82 
REMARK       I    between atoms: O4_57  and  C4_71 
REMARK       I    between atoms: O3_63  and  C3_85 
REMARK       I    between atoms: O4_75  and  C4_91 
REMARK       I    between atoms: C5_77  and  C6_90 
REMARK       I    between atoms: O6_79  and  C6_90 
ROOT
ATOM      1  C1  BDP d1176       5.452 -14.474  16.564  0.00  0.00     0.160 C 
ATOM      2  O3  BDP d1176       9.137 -14.350  15.800  0.00  0.00    -0.390 OA
ATOM      3  O5  BDP d1176       5.197 -14.739  15.213  0.00  0.00    -0.340 OA
ATOM      4  O6A BDP d1176       5.255 -15.224  12.548  0.00  0.00    -0.646 OA
ATOM      5  C3  BDP d1176       7.820 -13.837  15.756  0.00  0.00     0.092 C 
ATOM      6  O4  BDP d1176       7.853 -12.928  13.549  0.00  0.00    -0.348 OA
ATOM      7  C4  BDP d1176       7.285 -13.957  14.337  0.00  0.00     0.103 C 
ATOM      8  C6  BDP d1176       5.168 -14.058  12.979  0.00  0.00     0.206 C 
ATOM      9  C2  BDP d1176       6.963 -14.513  16.824  0.00  0.00     0.110 C 
ATOM     10  O6B BDP d1176       4.632 -13.096  12.390  0.00  0.00    -0.646 OA
ATOM     11  O2  BDP d1176       7.230 -13.828  18.024  0.00  0.00    -0.388 OA
ATOM     12  C5  BDP d1176       5.770 -13.805  14.345  0.00  0.00     0.152 C 
ATOM     13  H   BDP d1176       5.099 -13.501  16.831  0.00  0.00     0.133 H 
ATOM     14  H   BDP d1176       9.483 -14.276  16.704  0.00  0.00     0.210 HD
ATOM     15  H   BDP d1176       7.799 -12.794  15.995  0.00  0.00     0.091 H 
ATOM     16  H   BDP d1176       7.541 -14.914  13.934  0.00  0.00     0.092 H 
ATOM     17  H   BDP d1176       7.218 -15.552  16.843  0.00  0.00     0.094 H 
ATOM     18  H   BDP d1176       6.973 -12.897  17.927  0.00  0.00     0.210 HD
ATOM     19  H   BDP d1176       5.568 -12.800  14.652  0.00  0.00     0.104 H 
ATOM     20  C1  BDP d1178      10.361 -11.875   8.425  0.00  0.00     0.160 C 
ATOM     21  C6  BDP d1178      11.911 -14.036   5.813  0.00  0.00     0.206 C 
ATOM     22  O6B BDP d1178      11.436 -14.784   4.925  0.00  0.00    -0.646 OA
ATOM     23  O6A BDP d1178      13.113 -14.040   6.175  0.00  0.00    -0.646 OA
ATOM     24  O3  BDP d1178      10.370  -9.430   5.611  0.00  0.00    -0.390 OA
ATOM     25  O2  BDP d1178       9.796  -9.533   8.353  0.00  0.00    -0.388 OA
ATOM     26  C5  BDP d1178      10.933 -13.048   6.453  0.00  0.00     0.152 C 
ATOM     27  C3  BDP d1178      10.154 -10.646   6.291  0.00  0.00     0.092 C 
ATOM     28  C2  BDP d1178      10.569 -10.531   7.736  0.00  0.00     0.110 C 
ATOM     29  O4  BDP d1178      10.263 -12.040   4.427  0.00  0.00    -0.348 OA
ATOM     30  O5  BDP d1178      11.214 -12.829   7.831  0.00  0.00    -0.340 OA
ATOM     31  C4  BDP d1178      10.932 -11.768   5.625  0.00  0.00     0.103 C 
ATOM     32  H   BDP d1178       9.366 -12.250   8.313  0.00  0.00     0.133 H 
ATOM     33  H   BDP d1178       9.868  -8.723   6.045  0.00  0.00     0.210 HD
ATOM     34  H   BDP d1178      10.056  -9.451   9.284  0.00  0.00     0.210 HD
ATOM     35  H   BDP d1178       9.946 -13.460   6.446  0.00  0.00     0.104 H 
ATOM     36  H   BDP d1178       9.108 -10.868   6.250  0.00  0.00     0.091 H 
ATOM     37  H   BDP d1178      11.603 -10.264   7.809  0.00  0.00     0.094 H 
ATOM     38  H   BDP d1178      11.950 -11.464   5.496  0.00  0.00     0.092 H 
ATOM     39  C6  NAG d1177      12.174 -14.892  13.200  0.00  0.00     0.043 C 
ATOM     40  O4  NAG d1177      12.336 -13.779  10.432  0.00  0.00    -0.390 OA
ATOM     41  C2  NAG d1177       9.102 -12.320  11.584  0.00  0.00     0.087 C 
ATOM     42  C3  NAG d1177      10.203 -12.762  10.631  0.00  0.00     0.093 C 
ATOM     43  C7  NAG d1177       7.230 -10.881  10.875  0.00  0.00     0.214 C 
ATOM     44  N2  NAG d1177       7.911 -12.022  10.801  0.00  0.00    -0.349 N 
ATOM     45  C8  NAG d1177       5.854 -10.928  10.282  0.00  0.00    -0.003 C 
ATOM     46  O7  NAG d1177       7.666  -9.836  11.369  0.00  0.00    -0.274 OA
ATOM     47  O6  NAG d1177      12.144 -14.367  14.515  0.00  0.00    -0.398 OA
ATOM     48  C4  NAG d1177      11.420 -13.276  11.385  0.00  0.00     0.089 C 
ATOM     49  O5  NAG d1177      10.022 -13.830  13.264  0.00  0.00    -0.349 OA
ATOM     50  C5  NAG d1177      10.999 -14.351  12.386  0.00  0.00     0.089 C 
ATOM     51  C1  NAG d1177       8.830 -13.414  12.618  0.00  0.00     0.154 C 
ATOM     52  O3  NAG d1177      10.606 -11.676   9.828  0.00  0.00    -0.348 OA
ATOM     53  H   NAG d1177      13.090 -14.607  12.728  0.00  0.00     0.078 H 
ATOM     54  H   NAG d1177      12.101 -15.958  13.249  0.00  0.00     0.078 H 
ATOM     55  H   NAG d1177      12.581 -13.072   9.815  0.00  0.00     0.210 HD
ATOM     56  H   NAG d1177       9.399 -11.442  12.119  0.00  0.00     0.084 H 
ATOM     57  H   NAG d1177       9.807 -13.552  10.027  0.00  0.00     0.091 H 
ATOM     58  H   NAG d1177       7.588 -12.711  10.176  0.00  0.00     0.163 HD
ATOM     59  H   NAG d1177       5.660 -11.912   9.909  0.00  0.00     0.040 H 
ATOM     60  H   NAG d1177       5.787 -10.223   9.481  0.00  0.00     0.040 H 
ATOM     61  H   NAG d1177       5.133 -10.684  11.035  0.00  0.00     0.040 H 
ATOM     62  H   NAG d1177      12.209 -13.400  14.480  0.00  0.00     0.209 HD
ATOM     63  H   NAG d1177      11.885 -12.491  11.944  0.00  0.00     0.091 H 
ATOM     64  H   NAG d1177      10.598 -15.166  11.821  0.00  0.00     0.090 H 
ATOM     65  H   NAG d1177       8.445 -14.283  12.127  0.00  0.00     0.132 H 
ATOM     66  C6  NAG d1175       0.030 -16.515  16.590  0.00  0.00     0.043 C 
ATOM     67  O3  NAG d1175       4.766 -15.470  17.355  0.00  0.00    -0.348 OA
ATOM     68  C2  NAG d1175       3.268 -15.519  19.223  0.00  0.00     0.087 C 
ATOM     69  O6  NAG d1175      -1.277 -16.347  17.091  0.00  0.00    -0.398 OA
ATOM     70  O1  NAG d1175       1.659 -15.953  20.984  0.00  0.00    -0.369 OA
ATOM     71  C7  NAG d1175       4.800 -15.206  21.102  0.00  0.00     0.214 C 
ATOM     72  N2  NAG d1175       4.103 -14.691  20.087  0.00  0.00    -0.349 N 
ATOM     73  C5  NAG d1175       0.981 -15.711  17.468  0.00  0.00     0.089 C 
ATOM     74  O5  NAG d1175       1.032 -16.274  18.771  0.00  0.00    -0.349 OA
ATOM     75  C4  NAG d1175       2.366 -15.648  16.821  0.00  0.00     0.089 C 
ATOM     76  O4  NAG d1175       2.246 -14.863  15.649  0.00  0.00    -0.390 OA
ATOM     77  O7  NAG d1175       5.612 -16.129  20.961  0.00  0.00    -0.274 OA
ATOM     78  C1  NAG d1175       1.798 -15.477  19.659  0.00  0.00     0.151 C 
ATOM     79  C8  NAG d1175       4.555 -14.585  22.450  0.00  0.00    -0.003 C 
ATOM     80  C3  NAG d1175       3.452 -15.087  17.758  0.00  0.00     0.093 C 
ATOM     81  H   NAG d1175       0.298 -17.550  16.616  0.00  0.00     0.078 H 
ATOM     82  H   NAG d1175       0.085 -16.174  15.577  0.00  0.00     0.078 H 
ATOM     83  H   NAG d1175       3.578 -16.540  19.312  0.00  0.00     0.084 H 
ATOM     84  H   NAG d1175      -1.313 -16.659  18.009  0.00  0.00     0.209 HD
ATOM     85  H   NAG d1175       2.186 -15.402  21.583  0.00  0.00     0.212 HD
ATOM     86  H   NAG d1175       4.154 -13.723  19.916  0.00  0.00     0.163 HD
ATOM     87  H   NAG d1175       0.621 -14.708  17.562  0.00  0.00     0.090 H 
ATOM     88  H   NAG d1175       2.690 -16.642  16.591  0.00  0.00     0.091 H 
ATOM     89  H   NAG d1175       1.952 -13.970  15.887  0.00  0.00     0.210 HD
ATOM     90  H   NAG d1175       1.448 -14.466  19.631  0.00  0.00     0.132 H 
ATOM     91  H   NAG d1175       3.823 -13.809  22.357  0.00  0.00     0.040 H 
ATOM     92  H   NAG d1175       5.467 -14.170  22.823  0.00  0.00     0.040 H 
ATOM     93  H   NAG d1175       4.198 -15.332  23.128  0.00  0.00     0.040 H 
ATOM     94  H   NAG d1175       3.340 -14.025  17.688  0.00  0.00     0.091 H 
ATOM     95  C4  NAG d1181       9.543 -18.358  -7.739  0.00  0.00     0.089 C 
ATOM     96  C3  NAG d1181      11.044 -18.061  -7.674  0.00  0.00     0.086 C 
ATOM     97  C6  NAG d1181       7.262 -17.869  -6.758  0.00  0.00     0.043 C 
ATOM     98  C5  NAG d1181       8.718 -17.407  -6.859  0.00  0.00     0.089 C 
ATOM     99  C7  NAG d1181      13.850 -18.139  -5.692  0.00  0.00     0.214 C 
ATOM    100  C8  NAG d1181      13.803 -18.488  -4.230  0.00  0.00    -0.003 C 
ATOM    101  N2  NAG d1181      12.866 -17.374  -6.163  0.00  0.00    -0.349 N 
ATOM    102  O3  NAG d1181      11.784 -19.120  -8.263  0.00  0.00    -0.391 OA
ATOM    103  C1  NAG d1181      10.577 -16.870  -5.494  0.00  0.00     0.154 C 
ATOM    104  O6  NAG d1181       6.441 -16.796  -6.344  0.00  0.00    -0.398 OA
ATOM    105  O5  NAG d1181       9.248 -17.330  -5.547  0.00  0.00    -0.349 OA
ATOM    106  O7  NAG d1181      14.762 -18.552  -6.413  0.00  0.00    -0.274 OA
ATOM    107  O4  NAG d1181       9.108 -18.260  -9.076  0.00  0.00    -0.390 OA
ATOM    108  C2  NAG d1181      11.492 -17.850  -6.226  0.00  0.00     0.087 C 
ATOM    109  H   NAG d1181       9.392 -19.348  -7.364  0.00  0.00     0.091 H 
ATOM    110  H   NAG d1181      11.231 -17.162  -8.223  0.00  0.00     0.090 H 
ATOM    111  H   NAG d1181       7.191 -18.663  -6.045  0.00  0.00     0.078 H 
ATOM    112  H   NAG d1181       6.935 -18.211  -7.717  0.00  0.00     0.078 H 
ATOM    113  H   NAG d1181       8.762 -16.445  -7.326  0.00  0.00     0.090 H 
ATOM    114  H   NAG d1181      12.941 -18.037  -3.783  0.00  0.00     0.040 H 
ATOM    115  H   NAG d1181      14.686 -18.124  -3.748  0.00  0.00     0.040 H 
ATOM    116  H   NAG d1181      13.747 -19.551  -4.118  0.00  0.00     0.040 H 
ATOM    117  H   NAG d1181      13.073 -16.463  -6.477  0.00  0.00     0.163 HD
ATOM    118  H   NAG d1181      11.620 -19.941  -7.772  0.00  0.00     0.210 HD
ATOM    119  H   NAG d1181      10.599 -15.904  -5.955  0.00  0.00     0.132 H 
ATOM    120  H   NAG d1181       6.734 -16.482  -5.475  0.00  0.00     0.209 HD
ATOM    121  H   NAG d1181       9.252 -17.357  -9.398  0.00  0.00     0.210 HD
ATOM    122  H   NAG d1181      11.431 -18.801  -5.739  0.00  0.00     0.084 H 
ATOM    123  C7  NAG d1179       8.802 -14.593   2.912  0.00  0.00     0.214 C 
ATOM    124  C1  NAG d1179      11.098 -12.058   3.257  0.00  0.00     0.154 C 
ATOM    125  C2  NAG d1179      10.283 -12.811   2.213  0.00  0.00     0.087 C 
ATOM    126  O5  NAG d1179      11.404 -10.763   2.786  0.00  0.00    -0.349 OA
ATOM    127  O7  NAG d1179       7.809 -14.166   2.327  0.00  0.00    -0.274 OA
ATOM    128  O4  NAG d1179      12.008 -11.348  -0.768  0.00  0.00    -0.390 OA
ATOM    129  N2  NAG d1179      10.039 -14.179   2.642  0.00  0.00    -0.349 N 
ATOM    130  C8  NAG d1179       8.640 -15.629   3.982  0.00  0.00    -0.003 C 
ATOM    131  O3  NAG d1179       9.897 -13.205  -0.108  0.00  0.00    -0.348 OA
ATOM    132  C4  NAG d1179      11.303 -11.348   0.456  0.00  0.00     0.089 C 
ATOM    133  C5  NAG d1179      12.155 -10.762   1.584  0.00  0.00     0.089 C 
ATOM    134  O6  NAG d1179      11.511  -8.487   1.049  0.00  0.00    -0.398 OA
ATOM    135  C3  NAG d1179      10.883 -12.771   0.810  0.00  0.00     0.093 C 
ATOM    136  C6  NAG d1179      12.619  -9.336   1.286  0.00  0.00     0.043 C 
ATOM    137  H   NAG d1179      12.041 -12.516   3.472  0.00  0.00     0.132 H 
ATOM    138  H   NAG d1179       9.349 -12.294   2.139  0.00  0.00     0.084 H 
ATOM    139  H   NAG d1179      11.446 -11.724  -1.464  0.00  0.00     0.210 HD
ATOM    140  H   NAG d1179      10.794 -14.804   2.733  0.00  0.00     0.163 HD
ATOM    141  H   NAG d1179       9.599 -15.883   4.381  0.00  0.00     0.040 H 
ATOM    142  H   NAG d1179       8.183 -16.503   3.566  0.00  0.00     0.040 H 
ATOM    143  H   NAG d1179       8.021 -15.241   4.764  0.00  0.00     0.040 H 
ATOM    144  H   NAG d1179      10.434 -10.735   0.341  0.00  0.00     0.091 H 
ATOM    145  H   NAG d1179      13.027 -11.374   1.679  0.00  0.00     0.090 H 
ATOM    146  H   NAG d1179      11.827  -7.589   0.862  0.00  0.00     0.209 HD
ATOM    147  H   NAG d1179      11.744 -13.404   0.769  0.00  0.00     0.091 H 
ATOM    148  H   NAG d1179      13.246  -9.346   0.419  0.00  0.00     0.078 H 
ATOM    149  H   NAG d1179      13.160  -8.968   2.132  0.00  0.00     0.078 H 
ATOM    150  C6  BDP d1180      12.797 -14.489  -3.613  0.00  0.00     0.206 C 
ATOM    151  O3  BDP d1180       8.217 -16.303  -3.249  0.00  0.00    -0.390 OA
ATOM    152  C1  BDP d1180      10.336 -14.320  -0.898  0.00  0.00     0.160 C 
ATOM    153  O2  BDP d1180       8.604 -15.825  -0.286  0.00  0.00    -0.388 OA
ATOM    154  C3  BDP d1180       9.408 -16.093  -2.517  0.00  0.00     0.092 C 
ATOM    155  O4  BDP d1180      11.044 -16.761  -4.139  0.00  0.00    -0.348 OA
ATOM    156  O5  BDP d1180      11.115 -13.875  -1.987  0.00  0.00    -0.340 OA
ATOM    157  C5  BDP d1180      11.653 -14.960  -2.713  0.00  0.00     0.152 C 
ATOM    158  O6B BDP d1180      12.590 -13.516  -4.378  0.00  0.00    -0.646 OA
ATOM    159  O6A BDP d1180      13.891 -15.097  -3.523  0.00  0.00    -0.646 OA
ATOM    160  C2  BDP d1180       9.115 -15.100  -1.385  0.00  0.00     0.110 C 
ATOM    161  C4  BDP d1180      10.514 -15.636  -3.473  0.00  0.00     0.103 C 
ATOM    162  H   BDP d1180       7.514 -16.592  -2.647  0.00  0.00     0.210 HD
ATOM    163  H   BDP d1180      10.947 -14.964  -0.300  0.00  0.00     0.133 H 
ATOM    164  H   BDP d1180       8.412 -15.215   0.443  0.00  0.00     0.210 HD
ATOM    165  H   BDP d1180       9.759 -16.995  -2.061  0.00  0.00     0.091 H 
ATOM    166  H   BDP d1180      12.087 -15.687  -2.059  0.00  0.00     0.104 H 
ATOM    167  H   BDP d1180       8.425 -14.384  -1.780  0.00  0.00     0.094 H 
ATOM    168  H   BDP d1180      10.088 -14.940  -4.165  0.00  0.00     0.092 H 
ENDROOT
TORSDOF 43
ENDMDL
MODEL 2
REMARK VINA RESULT:      -9.7      1.729      2.018
REMARK  0 active torsions:
REMARK  status: ('A' for Active; 'I' for Inactive)
REMARK       I    between atoms: C1_1  and  O3_15 
REMARK       I    between atoms: C1_2  and  O3_93 
REMARK       I    between atoms: C6_3  and  C5_89 
REMARK       I    between atoms: C6_3  and  O6_76 
REMARK       I    between atoms: O3_4  and  C3_22 
REMARK       I    between atoms: C6_5  and  C5_48 
REMARK       I    between atoms: C6_5  and  O6_31 
REMARK       I    between atoms: C4_6  and  O4_74 
REMARK       I    between atoms: C7_7  and  C8_62 
REMARK       I    between atoms: C7_7  and  N2_60 
REMARK       I    between atoms: C6_8  and  C5_52 
REMARK       I    between atoms: C3_9  and  O3_38 
REMARK       I    between atoms: C1_10  and  O4_75 
REMARK       I    between atoms: C6_12  and  C5_51 
REMARK       I    between atoms: O3_13  and  C3_42 
REMARK       I    between atoms: O4_14  and  C4_84 
REMARK       I    between atoms: O3_15  and  C3_86 
REMARK       I    between atoms: C6_16  and  C5_23 
REMARK       I    between atoms: C6_16  and  O6_58 
REMARK       I    between atoms: C1_17  and  O3_63 
REMARK       I    between atoms: C2_18  and  N2_60 
REMARK       I    between atoms: C2_19  and  N2_53 
REMARK       I    between atoms: O2_20  and  C2_66 
REMARK       I    between atoms: C3_25  and  O3_93 
REMARK       I    between atoms: C7_26  and  C8_32 
REMARK       I    between atoms: C7_26  and  N2_37 
REMARK       I    between atoms: C2_28  and  N2_44 
REMARK       I    between atoms: C7_29  and  C8_54 
REMARK       I    between atoms: C7_29  and  N2_53 
REMARK       I    between atoms: O1_33  and  C1_80 
REMARK       I    between atoms: O4_34  and  C4_40 
REMARK       I    between atoms: O4_34  and  C1_92 
REMARK       I    between atoms: C7_36  and  C8_81 
REMARK       I    between atoms: C7_36  and  N2_44 
REMARK       I    between atoms: N2_37  and  C2_83 
REMARK       I    between atoms: O3_39  and  C3_61 
REMARK       I    between atoms: C1_41  and  O4_46 
REMARK       I    between atoms: O2_43  and  C2_73 
REMARK       I    between atoms: C6_45  and  C5_87 
REMARK       I    between atoms: O4_46  and  C4_67 
REMARK       I    between atoms: C4_50  and  O4_65 
REMARK       I    between atoms: C2_55  and  O2_82 
REMARK       I    between atoms: O4_57  and  C4_71 
REMARK       I    between atoms: O3_63  and  C3_85 
REMARK       I    between atoms: O4_75  and  C4_91 
REMARK       I    between atoms: C5_77  and  C6_90 
REMARK       I    between atoms: O6_79  and  C6_90 
ROOT
ATOM      1  C1  BDP d1176       7.783 -14.755  17.668  0.00  0.00     0.160 C 
ATOM      2  O3  BDP d1176      11.134 -13.586  16.412  0.00  0.00    -0.390 OA
ATOM      3  O5  BDP d1176       7.488 -15.235  16.387  0.00  0.00    -0.340 OA
ATOM      4  O6A BDP d1176       7.422 -15.974  13.780  0.00  0.00    -0.646 OA
ATOM      5  C3  BDP d1176       9.726 -13.513  16.507  0.00  0.00     0.092 C 
ATOM      6  O4  BDP d1176       9.237 -12.891  14.254  0.00  0.00    -0.348 OA
ATOM      7  C4  BDP d1176       9.113 -13.950  15.185  0.00  0.00     0.103 C 
ATOM      8  C6  BDP d1176       7.012 -14.851  14.132  0.00  0.00     0.206 C 
ATOM      9  C2  BDP d1176       9.246 -14.296  17.727  0.00  0.00     0.110 C 
ATOM     10  O6B BDP d1176       6.138 -14.174  13.551  0.00  0.00    -0.646 OA
ATOM     11  O2  BDP d1176       9.401 -13.432  18.826  0.00  0.00    -0.388 OA
ATOM     12  C5  BDP d1176       7.638 -14.273  15.383  0.00  0.00     0.152 C 
ATOM     13  H   BDP d1176       7.166 -13.915  17.907  0.00  0.00     0.133 H 
ATOM     14  H   BDP d1176      11.530 -13.308  17.253  0.00  0.00     0.210 HD
ATOM     15  H   BDP d1176       9.397 -12.508  16.669  0.00  0.00     0.091 H 
ATOM     16  H   BDP d1176       9.619 -14.820  14.823  0.00  0.00     0.092 H 
ATOM     17  H   BDP d1176       9.820 -15.197  17.787  0.00  0.00     0.094 H 
ATOM     18  H   BDP d1176       8.852 -12.643  18.697  0.00  0.00     0.210 HD
ATOM     19  H   BDP d1176       7.158 -13.352  15.640  0.00  0.00     0.104 H 
ATOM     20  C1  BDP d1178      10.733 -11.696   8.778  0.00  0.00     0.160 C 
ATOM     21  C6  BDP d1178      12.613 -13.551   6.148  0.00  0.00     0.206 C 
ATOM     22  O6B BDP d1178      12.314 -14.504   5.389  0.00  0.00    -0.646 OA
ATOM     23  O6A BDP d1178      13.785 -13.144   6.346  0.00  0.00    -0.646 OA
ATOM     24  O3  BDP d1178       9.668  -9.699   5.816  0.00  0.00    -0.390 OA
ATOM     25  O2  BDP d1178       9.443  -9.666   8.610  0.00  0.00    -0.388 OA
ATOM     26  C5  BDP d1178      11.443 -12.848   6.839  0.00  0.00     0.152 C 
ATOM     27  C3  BDP d1178       9.923 -10.838   6.606  0.00  0.00     0.092 C 
ATOM     28  C2  BDP d1178      10.427 -10.439   7.971  0.00  0.00     0.110 C 
ATOM     29  O4  BDP d1178      10.280 -12.329   4.852  0.00  0.00    -0.348 OA
ATOM     30  O5  BDP d1178      11.779 -12.401   8.147  0.00  0.00    -0.340 OA
ATOM     31  C4  BDP d1178      10.946 -11.732   5.927  0.00  0.00     0.103 C 
ATOM     32  H   BDP d1178       9.904 -12.370   8.827  0.00  0.00     0.133 H 
ATOM     33  H   BDP d1178       9.014  -9.137   6.260  0.00  0.00     0.210 HD
ATOM     34  H   BDP d1178       9.758  -9.405   9.489  0.00  0.00     0.210 HD
ATOM     35  H   BDP d1178      10.644 -13.543   6.994  0.00  0.00     0.104 H 
ATOM     36  H   BDP d1178       9.006 -11.375   6.721  0.00  0.00     0.091 H 
ATOM     37  H   BDP d1178      11.323  -9.860   7.885  0.00  0.00     0.094 H 
ATOM     38  H   BDP d1178      11.794 -11.145   5.641  0.00  0.00     0.092 H 
ATOM     39  C6  NAG d1177      13.899 -13.451  13.477  0.00  0.00     0.043 C 
ATOM     40  O4  NAG d1177      13.410 -12.660  10.638  0.00  0.00    -0.390 OA
ATOM     41  C2  NAG d1177      10.015 -12.151  12.101  0.00  0.00     0.087 C 
ATOM     42  C3  NAG d1177      11.096 -12.336  11.044  0.00  0.00     0.093 C 
ATOM     43  C7  NAG d1177       7.720 -11.450  11.545  0.00  0.00     0.214 C 
ATOM     44  N2  NAG d1177       8.718 -12.325  11.464  0.00  0.00    -0.349 N 
ATOM     45  C8  NAG d1177       6.377 -11.985  11.146  0.00  0.00    -0.003 C 
ATOM     46  O7  NAG d1177       7.846 -10.273  11.898  0.00  0.00    -0.274 OA
ATOM     47  O6  NAG d1177      13.839 -12.818  14.742  0.00  0.00    -0.398 OA
ATOM     48  C4  NAG d1177      12.484 -12.361  11.665  0.00  0.00     0.089 C 
ATOM     49  O5  NAG d1177      11.539 -13.106  13.749  0.00  0.00    -0.349 OA
ATOM     50  C5  NAG d1177      12.535 -13.395  12.790  0.00  0.00     0.089 C 
ATOM     51  C1  NAG d1177      10.217 -13.153  13.239  0.00  0.00     0.154 C 
ATOM     52  O3  NAG d1177      11.045 -11.276  10.118  0.00  0.00    -0.348 OA
ATOM     53  H   NAG d1177      14.622 -12.952  12.867  0.00  0.00     0.078 H 
ATOM     54  H   NAG d1177      14.177 -14.476  13.613  0.00  0.00     0.078 H 
ATOM     55  H   NAG d1177      13.350 -11.986   9.943  0.00  0.00     0.210 HD
ATOM     56  H   NAG d1177      10.070 -11.170  12.525  0.00  0.00     0.084 H 
ATOM     57  H   NAG d1177      10.913 -13.272  10.559  0.00  0.00     0.091 H 
ATOM     58  H   NAG d1177       8.570 -13.145  10.940  0.00  0.00     0.163 HD
ATOM     59  H   NAG d1177       6.471 -13.016  10.874  0.00  0.00     0.040 H 
ATOM     60  H   NAG d1177       6.005 -11.429  10.311  0.00  0.00     0.040 H 
ATOM     61  H   NAG d1177       5.698 -11.893  11.967  0.00  0.00     0.040 H 
ATOM     62  H   NAG d1177      13.587 -11.888  14.627  0.00  0.00     0.209 HD
ATOM     63  H   NAG d1177      12.729 -11.414  12.098  0.00  0.00     0.091 H 
ATOM     64  H   NAG d1177      12.361 -14.351  12.344  0.00  0.00     0.090 H 
ATOM     65  H   NAG d1177      10.082 -14.148  12.869  0.00  0.00     0.132 H 
ATOM     66  C6  NAG d1175       3.332 -18.354  18.567  0.00  0.00     0.043 C 
ATOM     67  O3  NAG d1175       7.538 -15.819  18.615  0.00  0.00    -0.348 OA
ATOM     68  C2  NAG d1175       6.336 -16.119  20.665  0.00  0.00     0.087 C 
ATOM     69  O6  NAG d1175       2.100 -18.542  19.225  0.00  0.00    -0.398 OA
ATOM     70  O1  NAG d1175       5.141 -16.828  22.651  0.00  0.00    -0.369 OA
ATOM     71  C7  NAG d1175       7.873 -15.140  22.294  0.00  0.00     0.214 C 
ATOM     72  N2  NAG d1175       6.947 -14.982  21.346  0.00  0.00    -0.349 N 
ATOM     73  C5  NAG d1175       4.062 -17.203  19.250  0.00  0.00     0.089 C 
ATOM     74  O5  NAG d1175       4.425 -17.573  20.572  0.00  0.00    -0.349 OA
ATOM     75  C4  NAG d1175       5.279 -16.788  18.420  0.00  0.00     0.089 C 
ATOM     76  O4  NAG d1175       4.793 -16.215  17.220  0.00  0.00    -0.390 OA
ATOM     77  O7  NAG d1175       8.918 -15.777  22.114  0.00  0.00    -0.274 OA
ATOM     78  C1  NAG d1175       4.983 -16.484  21.289  0.00  0.00     0.151 C 
ATOM     79  C8  NAG d1175       7.582 -14.478  23.613  0.00  0.00    -0.003 C 
ATOM     80  C3  NAG d1175       6.219 -15.818  19.161  0.00  0.00     0.093 C 
ATOM     81  H   NAG d1175       3.920 -19.246  18.634  0.00  0.00     0.078 H 
ATOM     82  H   NAG d1175       3.170 -18.128  17.534  0.00  0.00     0.078 H 
ATOM     83  H   NAG d1175       6.964 -16.977  20.786  0.00  0.00     0.084 H 
ATOM     84  H   NAG d1175       2.261 -18.745  20.160  0.00  0.00     0.209 HD
ATOM     85  H   NAG d1175       5.523 -16.078  23.132  0.00  0.00     0.212 HD
ATOM     86  H   NAG d1175       6.667 -14.072  21.099  0.00  0.00     0.163 HD
ATOM     87  H   NAG d1175       3.412 -16.356  19.316  0.00  0.00     0.090 H 
ATOM     88  H   NAG d1175       5.879 -17.653  18.223  0.00  0.00     0.091 H 
ATOM     89  H   NAG d1175       4.255 -15.435  17.429  0.00  0.00     0.210 HD
ATOM     90  H   NAG d1175       4.326 -15.640  21.234  0.00  0.00     0.132 H 
ATOM     91  H   NAG d1175       6.635 -13.982  23.562  0.00  0.00     0.040 H 
ATOM     92  H   NAG d1175       8.347 -13.763  23.829  0.00  0.00     0.040 H 
ATOM     93  H   NAG d1175       7.556 -15.217  24.385  0.00  0.00     0.040 H 
ATOM     94  H   NAG d1175       5.766 -14.857  19.028  0.00  0.00     0.091 H 
ATOM     95  C4  NAG d1181      10.365 -19.881  -6.611  0.00  0.00     0.089 C 
ATOM     96  C3  NAG d1181      11.691 -19.130  -6.770  0.00  0.00     0.086 C 
ATOM     97  C6  NAG d1181       8.162 -20.013  -5.373  0.00  0.00     0.043 C 
ATOM     98  C5  NAG d1181       9.375 -19.139  -5.702  0.00  0.00     0.089 C 
ATOM     99  C7  NAG d1181      14.563 -18.116  -5.180  0.00  0.00     0.214 C 
ATOM    100  C8  NAG d1181      14.782 -18.296  -3.702  0.00  0.00    -0.003 C 
ATOM    101  N2  NAG d1181      13.343 -17.750  -5.570  0.00  0.00    -0.349 N 
ATOM    102  O3  NAG d1181      12.666 -19.969  -7.373  0.00  0.00    -0.391 OA
ATOM    103  C1  NAG d1181      11.095 -17.905  -4.640  0.00  0.00     0.154 C 
ATOM    104  O6  NAG d1181       7.089 -19.207  -4.934  0.00  0.00    -0.398 OA
ATOM    105  O5  NAG d1181       9.985 -18.756  -4.482  0.00  0.00    -0.349 OA
ATOM    106  O7  NAG d1181      15.480 -18.305  -5.984  0.00  0.00    -0.274 OA
ATOM    107  O4  NAG d1181       9.786 -20.073  -7.882  0.00  0.00    -0.390 OA
ATOM    108  C2  NAG d1181      12.195 -18.630  -5.414  0.00  0.00     0.087 C 
ATOM    109  H   NAG d1181      10.580 -20.821  -6.148  0.00  0.00     0.091 H 
ATOM    110  H   NAG d1181      11.523 -18.285  -7.403  0.00  0.00     0.090 H 
ATOM    111  H   NAG d1181       8.424 -20.706  -4.601  0.00  0.00     0.078 H 
ATOM    112  H   NAG d1181       7.864 -20.545  -6.253  0.00  0.00     0.078 H 
ATOM    113  H   NAG d1181       9.061 -18.269  -6.240  0.00  0.00     0.090 H 
ATOM    114  H   NAG d1181      13.872 -18.087  -3.179  0.00  0.00     0.040 H 
ATOM    115  H   NAG d1181      15.547 -17.626  -3.371  0.00  0.00     0.040 H 
ATOM    116  H   NAG d1181      15.081 -19.305  -3.506  0.00  0.00     0.040 H 
ATOM    117  H   NAG d1181      13.214 -16.861  -5.975  0.00  0.00     0.163 HD
ATOM    118  H   NAG d1181      12.825 -20.739  -6.805  0.00  0.00     0.210 HD
ATOM    119  H   NAG d1181      10.759 -17.038  -5.170  0.00  0.00     0.132 H 
ATOM    120  H   NAG d1181       7.354 -18.723  -4.137  0.00  0.00     0.209 HD
ATOM    121  H   NAG d1181       9.599 -19.212  -8.286  0.00  0.00     0.210 HD
ATOM    122  H   NAG d1181      12.492 -19.493  -4.855  0.00  0.00     0.084 H 
ATOM    123  C7  NAG d1179       9.565 -15.362   3.737  0.00  0.00     0.214 C 
ATOM    124  C1  NAG d1179      10.951 -12.220   3.586  0.00  0.00     0.154 C 
ATOM    125  C2  NAG d1179      10.316 -13.299   2.718  0.00  0.00     0.087 C 
ATOM    126  O5  NAG d1179      10.776 -10.955   2.984  0.00  0.00    -0.349 OA
ATOM    127  O7  NAG d1179       8.432 -15.330   3.260  0.00  0.00    -0.274 OA
ATOM    128  O4  NAG d1179      11.164 -11.719  -0.567  0.00  0.00    -0.390 OA
ATOM    129  N2  NAG d1179      10.568 -14.619   3.275  0.00  0.00    -0.349 N 
ATOM    130  C8  NAG d1179       9.854 -16.270   4.893  0.00  0.00    -0.003 C 
ATOM    131  O3  NAG d1179       9.839 -14.051   0.504  0.00  0.00    -0.348 OA
ATOM    132  C4  NAG d1179      10.627 -11.799   0.737  0.00  0.00     0.089 C 
ATOM    133  C5  NAG d1179      11.358 -10.857   1.696  0.00  0.00     0.089 C 
ATOM    134  O6  NAG d1179       9.969  -8.966   1.085  0.00  0.00    -0.398 OA
ATOM    135  C3  NAG d1179      10.723 -13.233   1.248  0.00  0.00     0.093 C 
ATOM    136  C6  NAG d1179      11.308  -9.400   1.234  0.00  0.00     0.043 C 
ATOM    137  H   NAG d1179      12.008 -12.337   3.706  0.00  0.00     0.132 H 
ATOM    138  H   NAG d1179       9.263 -13.108   2.731  0.00  0.00     0.084 H 
ATOM    139  H   NAG d1179      10.683 -12.325  -1.152  0.00  0.00     0.210 HD
ATOM    140  H   NAG d1179      11.489 -14.966   3.310  0.00  0.00     0.163 HD
ATOM    141  H   NAG d1179      10.880 -16.170   5.177  0.00  0.00     0.040 H 
ATOM    142  H   NAG d1179       9.660 -17.284   4.607  0.00  0.00     0.040 H 
ATOM    143  H   NAG d1179       9.228 -16.007   5.719  0.00  0.00     0.040 H 
ATOM    144  H   NAG d1179       9.600 -11.501   0.695  0.00  0.00     0.091 H 
ATOM    145  H   NAG d1179      12.386 -11.155   1.718  0.00  0.00     0.090 H 
ATOM    146  H   NAG d1179       9.959  -8.041   0.792  0.00  0.00     0.209 HD
ATOM    147  H   NAG d1179      11.732 -13.571   1.139  0.00  0.00     0.091 H 
ATOM    148  H   NAG d1179      11.812  -9.313   0.294  0.00  0.00     0.078 H 
ATOM    149  H   NAG d1179      11.788  -8.790   1.971  0.00  0.00     0.078 H 
ATOM    150  C6  BDP d1180      12.619 -14.760  -3.252  0.00  0.00     0.206 C 
ATOM    151  O3  BDP d1180       8.924 -17.847  -2.149  0.00  0.00    -0.390 OA
ATOM    152  C1  BDP d1180      10.528 -15.057  -0.253  0.00  0.00     0.160 C 
ATOM    153  O2  BDP d1180       9.442 -16.945   0.693  0.00  0.00    -0.388 OA
ATOM    154  C3  BDP d1180      10.053 -17.200  -1.599  0.00  0.00     0.092 C 
ATOM    155  O4  BDP d1180      11.640 -17.506  -3.372  0.00  0.00    -0.348 OA
ATOM    156  O5  BDP d1180      11.006 -14.518  -1.466  0.00  0.00    -0.340 OA
ATOM    157  C5  BDP d1180      11.785 -15.458  -2.176  0.00  0.00     0.152 C 
ATOM    158  O6B BDP d1180      12.033 -13.991  -4.053  0.00  0.00    -0.646 OA
ATOM    159  O6A BDP d1180      13.853 -14.987  -3.265  0.00  0.00    -0.646 OA
ATOM    160  C2  BDP d1180       9.577 -16.225  -0.514  0.00  0.00     0.110 C 
ATOM    161  C4  BDP d1180      10.850 -16.533  -2.725  0.00  0.00     0.103 C 
ATOM    162  H   BDP d1180       8.416 -18.270  -1.438  0.00  0.00     0.210 HD
ATOM    163  H   BDP d1180      11.371 -15.409   0.304  0.00  0.00     0.133 H 
ATOM    164  H   BDP d1180       9.141 -16.346   1.395  0.00  0.00     0.210 HD
ATOM    165  H   BDP d1180      10.719 -17.892  -1.129  0.00  0.00     0.091 H 
ATOM    166  H   BDP d1180      12.494 -15.937  -1.534  0.00  0.00     0.104 H 
ATOM    167  H   BDP d1180       8.657 -15.806  -0.865  0.00  0.00     0.094 H 
ATOM    168  H   BDP d1180      10.154 -16.085  -3.404  0.00  0.00     0.092 H 
ENDROOT
TORSDOF 43
ENDMDL
MODEL 3
REMARK VINA RESULT:      -9.1      4.235     19.435
REMARK  0 active torsions:
REMARK  status: ('A' for Active; 'I' for Inactive)
REMARK       I    between atoms: C1_1  and  O3_15 
REMARK       I    between atoms: C1_2  and  O3_93 
REMARK       I    between atoms: C6_3  and  C5_89 
REMARK       I    between atoms: C6_3  and  O6_76 
REMARK       I    between atoms: O3_4  and  C3_22 
REMARK       I    between atoms: C6_5  and  C5_48 
REMARK       I    between atoms: C6_5  and  O6_31 
REMARK       I    between atoms: C4_6  and  O4_74 
REMARK       I    between atoms: C7_7  and  C8_62 
REMARK       I    between atoms: C7_7  and  N2_60 
REMARK       I    between atoms: C6_8  and  C5_52 
REMARK       I    between atoms: C3_9  and  O3_38 
REMARK       I    between atoms: C1_10  and  O4_75 
REMARK       I    between atoms: C6_12  and  C5_51 
REMARK       I    between atoms: O3_13  and  C3_42 
REMARK       I    between atoms: O4_14  and  C4_84 
REMARK       I    between atoms: O3_15  and  C3_86 
REMARK       I    between atoms: C6_16  and  C5_23 
REMARK       I    between atoms: C6_16  and  O6_58 
REMARK       I    between atoms: C1_17  and  O3_63 
REMARK       I    between atoms: C2_18  and  N2_60 
REMARK       I    between atoms: C2_19  and  N2_53 
REMARK       I    between atoms: O2_20  and  C2_66 
REMARK       I    between atoms: C3_25  and  O3_93 
REMARK       I    between atoms: C7_26  and  C8_32 
REMARK       I    between atoms: C7_26  and  N2_37 
REMARK       I    between atoms: C2_28  and  N2_44 
REMARK       I    between atoms: C7_29  and  C8_54 
REMARK       I    between atoms: C7_29  and  N2_53 
REMARK       I    between atoms: O1_33  and  C1_80 
REMARK       I    between atoms: O4_34  and  C4_40 
REMARK       I    between atoms: O4_34  and  C1_92 
REMARK       I    between atoms: C7_36  and  C8_81 
REMARK       I    between atoms: C7_36  and  N2_44 
REMARK       I    between atoms: N2_37  and  C2_83 
REMARK       I    between atoms: O3_39  and  C3_61 
REMARK       I    between atoms: C1_41  and  O4_46 
REMARK       I    between atoms: O2_43  and  C2_73 
REMARK       I    between atoms: C6_45  and  C5_87 
REMARK       I    between atoms: O4_46  and  C4_67 
REMARK       I    between atoms: C4_50  and  O4_65 
REMARK       I    between atoms: C2_55  and  O2_82 
REMARK       I    between atoms: O4_57  and  C4_71 
REMARK       I    between atoms: O3_63  and  C3_85 
REMARK       I    between atoms: O4_75  and  C4_91 
REMARK       I    between atoms: C5_77  and  C6_90 
REMARK       I    between atoms: O6_79  and  C6_90 
ROOT
ATOM      1  C1  BDP d1176      14.925 -10.553  -4.726  0.00  0.00     0.160 C 
ATOM      2  O3  BDP d1176      16.242  -8.014  -2.279  0.00  0.00    -0.390 OA
ATOM      3  O5  BDP d1176      14.014 -10.992  -3.757  0.00  0.00    -0.340 OA
ATOM      4  O6A BDP d1176      12.485 -11.447  -1.567  0.00  0.00    -0.646 OA
ATOM      5  C3  BDP d1176      16.075  -9.330  -2.765  0.00  0.00     0.092 C 
ATOM      6  O4  BDP d1176      15.842 -10.466  -0.677  0.00  0.00    -0.348 OA
ATOM      7  C4  BDP d1176      15.132 -10.087  -1.841  0.00  0.00     0.103 C 
ATOM      8  C6  BDP d1176      13.563 -12.052  -1.726  0.00  0.00     0.206 C 
ATOM      9  C2  BDP d1176      15.645  -9.293  -4.229  0.00  0.00     0.110 C 
ATOM     10  O6B BDP d1176      13.842 -13.183  -1.277  0.00  0.00    -0.646 OA
ATOM     11  O2  BDP d1176      16.828  -9.129  -4.974  0.00  0.00    -0.388 OA
ATOM     12  C5  BDP d1176      14.617 -11.336  -2.544  0.00  0.00     0.152 C 
ATOM     13  H   BDP d1176      15.665 -11.301  -4.915  0.00  0.00     0.133 H 
ATOM     14  H   BDP d1176      16.843  -7.527  -2.865  0.00  0.00     0.210 HD
ATOM     15  H   BDP d1176      16.998  -9.871  -2.754  0.00  0.00     0.091 H 
ATOM     16  H   BDP d1176      14.303  -9.463  -1.581  0.00  0.00     0.092 H 
ATOM     17  H   BDP d1176      14.936  -8.500  -4.345  0.00  0.00     0.094 H 
ATOM     18  H   BDP d1176      17.416  -9.885  -4.816  0.00  0.00     0.210 HD
ATOM     19  H   BDP d1176      15.464 -11.974  -2.687  0.00  0.00     0.104 H 
ATOM     20  C1  BDP d1178      15.488 -10.629   5.111  0.00  0.00     0.160 C 
ATOM     21  C6  BDP d1178      13.281  -8.969   7.614  0.00  0.00     0.206 C 
ATOM     22  O6B BDP d1178      12.098  -9.166   7.980  0.00  0.00    -0.646 OA
ATOM     23  O6A BDP d1178      13.944  -7.936   7.883  0.00  0.00    -0.646 OA
ATOM     24  O3  BDP d1178      16.198 -12.834   8.032  0.00  0.00    -0.390 OA
ATOM     25  O2  BDP d1178      17.077 -12.419   5.402  0.00  0.00    -0.388 OA
ATOM     26  C5  BDP d1178      13.934 -10.096   6.811  0.00  0.00     0.152 C 
ATOM     27  C3  BDP d1178      15.440 -12.110   7.089  0.00  0.00     0.092 C 
ATOM     28  C2  BDP d1178      16.341 -11.436   6.085  0.00  0.00     0.110 C 
ATOM     29  O4  BDP d1178      13.563 -11.775   8.427  0.00  0.00    -0.348 OA
ATOM     30  O5  BDP d1178      14.830  -9.604   5.821  0.00  0.00    -0.340 OA
ATOM     31  C4  BDP d1178      14.586 -11.067   7.789  0.00  0.00     0.103 C 
ATOM     32  H   BDP d1178      14.721 -11.214   4.647  0.00  0.00     0.133 H 
ATOM     33  H   BDP d1178      16.738 -13.496   7.573  0.00  0.00     0.210 HD
ATOM     34  H   BDP d1178      17.660 -11.994   4.753  0.00  0.00     0.210 HD
ATOM     35  H   BDP d1178      13.187 -10.623   6.254  0.00  0.00     0.104 H 
ATOM     36  H   BDP d1178      14.805 -12.799   6.574  0.00  0.00     0.091 H 
ATOM     37  H   BDP d1178      17.020 -10.772   6.577  0.00  0.00     0.094 H 
ATOM     38  H   BDP d1178      15.200 -10.495   8.453  0.00  0.00     0.092 H 
ATOM     39  C6  NAG d1177      15.953  -6.128   1.276  0.00  0.00     0.043 C 
ATOM     40  O4  NAG d1177      15.690  -7.442   3.946  0.00  0.00    -0.390 OA
ATOM     41  C2  NAG d1177      15.990 -10.425   1.724  0.00  0.00     0.087 C 
ATOM     42  C3  NAG d1177      15.685  -9.604   2.969  0.00  0.00     0.093 C 
ATOM     43  C7  NAG d1177      16.031 -12.888   1.735  0.00  0.00     0.214 C 
ATOM     44  N2  NAG d1177      15.380 -11.737   1.881  0.00  0.00    -0.349 N 
ATOM     45  C8  NAG d1177      15.153 -14.092   1.567  0.00  0.00    -0.003 C 
ATOM     46  O7  NAG d1177      17.261 -13.005   1.749  0.00  0.00    -0.274 OA
ATOM     47  O6  NAG d1177      16.933  -6.066   0.256  0.00  0.00    -0.398 OA
ATOM     48  C4  NAG d1177      16.121  -8.156   2.803  0.00  0.00     0.089 C 
ATOM     49  O5  NAG d1177      15.916  -8.368   0.415  0.00  0.00    -0.349 OA
ATOM     50  C5  NAG d1177      15.529  -7.576   1.519  0.00  0.00     0.089 C 
ATOM     51  C1  NAG d1177      15.460  -9.709   0.480  0.00  0.00     0.154 C 
ATOM     52  O3  NAG d1177      16.365 -10.146   4.078  0.00  0.00    -0.348 OA
ATOM     53  H   NAG d1177      16.358  -5.723   2.180  0.00  0.00     0.078 H 
ATOM     54  H   NAG d1177      15.097  -5.562   0.971  0.00  0.00     0.078 H 
ATOM     55  H   NAG d1177      16.084  -7.836   4.740  0.00  0.00     0.210 HD
ATOM     56  H   NAG d1177      17.047 -10.540   1.601  0.00  0.00     0.084 H 
ATOM     57  H   NAG d1177      14.626  -9.634   3.122  0.00  0.00     0.091 H 
ATOM     58  H   NAG d1177      14.424 -11.775   2.110  0.00  0.00     0.163 HD
ATOM     59  H   NAG d1177      14.127 -13.790   1.581  0.00  0.00     0.040 H 
ATOM     60  H   NAG d1177      15.334 -14.779   2.368  0.00  0.00     0.040 H 
ATOM     61  H   NAG d1177      15.373 -14.567   0.633  0.00  0.00     0.040 H 
ATOM     62  H   NAG d1177      17.712  -6.578   0.525  0.00  0.00     0.209 HD
ATOM     63  H   NAG d1177      17.185  -8.082   2.720  0.00  0.00     0.091 H 
ATOM     64  H   NAG d1177      14.465  -7.584   1.632  0.00  0.00     0.090 H 
ATOM     65  H   NAG d1177      14.392  -9.653   0.526  0.00  0.00     0.132 H 
ATOM     66  C6  NAG d1175      11.030 -13.552  -7.793  0.00  0.00     0.043 C 
ATOM     67  O3  NAG d1175      14.192 -10.283  -5.942  0.00  0.00    -0.348 OA
ATOM     68  C2  NAG d1175      14.340 -10.862  -8.262  0.00  0.00     0.087 C 
ATOM     69  O6  NAG d1175      10.832 -14.506  -8.811  0.00  0.00    -0.398 OA
ATOM     70  O1  NAG d1175      14.090 -11.339 -10.625  0.00  0.00    -0.369 OA
ATOM     71  C7  NAG d1175      16.059  -9.316  -9.055  0.00  0.00     0.214 C 
ATOM     72  N2  NAG d1175      15.729 -10.440  -8.417  0.00  0.00    -0.349 N 
ATOM     73  C5  NAG d1175      12.454 -13.022  -7.910  0.00  0.00     0.089 C 
ATOM     74  O5  NAG d1175      12.600 -12.283  -9.114  0.00  0.00    -0.349 OA
ATOM     75  C4  NAG d1175      12.804 -12.182  -6.680  0.00  0.00     0.089 C 
ATOM     76  O4  NAG d1175      12.862 -13.063  -5.573  0.00  0.00    -0.390 OA
ATOM     77  O7  NAG d1175      15.607  -8.207  -8.743  0.00  0.00    -0.274 OA
ATOM     78  C1  NAG d1175      13.945 -11.890  -9.330  0.00  0.00     0.151 C 
ATOM     79  C8  NAG d1175      17.040  -9.466 -10.186  0.00  0.00    -0.003 C 
ATOM     80  C3  NAG d1175      14.119 -11.394  -6.835  0.00  0.00     0.093 C 
ATOM     81  H   NAG d1175      10.333 -12.748  -7.908  0.00  0.00     0.078 H 
ATOM     82  H   NAG d1175      10.879 -13.999  -6.832  0.00  0.00     0.078 H 
ATOM     83  H   NAG d1175      13.700 -10.017  -8.406  0.00  0.00     0.084 H 
ATOM     84  H   NAG d1175      10.971 -14.089  -9.676  0.00  0.00     0.209 HD
ATOM     85  H   NAG d1175      15.012 -11.074 -10.763  0.00  0.00     0.212 HD
ATOM     86  H   NAG d1175      16.443 -11.002  -8.039  0.00  0.00     0.163 HD
ATOM     87  H   NAG d1175      13.139 -13.843  -7.948  0.00  0.00     0.090 H 
ATOM     88  H   NAG d1175      12.051 -11.434  -6.542  0.00  0.00     0.091 H 
ATOM     89  H   NAG d1175      13.552 -13.728  -5.726  0.00  0.00     0.210 HD
ATOM     90  H   NAG d1175      14.588 -12.743  -9.258  0.00  0.00     0.132 H 
ATOM     91  H   NAG d1175      17.306 -10.497 -10.293  0.00  0.00     0.040 H 
ATOM     92  H   NAG d1175      17.917  -8.892  -9.975  0.00  0.00     0.040 H 
ATOM     93  H   NAG d1175      16.594  -9.117 -11.093  0.00  0.00     0.040 H 
ATOM     94  H   NAG d1175      14.883 -12.106  -6.601  0.00  0.00     0.091 H 
ATOM     95  C4  NAG d1181       2.910 -12.274  17.071  0.00  0.00     0.089 C 
ATOM     96  C3  NAG d1181       3.807 -11.270  17.802  0.00  0.00     0.086 C 
ATOM     97  C6  NAG d1181       2.766 -14.020  15.245  0.00  0.00     0.043 C 
ATOM     98  C5  NAG d1181       3.702 -13.194  16.130  0.00  0.00     0.089 C 
ATOM     99  C7  NAG d1181       5.797  -8.492  17.449  0.00  0.00     0.214 C 
ATOM    100  C8  NAG d1181       6.142  -7.903  16.108  0.00  0.00    -0.003 C 
ATOM    101  N2  NAG d1181       5.783  -9.821  17.540  0.00  0.00    -0.349 N 
ATOM    102  O3  NAG d1181       3.020 -10.270  18.431  0.00  0.00    -0.391 OA
ATOM    103  C1  NAG d1181       5.511 -11.673  15.978  0.00  0.00     0.154 C 
ATOM    104  O6  NAG d1181       3.453 -15.142  14.729  0.00  0.00    -0.398 OA
ATOM    105  O5  NAG d1181       4.562 -12.448  15.286  0.00  0.00    -0.349 OA
ATOM    106  O7  NAG d1181       5.538  -7.766  18.412  0.00  0.00    -0.274 OA
ATOM    107  O4  NAG d1181       2.217 -13.054  18.020  0.00  0.00    -0.390 OA
ATOM    108  C2  NAG d1181       4.798 -10.625  16.830  0.00  0.00     0.087 C 
ATOM    109  H   NAG d1181       2.225 -11.716  16.467  0.00  0.00     0.091 H 
ATOM    110  H   NAG d1181       4.358 -11.798  18.551  0.00  0.00     0.090 H 
ATOM    111  H   NAG d1181       2.419 -13.415  14.434  0.00  0.00     0.078 H 
ATOM    112  H   NAG d1181       1.936 -14.357  15.830  0.00  0.00     0.078 H 
ATOM    113  H   NAG d1181       4.280 -13.843  16.755  0.00  0.00     0.090 H 
ATOM    114  H   NAG d1181       6.332  -8.692  15.411  0.00  0.00     0.040 H 
ATOM    115  H   NAG d1181       7.014  -7.291  16.201  0.00  0.00     0.040 H 
ATOM    116  H   NAG d1181       5.324  -7.308  15.758  0.00  0.00     0.040 H 
ATOM    117  H   NAG d1181       6.455 -10.271  18.101  0.00  0.00     0.163 HD
ATOM    118  H   NAG d1181       2.515  -9.785  17.759  0.00  0.00     0.210 HD
ATOM    119  H   NAG d1181       6.084 -12.340  16.588  0.00  0.00     0.132 H 
ATOM    120  H   NAG d1181       4.207 -14.842  14.198  0.00  0.00     0.209 HD
ATOM    121  H   NAG d1181       2.854 -13.551  18.556  0.00  0.00     0.210 HD
ATOM    122  H   NAG d1181       4.231  -9.988  16.184  0.00  0.00     0.084 H 
ATOM    123  C7  NAG d1179      10.256 -11.885   8.466  0.00  0.00     0.214 C 
ATOM    124  C1  NAG d1179      13.387 -11.464   9.820  0.00  0.00     0.154 C 
ATOM    125  C2  NAG d1179      11.988 -11.966  10.154  0.00  0.00     0.087 C 
ATOM    126  O5  NAG d1179      14.338 -12.103  10.645  0.00  0.00    -0.349 OA
ATOM    127  O7  NAG d1179       9.920 -13.063   8.578  0.00  0.00    -0.274 OA
ATOM    128  O4  NAG d1179      12.569 -12.341  13.832  0.00  0.00    -0.390 OA
ATOM    129  N2  NAG d1179      10.988 -11.250   9.379  0.00  0.00    -0.349 N 
ATOM    130  C8  NAG d1179       9.835 -11.109   7.256  0.00  0.00    -0.003 C 
ATOM    131  O3  NAG d1179      10.495 -12.714  11.858  0.00  0.00    -0.348 OA
ATOM    132  C4  NAG d1179      12.809 -12.526  12.452  0.00  0.00     0.089 C 
ATOM    133  C5  NAG d1179      14.128 -11.876  12.028  0.00  0.00     0.089 C 
ATOM    134  O6  NAG d1179      15.427 -13.823  12.662  0.00  0.00    -0.398 OA
ATOM    135  C3  NAG d1179      11.658 -11.936  11.644  0.00  0.00     0.093 C 
ATOM    136  C6  NAG d1179      15.324 -12.418  12.811  0.00  0.00     0.043 C 
ATOM    137  H   NAG d1179      13.516 -10.416   9.992  0.00  0.00     0.132 H 
ATOM    138  H   NAG d1179      11.972 -13.000   9.879  0.00  0.00     0.084 H 
ATOM    139  H   NAG d1179      11.729 -12.762  14.073  0.00  0.00     0.210 HD
ATOM    140  H   NAG d1179      10.850 -10.286   9.530  0.00  0.00     0.163 HD
ATOM    141  H   NAG d1179      10.212 -10.110   7.324  0.00  0.00     0.040 H 
ATOM    142  H   NAG d1179       8.766 -11.084   7.203  0.00  0.00     0.040 H 
ATOM    143  H   NAG d1179      10.224 -11.578   6.377  0.00  0.00     0.040 H 
ATOM    144  H   NAG d1179      12.879 -13.577  12.263  0.00  0.00     0.091 H 
ATOM    145  H   NAG d1179      14.051 -10.829  12.236  0.00  0.00     0.090 H 
ATOM    146  H   NAG d1179      16.191 -14.146  13.164  0.00  0.00     0.209 HD
ATOM    147  H   NAG d1179      11.500 -10.925  11.957  0.00  0.00     0.091 H 
ATOM    148  H   NAG d1179      15.201 -12.183  13.847  0.00  0.00     0.078 H 
ATOM    149  H   NAG d1179      16.216 -11.966  12.430  0.00  0.00     0.078 H 
ATOM    150  C6  BDP d1180       9.162 -10.774  15.957  0.00  0.00     0.206 C 
ATOM    151  O3  BDP d1180       5.950 -13.156  13.057  0.00  0.00    -0.390 OA
ATOM    152  C1  BDP d1180       9.449 -11.971  12.501  0.00  0.00     0.160 C 
ATOM    153  O2  BDP d1180       7.792 -12.267  10.826  0.00  0.00    -0.388 OA
ATOM    154  C3  BDP d1180       6.940 -12.147  13.052  0.00  0.00     0.092 C 
ATOM    155  O4  BDP d1180       6.389 -10.982  15.074  0.00  0.00    -0.348 OA
ATOM    156  O5  BDP d1180       9.653 -11.943  13.897  0.00  0.00    -0.340 OA
ATOM    157  C5  BDP d1180       8.700 -11.123  14.541  0.00  0.00     0.152 C 
ATOM    158  O6B BDP d1180       9.511 -11.710  16.717  0.00  0.00    -0.646 OA
ATOM    159  O6A BDP d1180       9.180  -9.561  16.276  0.00  0.00    -0.646 OA
ATOM    160  C2  BDP d1180       8.101 -12.608  12.161  0.00  0.00     0.110 C 
ATOM    161  C4  BDP d1180       7.350 -11.835  14.494  0.00  0.00     0.103 C 
ATOM    162  H   BDP d1180       5.688 -13.357  12.145  0.00  0.00     0.210 HD
ATOM    163  H   BDP d1180       9.458 -10.961  12.149  0.00  0.00     0.133 H 
ATOM    164  H   BDP d1180       8.515 -12.550  10.245  0.00  0.00     0.210 HD
ATOM    165  H   BDP d1180       6.572 -11.231  12.639  0.00  0.00     0.091 H 
ATOM    166  H   BDP d1180       8.593 -10.185  14.038  0.00  0.00     0.104 H 
ATOM    167  H   BDP d1180       8.205 -13.661  12.319  0.00  0.00     0.094 H 
ATOM    168  H   BDP d1180       7.419 -12.761  15.027  0.00  0.00     0.092 H 
ENDROOT
TORSDOF 43
ENDMDL
MODEL 4
REMARK VINA RESULT:      -8.9      4.882      6.459
REMARK  0 active torsions:
REMARK  status: ('A' for Active; 'I' for Inactive)
REMARK       I    between atoms: C1_1  and  O3_15 
REMARK       I    between atoms: C1_2  and  O3_93 
REMARK       I    between atoms: C6_3  and  C5_89 
REMARK       I    between atoms: C6_3  and  O6_76 
REMARK       I    between atoms: O3_4  and  C3_22 
REMARK       I    between atoms: C6_5  and  C5_48 
REMARK       I    between atoms: C6_5  and  O6_31 
REMARK       I    between atoms: C4_6  and  O4_74 
REMARK       I    between atoms: C7_7  and  C8_62 
REMARK       I    between atoms: C7_7  and  N2_60 
REMARK       I    between atoms: C6_8  and  C5_52 
REMARK       I    between atoms: C3_9  and  O3_38 
REMARK       I    between atoms: C1_10  and  O4_75 
REMARK       I    between atoms: C6_12  and  C5_51 
REMARK       I    between atoms: O3_13  and  C3_42 
REMARK       I    between atoms: O4_14  and  C4_84 
REMARK       I    between atoms: O3_15  and  C3_86 
REMARK       I    between atoms: C6_16  and  C5_23 
REMARK       I    between atoms: C6_16  and  O6_58 
REMARK       I    between atoms: C1_17  and  O3_63 
REMARK       I    between atoms: C2_18  and  N2_60 
REMARK       I    between atoms: C2_19  and  N2_53 
REMARK       I    between atoms: O2_20  and  C2_66 
REMARK       I    between atoms: C3_25  and  O3_93 
REMARK       I    between atoms: C7_26  and  C8_32 
REMARK       I    between atoms: C7_26  and  N2_37 
REMARK       I    between atoms: C2_28  and  N2_44 
REMARK       I    between atoms: C7_29  and  C8_54 
REMARK       I    between atoms: C7_29  and  N2_53 
REMARK       I    between atoms: O1_33  and  C1_80 
REMARK       I    between atoms: O4_34  and  C4_40 
REMARK       I    between atoms: O4_34  and  C1_92 
REMARK       I    between atoms: C7_36  and  C8_81 
REMARK       I    between atoms: C7_36  and  N2_44 
REMARK       I    between atoms: N2_37  and  C2_83 
REMARK       I    between atoms: O3_39  and  C3_61 
REMARK       I    between atoms: C1_41  and  O4_46 
REMARK       I    between atoms: O2_43  and  C2_73 
REMARK       I    between atoms: C6_45  and  C5_87 
REMARK       I    between atoms: O4_46  and  C4_67 
REMARK       I    between atoms: C4_50  and  O4_65 
REMARK       I    between atoms: C2_55  and  O2_82 
REMARK       I    between atoms: O4_57  and  C4_71 
REMARK       I    between atoms: O3_63  and  C3_85 
REMARK       I    between atoms: O4_75  and  C4_91 
REMARK       I    between atoms: C5_77  and  C6_90 
REMARK       I    between atoms: O6_79  and  C6_90 
ROOT
ATOM      1  C1  BDP d1176      14.743 -15.829  16.971  0.00  0.00     0.160 C 
ATOM      2  O3  BDP d1176      16.665 -13.698  14.534  0.00  0.00    -0.390 OA
ATOM      3  O5  BDP d1176      14.016 -16.368  15.903  0.00  0.00    -0.340 OA
ATOM      4  O6A BDP d1176      12.925 -17.076  13.525  0.00  0.00    -0.646 OA
ATOM      5  C3  BDP d1176      15.505 -14.053  15.259  0.00  0.00     0.092 C 
ATOM      6  O4  BDP d1176      13.868 -13.593  13.583  0.00  0.00    -0.348 OA
ATOM      7  C4  BDP d1176      14.480 -14.646  14.303  0.00  0.00     0.103 C 
ATOM      8  C6  BDP d1176      12.451 -16.130  14.184  0.00  0.00     0.206 C 
ATOM      9  C2  BDP d1176      15.881 -14.952  16.435  0.00  0.00     0.110 C 
ATOM     10  O6B BDP d1176      11.264 -15.744  14.163  0.00  0.00    -0.646 OA
ATOM     11  O2  BDP d1176      16.304 -14.088  17.461  0.00  0.00    -0.388 OA
ATOM     12  C5  BDP d1176      13.417 -15.399  15.092  0.00  0.00     0.152 C 
ATOM     13  H   BDP d1176      14.116 -15.215  17.582  0.00  0.00     0.133 H 
ATOM     14  H   BDP d1176      17.322 -13.320  15.139  0.00  0.00     0.210 HD
ATOM     15  H   BDP d1176      15.041 -13.194  15.697  0.00  0.00     0.091 H 
ATOM     16  H   BDP d1176      14.964 -15.322  13.630  0.00  0.00     0.092 H 
ATOM     17  H   BDP d1176      16.630 -15.639  16.098  0.00  0.00     0.094 H 
ATOM     18  H   BDP d1176      15.574 -13.500  17.710  0.00  0.00     0.210 HD
ATOM     19  H   BDP d1176      12.892 -14.666  15.669  0.00  0.00     0.104 H 
ATOM     20  C1  BDP d1178      12.232 -11.969   8.259  0.00  0.00     0.160 C 
ATOM     21  C6  BDP d1178      13.061 -13.157   4.825  0.00  0.00     0.206 C 
ATOM     22  O6B BDP d1178      12.702 -14.151   4.150  0.00  0.00    -0.646 OA
ATOM     23  O6A BDP d1178      14.034 -12.417   4.535  0.00  0.00    -0.646 OA
ATOM     24  O3  BDP d1178       9.415 -10.366   6.418  0.00  0.00    -0.390 OA
ATOM     25  O2  BDP d1178      10.535 -10.420   8.988  0.00  0.00    -0.388 OA
ATOM     26  C5  BDP d1178      12.218 -12.843   6.062  0.00  0.00     0.152 C 
ATOM     27  C3  BDP d1178      10.301 -11.381   6.833  0.00  0.00     0.092 C 
ATOM     28  C2  BDP d1178      11.264 -10.857   7.869  0.00  0.00     0.110 C 
ATOM     29  O4  BDP d1178      10.165 -12.685   4.907  0.00  0.00    -0.348 OA
ATOM     30  O5  BDP d1178      13.001 -12.323   7.131  0.00  0.00    -0.340 OA
ATOM     31  C4  BDP d1178      11.077 -11.922   5.644  0.00  0.00     0.103 C 
ATOM     32  H   BDP d1178      11.734 -12.862   8.575  0.00  0.00     0.133 H 
ATOM     33  H   BDP d1178       8.926 -10.030   7.185  0.00  0.00     0.210 HD
ATOM     34  H   BDP d1178      11.146 -10.081   9.660  0.00  0.00     0.210 HD
ATOM     35  H   BDP d1178      11.800 -13.746   6.455  0.00  0.00     0.104 H 
ATOM     36  H   BDP d1178       9.724 -12.170   7.267  0.00  0.00     0.091 H 
ATOM     37  H   BDP d1178      11.826 -10.035   7.477  0.00  0.00     0.094 H 
ATOM     38  H   BDP d1178      11.502 -11.105   5.098  0.00  0.00     0.092 H 
ATOM     39  C6  NAG d1177      17.573 -12.721  10.726  0.00  0.00     0.043 C 
ATOM     40  O4  NAG d1177      15.616 -12.096   8.558  0.00  0.00    -0.390 OA
ATOM     41  C2  NAG d1177      13.314 -12.640  11.444  0.00  0.00     0.087 C 
ATOM     42  C3  NAG d1177      13.774 -12.485  10.001  0.00  0.00     0.093 C 
ATOM     43  C7  NAG d1177      10.935 -12.657  12.085  0.00  0.00     0.214 C 
ATOM     44  N2  NAG d1177      11.967 -13.192  11.439  0.00  0.00    -0.349 N 
ATOM     45  C8  NAG d1177       9.757 -13.569  12.256  0.00  0.00    -0.003 C 
ATOM     46  O7  NAG d1177      10.899 -11.499  12.513  0.00  0.00    -0.274 OA
ATOM     47  O6  NAG d1177      17.954 -12.143  11.962  0.00  0.00    -0.398 OA
ATOM     48  C4  NAG d1177      15.242 -12.095   9.923  0.00  0.00     0.089 C 
ATOM     49  O5  NAG d1177      15.625 -13.102  12.074  0.00  0.00    -0.349 OA
ATOM     50  C5  NAG d1177      16.086 -13.073  10.740  0.00  0.00     0.089 C 
ATOM     51  C1  NAG d1177      14.283 -13.542  12.210  0.00  0.00     0.154 C 
ATOM     52  O3  NAG d1177      13.016 -11.483   9.363  0.00  0.00    -0.348 OA
ATOM     53  H   NAG d1177      17.764 -12.024   9.937  0.00  0.00     0.078 H 
ATOM     54  H   NAG d1177      18.141 -13.615  10.571  0.00  0.00     0.078 H 
ATOM     55  H   NAG d1177      15.061 -11.466   8.071  0.00  0.00     0.210 HD
ATOM     56  H   NAG d1177      13.303 -11.690  11.938  0.00  0.00     0.084 H 
ATOM     57  H   NAG d1177      13.637 -13.429   9.517  0.00  0.00     0.091 H 
ATOM     58  H   NAG d1177      11.810 -14.015  10.922  0.00  0.00     0.163 HD
ATOM     59  H   NAG d1177       9.978 -14.522  11.824  0.00  0.00     0.040 H 
ATOM     60  H   NAG d1177       8.904 -13.145  11.769  0.00  0.00     0.040 H 
ATOM     61  H   NAG d1177       9.548 -13.691  13.299  0.00  0.00     0.040 H 
ATOM     62  H   NAG d1177      17.443 -11.331  12.110  0.00  0.00     0.209 HD
ATOM     63  H   NAG d1177      15.404 -11.121  10.334  0.00  0.00     0.091 H 
ATOM     64  H   NAG d1177      15.980 -14.035  10.284  0.00  0.00     0.090 H 
ATOM     65  H   NAG d1177      14.256 -14.529  11.798  0.00  0.00     0.132 H 
ATOM     66  C6  NAG d1175      12.363 -20.605  19.229  0.00  0.00     0.043 C 
ATOM     67  O3  NAG d1175      15.262 -16.924  17.759  0.00  0.00    -0.348 OA
ATOM     68  C2  NAG d1175      15.295 -17.584  20.062  0.00  0.00     0.087 C 
ATOM     69  O6  NAG d1175      11.686 -21.159  20.333  0.00  0.00    -0.398 OA
ATOM     70  O1  NAG d1175      15.412 -18.631  22.244  0.00  0.00    -0.369 OA
ATOM     71  C7  NAG d1175      17.100 -16.198  20.953  0.00  0.00     0.214 C 
ATOM     72  N2  NAG d1175      15.833 -16.320  20.556  0.00  0.00    -0.349 N 
ATOM     73  C5  NAG d1175      12.997 -19.292  19.673  0.00  0.00     0.089 C 
ATOM     74  O5  NAG d1175      14.023 -19.544  20.622  0.00  0.00    -0.349 OA
ATOM     75  C4  NAG d1175      13.523 -18.525  18.457  0.00  0.00     0.089 C 
ATOM     76  O4  NAG d1175      12.397 -18.117  17.701  0.00  0.00    -0.390 OA
ATOM     77  O7  NAG d1175      18.062 -16.490  20.233  0.00  0.00    -0.274 OA
ATOM     78  C1  NAG d1175      14.546 -18.342  21.165  0.00  0.00     0.151 C 
ATOM     79  C8  NAG d1175      17.304 -15.662  22.344  0.00  0.00    -0.003 C 
ATOM     80  C3  NAG d1175      14.408 -17.322  18.832  0.00  0.00     0.093 C 
ATOM     81  H   NAG d1175      13.123 -21.279  18.894  0.00  0.00     0.078 H 
ATOM     82  H   NAG d1175      11.681 -20.432  18.424  0.00  0.00     0.078 H 
ATOM     83  H   NAG d1175      16.106 -18.214  19.761  0.00  0.00     0.084 H 
ATOM     84  H   NAG d1175      12.315 -21.310  21.056  0.00  0.00     0.209 HD
ATOM     85  H   NAG d1175      15.764 -17.804  22.608  0.00  0.00     0.212 HD
ATOM     86  H   NAG d1175      15.242 -15.534  20.597  0.00  0.00     0.163 HD
ATOM     87  H   NAG d1175      12.259 -18.680  20.148  0.00  0.00     0.090 H 
ATOM     88  H   NAG d1175      14.161 -19.168  17.887  0.00  0.00     0.091 H 
ATOM     89  H   NAG d1175      11.838 -17.537  18.241  0.00  0.00     0.210 HD
ATOM     90  H   NAG d1175      13.746 -17.734  21.534  0.00  0.00     0.132 H 
ATOM     91  H   NAG d1175      16.352 -15.473  22.797  0.00  0.00     0.040 H 
ATOM     92  H   NAG d1175      17.862 -14.751  22.297  0.00  0.00     0.040 H 
ATOM     93  H   NAG d1175      17.840 -16.380  22.928  0.00  0.00     0.040 H 
ATOM     94  H   NAG d1175      13.712 -16.541  19.059  0.00  0.00     0.091 H 
ATOM     95  C4  NAG d1181       6.813 -19.791  -6.350  0.00  0.00     0.089 C 
ATOM     96  C3  NAG d1181       7.657 -18.675  -6.973  0.00  0.00     0.086 C 
ATOM     97  C6  NAG d1181       5.577 -20.587  -4.290  0.00  0.00     0.043 C 
ATOM     98  C5  NAG d1181       6.213 -19.386  -4.995  0.00  0.00     0.089 C 
ATOM     99  C7  NAG d1181      10.559 -16.854  -6.709  0.00  0.00     0.214 C 
ATOM    100  C8  NAG d1181      11.487 -16.970  -5.530  0.00  0.00    -0.003 C 
ATOM    101  N2  NAG d1181       9.251 -16.869  -6.453  0.00  0.00    -0.349 N 
ATOM    102  O3  NAG d1181       8.414 -19.178  -8.065  0.00  0.00    -0.391 OA
ATOM    103  C1  NAG d1181       7.838 -17.699  -4.648  0.00  0.00     0.154 C 
ATOM    104  O6  NAG d1181       4.668 -20.143  -3.303  0.00  0.00    -0.398 OA
ATOM    105  O5  NAG d1181       7.202 -18.845  -4.136  0.00  0.00    -0.349 OA
ATOM    106  O7  NAG d1181      11.001 -16.754  -7.857  0.00  0.00    -0.274 OA
ATOM    107  O4  NAG d1181       5.776 -20.140  -7.239  0.00  0.00    -0.390 OA
ATOM    108  C2  NAG d1181       8.590 -18.055  -5.929  0.00  0.00     0.087 C 
ATOM    109  H   NAG d1181       7.459 -20.626  -6.175  0.00  0.00     0.091 H 
ATOM    110  H   NAG d1181       6.995 -17.915  -7.332  0.00  0.00     0.090 H 
ATOM    111  H   NAG d1181       6.343 -21.173  -3.828  0.00  0.00     0.078 H 
ATOM    112  H   NAG d1181       5.051 -21.178  -5.010  0.00  0.00     0.078 H 
ATOM    113  H   NAG d1181       5.467 -18.647  -5.201  0.00  0.00     0.090 H 
ATOM    114  H   NAG d1181      10.913 -17.046  -4.631  0.00  0.00     0.040 H 
ATOM    115  H   NAG d1181      12.112 -16.102  -5.483  0.00  0.00     0.040 H 
ATOM    116  H   NAG d1181      12.096 -17.843  -5.640  0.00  0.00     0.040 H 
ATOM    117  H   NAG d1181       8.720 -16.057  -6.621  0.00  0.00     0.163 HD
ATOM    118  H   NAG d1181       9.018 -19.868  -7.749  0.00  0.00     0.210 HD
ATOM    119  H   NAG d1181       7.078 -16.970  -4.837  0.00  0.00     0.132 H 
ATOM    120  H   NAG d1181       5.140 -19.606  -2.648  0.00  0.00     0.209 HD
ATOM    121  H   NAG d1181       5.203 -19.372  -7.385  0.00  0.00     0.210 HD
ATOM    122  H   NAG d1181       9.330 -18.792  -5.697  0.00  0.00     0.084 H 
ATOM    123  C7  NAG d1179       9.833 -15.785   3.799  0.00  0.00     0.214 C 
ATOM    124  C1  NAG d1179      10.104 -12.371   3.506  0.00  0.00     0.154 C 
ATOM    125  C2  NAG d1179       9.444 -13.586   2.866  0.00  0.00     0.087 C 
ATOM    126  O5  NAG d1179       9.342 -11.214   3.240  0.00  0.00    -0.349 OA
ATOM    127  O7  NAG d1179       8.646 -16.092   3.890  0.00  0.00    -0.274 OA
ATOM    128  O4  NAG d1179       8.195 -11.804  -0.178  0.00  0.00    -0.390 OA
ATOM    129  N2  NAG d1179      10.265 -14.772   3.050  0.00  0.00    -0.349 N 
ATOM    130  C8  NAG d1179      10.860 -16.572   4.555  0.00  0.00    -0.003 C 
ATOM    131  O3  NAG d1179       8.196 -14.432   1.018  0.00  0.00    -0.348 OA
ATOM    132  C4  NAG d1179       8.379 -12.050   1.201  0.00  0.00     0.089 C 
ATOM    133  C5  NAG d1179       9.199 -10.937   1.857  0.00  0.00     0.089 C 
ATOM    134  O6  NAG d1179       7.245  -9.548   2.219  0.00  0.00    -0.398 OA
ATOM    135  C3  NAG d1179       9.077 -13.391   1.397  0.00  0.00     0.093 C 
ATOM    136  C6  NAG d1179       8.557  -9.560   1.686  0.00  0.00     0.043 C 
ATOM    137  H   NAG d1179      11.082 -12.166   3.121  0.00  0.00     0.132 H 
ATOM    138  H   NAG d1179       8.513 -13.720   3.378  0.00  0.00     0.084 H 
ATOM    139  H   NAG d1179       7.673 -12.523  -0.567  0.00  0.00     0.210 HD
ATOM    140  H   NAG d1179      11.148 -14.827   2.618  0.00  0.00     0.163 HD
ATOM    141  H   NAG d1179      11.832 -16.170   4.361  0.00  0.00     0.040 H 
ATOM    142  H   NAG d1179      10.827 -17.595   4.240  0.00  0.00     0.040 H 
ATOM    143  H   NAG d1179      10.653 -16.515   5.603  0.00  0.00     0.040 H 
ATOM    144  H   NAG d1179       7.416 -12.074   1.667  0.00  0.00     0.091 H 
ATOM    145  H   NAG d1179      10.153 -10.913   1.372  0.00  0.00     0.090 H 
ATOM    146  H   NAG d1179       6.856  -8.667   2.101  0.00  0.00     0.209 HD
ATOM    147  H   NAG d1179       9.963 -13.409   0.800  0.00  0.00     0.091 H 
ATOM    148  H   NAG d1179       8.515  -9.319   0.644  0.00  0.00     0.078 H 
ATOM    149  H   NAG d1179       9.148  -8.839   2.211  0.00  0.00     0.078 H 
ATOM    150  C6  BDP d1180       8.951 -14.250  -3.645  0.00  0.00     0.206 C 
ATOM    151  O3  BDP d1180       7.170 -18.311  -1.470  0.00  0.00    -0.390 OA
ATOM    152  C1  BDP d1180       8.682 -15.180  -0.107  0.00  0.00     0.160 C 
ATOM    153  O2  BDP d1180       8.709 -17.313   0.937  0.00  0.00    -0.388 OA
ATOM    154  C3  BDP d1180       8.210 -17.358  -1.396  0.00  0.00     0.092 C 
ATOM    155  O4  BDP d1180       8.791 -17.163  -3.715  0.00  0.00    -0.348 OA
ATOM    156  O5  BDP d1180       8.372 -14.515  -1.311  0.00  0.00    -0.340 OA
ATOM    157  C5  BDP d1180       8.939 -15.173  -2.425  0.00  0.00     0.152 C 
ATOM    158  O6B BDP d1180       7.878 -13.687  -3.975  0.00  0.00    -0.646 OA
ATOM    159  O6A BDP d1180      10.043 -14.095  -4.242  0.00  0.00    -0.646 OA
ATOM    160  C2  BDP d1180       8.065 -16.578  -0.083  0.00  0.00     0.110 C 
ATOM    161  C4  BDP d1180       8.175 -16.476  -2.648  0.00  0.00     0.103 C 
ATOM    162  H   BDP d1180       7.188 -18.872  -0.678  0.00  0.00     0.210 HD
ATOM    163  H   BDP d1180       9.747 -15.266  -0.045  0.00  0.00     0.133 H 
ATOM    164  H   BDP d1180       8.630 -16.837   1.778  0.00  0.00     0.210 HD
ATOM    165  H   BDP d1180       9.174 -17.821  -1.381  0.00  0.00     0.091 H 
ATOM    166  H   BDP d1180       9.965 -15.421  -2.247  0.00  0.00     0.104 H 
ATOM    167  H   BDP d1180       7.015 -16.453   0.082  0.00  0.00     0.094 H 
ATOM    168  H   BDP d1180       7.152 -16.253  -2.868  0.00  0.00     0.092 H 
ENDROOT
TORSDOF 43
ENDMDL
MODEL 5
REMARK VINA RESULT:      -8.8      5.721      7.411
REMARK  0 active torsions:
REMARK  status: ('A' for Active; 'I' for Inactive)
REMARK       I    between atoms: C1_1  and  O3_15 
REMARK       I    between atoms: C1_2  and  O3_93 
REMARK       I    between atoms: C6_3  and  C5_89 
REMARK       I    between atoms: C6_3  and  O6_76 
REMARK       I    between atoms: O3_4  and  C3_22 
REMARK       I    between atoms: C6_5  and  C5_48 
REMARK       I    between atoms: C6_5  and  O6_31 
REMARK       I    between atoms: C4_6  and  O4_74 
REMARK       I    between atoms: C7_7  and  C8_62 
REMARK       I    between atoms: C7_7  and  N2_60 
REMARK       I    between atoms: C6_8  and  C5_52 
REMARK       I    between atoms: C3_9  and  O3_38 
REMARK       I    between atoms: C1_10  and  O4_75 
REMARK       I    between atoms: C6_12  and  C5_51 
REMARK       I    between atoms: O3_13  and  C3_42 
REMARK       I    between atoms: O4_14  and  C4_84 
REMARK       I    between atoms: O3_15  and  C3_86 
REMARK       I    between atoms: C6_16  and  C5_23 
REMARK       I    between atoms: C6_16  and  O6_58 
REMARK       I    between atoms: C1_17  and  O3_63 
REMARK       I    between atoms: C2_18  and  N2_60 
REMARK       I    between atoms: C2_19  and  N2_53 
REMARK       I    between atoms: O2_20  and  C2_66 
REMARK       I    between atoms: C3_25  and  O3_93 
REMARK       I    between atoms: C7_26  and  C8_32 
REMARK       I    between atoms: C7_26  and  N2_37 
REMARK       I    between atoms: C2_28  and  N2_44 
REMARK       I    between atoms: C7_29  and  C8_54 
REMARK       I    between atoms: C7_29  and  N2_53 
REMARK       I    between atoms: O1_33  and  C1_80 
REMARK       I    between atoms: O4_34  and  C4_40 
REMARK       I    between atoms: O4_34  and  C1_92 
REMARK       I    between atoms: C7_36  and  C8_81 
REMARK       I    between atoms: C7_36  and  N2_44 
REMARK       I    between atoms: N2_37  and  C2_83 
REMARK       I    between atoms: O3_39  and  C3_61 
REMARK       I    between atoms: C1_41  and  O4_46 
REMARK       I    between atoms: O2_43  and  C2_73 
REMARK       I    between atoms: C6_45  and  C5_87 
REMARK       I    between atoms: O4_46  and  C4_67 
REMARK       I    between atoms: C4_50  and  O4_65 
REMARK       I    between atoms: C2_55  and  O2_82 
REMARK       I    between atoms: O4_57  and  C4_71 
REMARK       I    between atoms: O3_63  and  C3_85 
REMARK       I    between atoms: O4_75  and  C4_91 
REMARK       I    between atoms: C5_77  and  C6_90 
REMARK       I    between atoms: O6_79  and  C6_90 
ROOT
ATOM      1  C1  BDP d1176       3.888 -17.663  18.114  0.00  0.00     0.160 C 
ATOM      2  O3  BDP d1176       7.490 -18.657  17.660  0.00  0.00    -0.390 OA
ATOM      3  O5  BDP d1176       3.956 -16.929  16.925  0.00  0.00    -0.340 OA
ATOM      4  O6A BDP d1176       4.613 -15.687  14.607  0.00  0.00    -0.646 OA
ATOM      5  C3  BDP d1176       6.464 -17.732  17.954  0.00  0.00     0.092 C 
ATOM      6  O4  BDP d1176       7.396 -15.801  16.903  0.00  0.00    -0.348 OA
ATOM      7  C4  BDP d1176       6.342 -16.740  16.807  0.00  0.00     0.103 C 
ATOM      8  C6  BDP d1176       4.771 -15.113  15.702  0.00  0.00     0.206 C 
ATOM      9  C2  BDP d1176       5.175 -18.476  18.298  0.00  0.00     0.110 C 
ATOM     10  O6B BDP d1176       4.745 -13.879  15.893  0.00  0.00    -0.646 OA
ATOM     11  O2  BDP d1176       5.289 -18.837  19.653  0.00  0.00    -0.388 OA
ATOM     12  C5  BDP d1176       5.009 -16.009  16.899  0.00  0.00     0.152 C 
ATOM     13  H   BDP d1176       3.789 -17.010  18.956  0.00  0.00     0.133 H 
ATOM     14  H   BDP d1176       7.572 -19.292  18.389  0.00  0.00     0.210 HD
ATOM     15  H   BDP d1176       6.697 -17.153  18.823  0.00  0.00     0.091 H 
ATOM     16  H   BDP d1176       6.394 -17.259  15.873  0.00  0.00     0.092 H 
ATOM     17  H   BDP d1176       5.083 -19.304  17.626  0.00  0.00     0.094 H 
ATOM     18  H   BDP d1176       5.368 -18.037  20.195  0.00  0.00     0.210 HD
ATOM     19  H   BDP d1176       5.046 -15.422  17.793  0.00  0.00     0.104 H 
ATOM     20  C1  BDP d1178      11.447 -13.058  13.786  0.00  0.00     0.160 C 
ATOM     21  C6  BDP d1178      12.931 -13.615  10.413  0.00  0.00     0.206 C 
ATOM     22  O6B BDP d1178      12.521 -13.397   9.248  0.00  0.00    -0.646 OA
ATOM     23  O6A BDP d1178      13.920 -14.337  10.693  0.00  0.00    -0.646 OA
ATOM     24  O3  BDP d1178      13.001  -9.705  13.298  0.00  0.00    -0.390 OA
ATOM     25  O2  BDP d1178      11.672 -11.178  15.279  0.00  0.00    -0.388 OA
ATOM     26  C5  BDP d1178      12.165 -12.917  11.538  0.00  0.00     0.152 C 
ATOM     27  C3  BDP d1178      12.239 -10.853  13.000  0.00  0.00     0.092 C 
ATOM     28  C2  BDP d1178      12.243 -11.813  14.163  0.00  0.00     0.110 C 
ATOM     29  O4  BDP d1178      12.437 -10.734  10.681  0.00  0.00    -0.348 OA
ATOM     30  O5  BDP d1178      12.097 -13.710  12.717  0.00  0.00    -0.340 OA
ATOM     31  C4  BDP d1178      12.790 -11.545  11.765  0.00  0.00     0.103 C 
ATOM     32  H   BDP d1178      10.459 -12.832  13.444  0.00  0.00     0.133 H 
ATOM     33  H   BDP d1178      12.639  -9.272  14.087  0.00  0.00     0.210 HD
ATOM     34  H   BDP d1178      11.670 -11.788  16.032  0.00  0.00     0.210 HD
ATOM     35  H   BDP d1178      11.143 -12.782  11.250  0.00  0.00     0.104 H 
ATOM     36  H   BDP d1178      11.232 -10.544  12.812  0.00  0.00     0.091 H 
ATOM     37  H   BDP d1178      13.244 -12.105  14.403  0.00  0.00     0.094 H 
ATOM     38  H   BDP d1178      13.845 -11.684  11.880  0.00  0.00     0.092 H 
ATOM     39  C6  NAG d1177      10.820 -18.736  15.382  0.00  0.00     0.043 C 
ATOM     40  O4  NAG d1177      12.091 -16.385  14.047  0.00  0.00    -0.390 OA
ATOM     41  C2  NAG d1177       9.273 -14.729  15.846  0.00  0.00     0.087 C 
ATOM     42  C3  NAG d1177      10.408 -14.920  14.849  0.00  0.00     0.093 C 
ATOM     43  C7  NAG d1177       8.214 -12.541  16.250  0.00  0.00     0.214 C 
ATOM     44  N2  NAG d1177       8.503 -13.560  15.445  0.00  0.00    -0.349 N 
ATOM     45  C8  NAG d1177       7.116 -11.644  15.762  0.00  0.00    -0.003 C 
ATOM     46  O7  NAG d1177       8.790 -12.304  17.317  0.00  0.00    -0.274 OA
ATOM     47  O6  NAG d1177      10.582 -19.153  16.714  0.00  0.00    -0.398 OA
ATOM     48  C4  NAG d1177      11.143 -16.230  15.086  0.00  0.00     0.089 C 
ATOM     49  O5  NAG d1177       9.171 -17.152  16.112  0.00  0.00    -0.349 OA
ATOM     50  C5  NAG d1177      10.147 -17.389  15.119  0.00  0.00     0.089 C 
ATOM     51  C1  NAG d1177       8.398 -15.983  15.893  0.00  0.00     0.154 C 
ATOM     52  O3  NAG d1177      11.334 -13.865  14.971  0.00  0.00    -0.348 OA
ATOM     53  H   NAG d1177      11.873 -18.641  15.225  0.00  0.00     0.078 H 
ATOM     54  H   NAG d1177      10.413 -19.465  14.711  0.00  0.00     0.078 H 
ATOM     55  H   NAG d1177      12.705 -15.635  14.055  0.00  0.00     0.210 HD
ATOM     56  H   NAG d1177       9.662 -14.573  16.831  0.00  0.00     0.084 H 
ATOM     57  H   NAG d1177       9.976 -14.933  13.870  0.00  0.00     0.091 H 
ATOM     58  H   NAG d1177       8.176 -13.522  14.518  0.00  0.00     0.163 HD
ATOM     59  H   NAG d1177       6.744 -12.011  14.829  0.00  0.00     0.040 H 
ATOM     60  H   NAG d1177       7.498 -10.653  15.628  0.00  0.00     0.040 H 
ATOM     61  H   NAG d1177       6.323 -11.627  16.480  0.00  0.00     0.040 H 
ATOM     62  H   NAG d1177      10.947 -18.498  17.329  0.00  0.00     0.209 HD
ATOM     63  H   NAG d1177      11.648 -16.223  16.029  0.00  0.00     0.091 H 
ATOM     64  H   NAG d1177       9.693 -17.441  14.152  0.00  0.00     0.090 H 
ATOM     65  H   NAG d1177       7.921 -16.123  14.945  0.00  0.00     0.132 H 
ATOM     66  C6  NAG d1175      -1.674 -16.813  16.731  0.00  0.00     0.043 C 
ATOM     67  O3  NAG d1175       2.735 -18.532  18.041  0.00  0.00    -0.348 OA
ATOM     68  C2  NAG d1175       0.830 -19.060  19.394  0.00  0.00     0.087 C 
ATOM     69  O6  NAG d1175      -2.951 -16.454  17.205  0.00  0.00    -0.398 OA
ATOM     70  O1  NAG d1175      -1.263 -19.741  20.410  0.00  0.00    -0.369 OA
ATOM     71  C7  NAG d1175       1.788 -20.611  21.023  0.00  0.00     0.214 C 
ATOM     72  N2  NAG d1175       1.599 -19.360  20.597  0.00  0.00    -0.349 N 
ATOM     73  C5  NAG d1175      -0.811 -17.186  17.930  0.00  0.00     0.089 C 
ATOM     74  O5  NAG d1175      -1.306 -18.373  18.533  0.00  0.00    -0.349 OA
ATOM     75  C4  NAG d1175       0.650 -17.333  17.500  0.00  0.00     0.089 C 
ATOM     76  O4  NAG d1175       1.113 -16.044  17.141  0.00  0.00    -0.390 OA
ATOM     77  O7  NAG d1175       2.282 -21.496  20.313  0.00  0.00    -0.274 OA
ATOM     78  C1  NAG d1175      -0.617 -18.680  19.734  0.00  0.00     0.151 C 
ATOM     79  C8  NAG d1175       1.374 -20.891  22.442  0.00  0.00    -0.003 C 
ATOM     80  C3  NAG d1175       1.544 -17.964  18.584  0.00  0.00     0.093 C 
ATOM     81  H   NAG d1175      -1.755 -17.648  16.067  0.00  0.00     0.078 H 
ATOM     82  H   NAG d1175      -1.233 -15.996  16.198  0.00  0.00     0.078 H 
ATOM     83  H   NAG d1175       0.774 -19.940  18.787  0.00  0.00     0.084 H 
ATOM     84  H   NAG d1175      -3.340 -17.201  17.686  0.00  0.00     0.209 HD
ATOM     85  H   NAG d1175      -0.784 -19.943  21.229  0.00  0.00     0.212 HD
ATOM     86  H   NAG d1175       1.991 -18.617  21.110  0.00  0.00     0.163 HD
ATOM     87  H   NAG d1175      -0.857 -16.407  18.661  0.00  0.00     0.090 H 
ATOM     88  H   NAG d1175       0.705 -18.010  16.672  0.00  0.00     0.091 H 
ATOM     89  H   NAG d1175       1.052 -15.454  17.908  0.00  0.00     0.210 HD
ATOM     90  H   NAG d1175      -0.616 -17.826  20.380  0.00  0.00     0.132 H 
ATOM     91  H   NAG d1175       0.973 -20.001  22.879  0.00  0.00     0.040 H 
ATOM     92  H   NAG d1175       2.225 -21.211  23.005  0.00  0.00     0.040 H 
ATOM     93  H   NAG d1175       0.630 -21.659  22.451  0.00  0.00     0.040 H 
ATOM     94  H   NAG d1175       1.788 -17.149  19.234  0.00  0.00     0.091 H 
ATOM     95  C4  NAG d1181      13.285  -7.463  -2.624  0.00  0.00     0.089 C 
ATOM     96  C3  NAG d1181      14.722  -7.925  -2.365  0.00  0.00     0.086 C 
ATOM     97  C6  NAG d1181      11.084  -6.766  -1.587  0.00  0.00     0.043 C 
ATOM     98  C5  NAG d1181      12.578  -6.996  -1.343  0.00  0.00     0.089 C 
ATOM     99  C7  NAG d1181      16.688 -10.336  -0.905  0.00  0.00     0.214 C 
ATOM    100  C8  NAG d1181      16.124 -11.431  -0.041  0.00  0.00    -0.003 C 
ATOM    101  N2  NAG d1181      16.161  -9.120  -0.760  0.00  0.00    -0.349 N 
ATOM    102  O3  NAG d1181      15.236  -8.605  -3.501  0.00  0.00    -0.391 OA
ATOM    103  C1  NAG d1181      14.046  -8.222   0.053  0.00  0.00     0.154 C 
ATOM    104  O6  NAG d1181      10.551  -5.938  -0.574  0.00  0.00    -0.398 OA
ATOM    105  O5  NAG d1181      12.712  -7.951  -0.304  0.00  0.00    -0.349 OA
ATOM    106  O7  NAG d1181      17.594 -10.566  -1.710  0.00  0.00    -0.274 OA
ATOM    107  O4  NAG d1181      13.297  -6.414  -3.565  0.00  0.00    -0.390 OA
ATOM    108  C2  NAG d1181      14.784  -8.835  -1.135  0.00  0.00     0.087 C 
ATOM    109  H   NAG d1181      12.738  -8.302  -3.001  0.00  0.00     0.091 H 
ATOM    110  H   NAG d1181      15.323  -7.060  -2.179  0.00  0.00     0.090 H 
ATOM    111  H   NAG d1181      10.575  -7.706  -1.579  0.00  0.00     0.078 H 
ATOM    112  H   NAG d1181      10.953  -6.288  -2.535  0.00  0.00     0.078 H 
ATOM    113  H   NAG d1181      13.045  -6.077  -1.055  0.00  0.00     0.090 H 
ATOM    114  H   NAG d1181      15.354 -11.031   0.584  0.00  0.00     0.040 H 
ATOM    115  H   NAG d1181      16.903 -11.839   0.569  0.00  0.00     0.040 H 
ATOM    116  H   NAG d1181      15.716 -12.201  -0.662  0.00  0.00     0.040 H 
ATOM    117  H   NAG d1181      16.718  -8.397  -0.390  0.00  0.00     0.163 HD
ATOM    118  H   NAG d1181      14.697  -9.392  -3.678  0.00  0.00     0.210 HD
ATOM    119  H   NAG d1181      14.493  -7.295   0.348  0.00  0.00     0.132 H 
ATOM    120  H   NAG d1181      10.667  -6.366   0.288  0.00  0.00     0.209 HD
ATOM    121  H   NAG d1181      13.796  -5.664  -3.207  0.00  0.00     0.210 HD
ATOM    122  H   NAG d1181      14.300  -9.752  -1.402  0.00  0.00     0.084 H 
ATOM    123  C7  NAG d1179      10.755 -10.963   7.841  0.00  0.00     0.214 C 
ATOM    124  C1  NAG d1179      13.521 -10.394   9.801  0.00  0.00     0.154 C 
ATOM    125  C2  NAG d1179      12.845  -9.943   8.512  0.00  0.00     0.087 C 
ATOM    126  O5  NAG d1179      14.330  -9.354  10.309  0.00  0.00    -0.349 OA
ATOM    127  O7  NAG d1179      10.149  -9.906   7.677  0.00  0.00    -0.274 OA
ATOM    128  O4  NAG d1179      15.704  -7.876   7.264  0.00  0.00    -0.390 OA
ATOM    129  N2  NAG d1179      12.082 -11.033   7.925  0.00  0.00    -0.349 N 
ATOM    130  C8  NAG d1179       9.987 -12.244   7.955  0.00  0.00    -0.003 C 
ATOM    131  O3  NAG d1179      13.030  -8.661   6.509  0.00  0.00    -0.348 OA
ATOM    132  C4  NAG d1179      14.718  -8.316   8.175  0.00  0.00     0.089 C 
ATOM    133  C5  NAG d1179      15.352  -8.946   9.416  0.00  0.00     0.089 C 
ATOM    134  O6  NAG d1179      15.617  -6.802  10.516  0.00  0.00    -0.398 OA
ATOM    135  C3  NAG d1179      13.800  -9.325   7.494  0.00  0.00     0.093 C 
ATOM    136  C6  NAG d1179      16.296  -7.987  10.141  0.00  0.00     0.043 C 
ATOM    137  H   NAG d1179      14.178 -11.229   9.668  0.00  0.00     0.132 H 
ATOM    138  H   NAG d1179      12.176  -9.155   8.790  0.00  0.00     0.084 H 
ATOM    139  H   NAG d1179      15.275  -7.482   6.489  0.00  0.00     0.210 HD
ATOM    140  H   NAG d1179      12.551 -11.830   7.586  0.00  0.00     0.163 HD
ATOM    141  H   NAG d1179      10.669 -13.057   8.094  0.00  0.00     0.040 H 
ATOM    142  H   NAG d1179       9.422 -12.401   7.060  0.00  0.00     0.040 H 
ATOM    143  H   NAG d1179       9.323 -12.189   8.792  0.00  0.00     0.040 H 
ATOM    144  H   NAG d1179      14.148  -7.465   8.487  0.00  0.00     0.091 H 
ATOM    145  H   NAG d1179      15.931  -9.785   9.089  0.00  0.00     0.090 H 
ATOM    146  H   NAG d1179      16.232  -6.208  10.974  0.00  0.00     0.209 HD
ATOM    147  H   NAG d1179      14.399 -10.093   7.051  0.00  0.00     0.091 H 
ATOM    148  H   NAG d1179      17.108  -7.735   9.491  0.00  0.00     0.078 H 
ATOM    149  H   NAG d1179      16.662  -8.468  11.025  0.00  0.00     0.078 H 
ATOM    150  C6  BDP d1180      16.263  -8.648   3.061  0.00  0.00     0.206 C 
ATOM    151  O3  BDP d1180      11.441  -8.196   2.088  0.00  0.00    -0.390 OA
ATOM    152  C1  BDP d1180      13.310  -9.133   5.183  0.00  0.00     0.160 C 
ATOM    153  O2  BDP d1180      11.102  -9.806   4.627  0.00  0.00    -0.388 OA
ATOM    154  C3  BDP d1180      12.380  -8.987   2.786  0.00  0.00     0.092 C 
ATOM    155  O4  BDP d1180      14.121  -9.154   1.145  0.00  0.00    -0.348 OA
ATOM    156  O5  BDP d1180      14.462  -8.501   4.669  0.00  0.00    -0.340 OA
ATOM    157  C5  BDP d1180      14.824  -9.032   3.411  0.00  0.00     0.152 C 
ATOM    158  O6B BDP d1180      16.589  -7.438   3.130  0.00  0.00    -0.646 OA
ATOM    159  O6A BDP d1180      17.045  -9.573   2.736  0.00  0.00    -0.646 OA
ATOM    160  C2  BDP d1180      12.099  -8.865   4.290  0.00  0.00     0.110 C 
ATOM    161  C4  BDP d1180      13.796  -8.563   2.383  0.00  0.00     0.103 C 
ATOM    162  H   BDP d1180      10.543  -8.461   2.341  0.00  0.00     0.210 HD
ATOM    163  H   BDP d1180      13.499 -10.186   5.210  0.00  0.00     0.133 H 
ATOM    164  H   BDP d1180      10.908  -9.745   5.576  0.00  0.00     0.210 HD
ATOM    165  H   BDP d1180      12.294 -10.023   2.534  0.00  0.00     0.091 H 
ATOM    166  H   BDP d1180      14.811 -10.101   3.424  0.00  0.00     0.104 H 
ATOM    167  H   BDP d1180      11.803  -7.851   4.461  0.00  0.00     0.094 H 
ATOM    168  H   BDP d1180      13.818  -7.495   2.322  0.00  0.00     0.092 H 
ENDROOT
TORSDOF 43
ENDMDL
MODEL 6
REMARK VINA RESULT:      -8.8      2.271      3.130
REMARK  0 active torsions:
REMARK  status: ('A' for Active; 'I' for Inactive)
REMARK       I    between atoms: C1_1  and  O3_15 
REMARK       I    between atoms: C1_2  and  O3_93 
REMARK       I    between atoms: C6_3  and  C5_89 
REMARK       I    between atoms: C6_3  and  O6_76 
REMARK       I    between atoms: O3_4  and  C3_22 
REMARK       I    between atoms: C6_5  and  C5_48 
REMARK       I    between atoms: C6_5  and  O6_31 
REMARK       I    between atoms: C4_6  and  O4_74 
REMARK       I    between atoms: C7_7  and  C8_62 
REMARK       I    between atoms: C7_7  and  N2_60 
REMARK       I    between atoms: C6_8  and  C5_52 
REMARK       I    between atoms: C3_9  and  O3_38 
REMARK       I    between atoms: C1_10  and  O4_75 
REMARK       I    between atoms: C6_12  and  C5_51 
REMARK       I    between atoms: O3_13  and  C3_42 
REMARK       I    between atoms: O4_14  and  C4_84 
REMARK       I    between atoms: O3_15  and  C3_86 
REMARK       I    between atoms: C6_16  and  C5_23 
REMARK       I    between atoms: C6_16  and  O6_58 
REMARK       I    between atoms: C1_17  and  O3_63 
REMARK       I    between atoms: C2_18  and  N2_60 
REMARK       I    between atoms: C2_19  and  N2_53 
REMARK       I    between atoms: O2_20  and  C2_66 
REMARK       I    between atoms: C3_25  and  O3_93 
REMARK       I    between atoms: C7_26  and  C8_32 
REMARK       I    between atoms: C7_26  and  N2_37 
REMARK       I    between atoms: C2_28  and  N2_44 
REMARK       I    between atoms: C7_29  and  C8_54 
REMARK       I    between atoms: C7_29  and  N2_53 
REMARK       I    between atoms: O1_33  and  C1_80 
REMARK       I    between atoms: O4_34  and  C4_40 
REMARK       I    between atoms: O4_34  and  C1_92 
REMARK       I    between atoms: C7_36  and  C8_81 
REMARK       I    between atoms: C7_36  and  N2_44 
REMARK       I    between atoms: N2_37  and  C2_83 
REMARK       I    between atoms: O3_39  and  C3_61 
REMARK       I    between atoms: C1_41  and  O4_46 
REMARK       I    between atoms: O2_43  and  C2_73 
REMARK       I    between atoms: C6_45  and  C5_87 
REMARK       I    between atoms: O4_46  and  C4_67 
REMARK       I    between atoms: C4_50  and  O4_65 
REMARK       I    between atoms: C2_55  and  O2_82 
REMARK       I    between atoms: O4_57  and  C4_71 
REMARK       I    between atoms: O3_63  and  C3_85 
REMARK       I    between atoms: O4_75  and  C4_91 
REMARK       I    between atoms: C5_77  and  C6_90 
REMARK       I    between atoms: O6_79  and  C6_90 
ROOT
ATOM      1  C1  BDP d1176       9.203 -14.977  17.065  0.00  0.00     0.160 C 
ATOM      2  O3  BDP d1176      12.355 -14.191  15.162  0.00  0.00    -0.390 OA
ATOM      3  O5  BDP d1176       8.590 -15.354  15.864  0.00  0.00    -0.340 OA
ATOM      4  O6A BDP d1176       7.895 -15.954  13.315  0.00  0.00    -0.646 OA
ATOM      5  C3  BDP d1176      11.019 -13.942  15.550  0.00  0.00     0.092 C 
ATOM      6  O4  BDP d1176      10.170 -13.156  13.461  0.00  0.00    -0.348 OA
ATOM      7  C4  BDP d1176      10.096 -14.233  14.375  0.00  0.00     0.103 C 
ATOM      8  C6  BDP d1176       7.722 -14.806  13.766  0.00  0.00     0.206 C 
ATOM      9  C2  BDP d1176      10.695 -14.714  16.827  0.00  0.00     0.110 C 
ATOM     10  O6B BDP d1176       6.848 -13.995  13.393  0.00  0.00    -0.646 OA
ATOM     11  O2  BDP d1176      11.188 -13.930  17.886  0.00  0.00    -0.388 OA
ATOM     12  C5  BDP d1176       8.663 -14.373  14.871  0.00  0.00     0.152 C 
ATOM     13  H   BDP d1176       8.768 -14.077  17.444  0.00  0.00     0.133 H 
ATOM     14  H   BDP d1176      12.947 -14.006  15.908  0.00  0.00     0.210 HD
ATOM     15  H   BDP d1176      10.869 -12.911  15.796  0.00  0.00     0.091 H 
ATOM     16  H   BDP d1176      10.394 -15.144  13.899  0.00  0.00     0.092 H 
ATOM     17  H   BDP d1176      11.142 -15.683  16.749  0.00  0.00     0.094 H 
ATOM     18  H   BDP d1176      10.735 -13.071  17.890  0.00  0.00     0.210 HD
ATOM     19  H   BDP d1176       8.375 -13.411  15.240  0.00  0.00     0.104 H 
ATOM     20  C1  BDP d1178      10.667 -11.907   7.818  0.00  0.00     0.160 C 
ATOM     21  C6  BDP d1178      11.703 -13.862   4.818  0.00  0.00     0.206 C 
ATOM     22  O6B BDP d1178      11.128 -14.732   4.119  0.00  0.00    -0.646 OA
ATOM     23  O6A BDP d1178      12.934 -13.619   4.776  0.00  0.00    -0.646 OA
ATOM     24  O3  BDP d1178       9.302  -9.651   5.181  0.00  0.00    -0.390 OA
ATOM     25  O2  BDP d1178       9.658  -9.722   7.962  0.00  0.00    -0.388 OA
ATOM     26  C5  BDP d1178      10.804 -13.048   5.751  0.00  0.00     0.152 C 
ATOM     27  C3  BDP d1178       9.556 -10.850   5.879  0.00  0.00     0.092 C 
ATOM     28  C2  BDP d1178      10.377 -10.584   7.116  0.00  0.00     0.110 C 
ATOM     29  O4  BDP d1178       9.342 -12.290   4.060  0.00  0.00    -0.348 OA
ATOM     30  O5  BDP d1178      11.458 -12.709   6.969  0.00  0.00    -0.340 OA
ATOM     31  C4  BDP d1178      10.288 -11.835   4.984  0.00  0.00     0.103 C 
ATOM     32  H   BDP d1178       9.782 -12.470   8.025  0.00  0.00     0.133 H 
ATOM     33  H   BDP d1178       8.835  -9.032   5.763  0.00  0.00     0.210 HD
ATOM     34  H   BDP d1178      10.178  -9.545   8.761  0.00  0.00     0.210 HD
ATOM     35  H   BDP d1178       9.967 -13.640   6.055  0.00  0.00     0.104 H 
ATOM     36  H   BDP d1178       8.617 -11.270   6.172  0.00  0.00     0.091 H 
ATOM     37  H   BDP d1178      11.306 -10.122   6.857  0.00  0.00     0.094 H 
ATOM     38  H   BDP d1178      11.132 -11.349   4.540  0.00  0.00     0.092 H 
ATOM     39  C6  NAG d1177      14.456 -14.275  11.719  0.00  0.00     0.043 C 
ATOM     40  O4  NAG d1177      13.510 -13.294   9.060  0.00  0.00    -0.390 OA
ATOM     41  C2  NAG d1177      10.587 -12.422  11.208  0.00  0.00     0.087 C 
ATOM     42  C3  NAG d1177      11.394 -12.694   9.945  0.00  0.00     0.093 C 
ATOM     43  C7  NAG d1177       8.343 -11.405  11.155  0.00  0.00     0.214 C 
ATOM     44  N2  NAG d1177       9.175 -12.397  10.852  0.00  0.00    -0.349 N 
ATOM     45  C8  NAG d1177       6.887 -11.744  11.034  0.00  0.00    -0.003 C 
ATOM     46  O7  NAG d1177       8.697 -10.272  11.497  0.00  0.00    -0.274 OA
ATOM     47  O6  NAG d1177      14.742 -13.700  12.981  0.00  0.00    -0.398 OA
ATOM     48  C4  NAG d1177      12.863 -12.927  10.263  0.00  0.00     0.089 C 
ATOM     49  O5  NAG d1177      12.270 -13.642  12.483  0.00  0.00    -0.349 OA
ATOM     50  C5  NAG d1177      13.001 -14.011  11.332  0.00  0.00     0.089 C 
ATOM     51  C1  NAG d1177      10.878 -13.494  12.259  0.00  0.00     0.154 C 
ATOM     52  O3  NAG d1177      11.299 -11.594   9.071  0.00  0.00    -0.348 OA
ATOM     53  H   NAG d1177      15.101 -13.845  10.981  0.00  0.00     0.078 H 
ATOM     54  H   NAG d1177      14.614 -15.332  11.774  0.00  0.00     0.078 H 
ATOM     55  H   NAG d1177      13.403 -12.586   8.406  0.00  0.00     0.210 HD
ATOM     56  H   NAG d1177      10.859 -11.477  11.630  0.00  0.00     0.084 H 
ATOM     57  H   NAG d1177      10.990 -13.575   9.491  0.00  0.00     0.091 H 
ATOM     58  H   NAG d1177       8.814 -13.166  10.354  0.00  0.00     0.163 HD
ATOM     59  H   NAG d1177       6.782 -12.764  10.729  0.00  0.00     0.040 H 
ATOM     60  H   NAG d1177       6.432 -11.106  10.306  0.00  0.00     0.040 H 
ATOM     61  H   NAG d1177       6.408 -11.604  11.981  0.00  0.00     0.040 H 
ATOM     62  H   NAG d1177      14.600 -12.741  12.939  0.00  0.00     0.209 HD
ATOM     63  H   NAG d1177      13.317 -12.041  10.654  0.00  0.00     0.091 H 
ATOM     64  H   NAG d1177      12.611 -14.915  10.914  0.00  0.00     0.090 H 
ATOM     65  H   NAG d1177      10.537 -14.445  11.905  0.00  0.00     0.132 H 
ATOM     66  C6  NAG d1175       4.582 -18.011  18.801  0.00  0.00     0.043 C 
ATOM     67  O3  NAG d1175       9.014 -16.044  18.021  0.00  0.00    -0.348 OA
ATOM     68  C2  NAG d1175       8.225 -16.283  20.270  0.00  0.00     0.087 C 
ATOM     69  O6  NAG d1175       3.496 -18.070  19.697  0.00  0.00    -0.398 OA
ATOM     70  O1  NAG d1175       7.375 -16.926  22.448  0.00  0.00    -0.369 OA
ATOM     71  C7  NAG d1175      10.180 -15.588  21.563  0.00  0.00     0.214 C 
ATOM     72  N2  NAG d1175       9.111 -15.268  20.832  0.00  0.00    -0.349 N 
ATOM     73  C5  NAG d1175       5.585 -16.997  19.339  0.00  0.00     0.089 C 
ATOM     74  O5  NAG d1175       6.156 -17.473  20.549  0.00  0.00    -0.349 OA
ATOM     75  C4  NAG d1175       6.653 -16.704  18.282  0.00  0.00     0.089 C 
ATOM     76  O4  NAG d1175       6.015 -16.017  17.221  0.00  0.00    -0.390 OA
ATOM     77  O7  NAG d1175      11.070 -16.345  21.157  0.00  0.00    -0.274 OA
ATOM     78  C1  NAG d1175       6.991 -16.500  21.155  0.00  0.00     0.151 C 
ATOM     79  C8  NAG d1175      10.257 -14.957  22.926  0.00  0.00    -0.003 C 
ATOM     80  C3  NAG d1175       7.846 -15.898  18.830  0.00  0.00     0.093 C 
ATOM     81  H   NAG d1175       5.044 -18.973  18.726  0.00  0.00     0.078 H 
ATOM     82  H   NAG d1175       4.245 -17.718  17.829  0.00  0.00     0.078 H 
ATOM     83  H   NAG d1175       8.742 -17.220  20.241  0.00  0.00     0.084 H 
ATOM     84  H   NAG d1175       3.814 -18.336  20.574  0.00  0.00     0.209 HD
ATOM     85  H   NAG d1175       7.946 -16.254  22.854  0.00  0.00     0.212 HD
ATOM     86  H   NAG d1175       8.913 -14.318  20.666  0.00  0.00     0.163 HD
ATOM     87  H   NAG d1175       5.083 -16.077  19.556  0.00  0.00     0.090 H 
ATOM     88  H   NAG d1175       7.076 -17.628  17.948  0.00  0.00     0.091 H 
ATOM     89  H   NAG d1175       5.642 -15.185  17.553  0.00  0.00     0.210 HD
ATOM     90  H   NAG d1175       6.458 -15.577  21.254  0.00  0.00     0.132 H 
ATOM     91  H   NAG d1175       9.396 -14.341  23.083  0.00  0.00     0.040 H 
ATOM     92  H   NAG d1175      11.140 -14.357  22.992  0.00  0.00     0.040 H 
ATOM     93  H   NAG d1175      10.288 -15.723  23.672  0.00  0.00     0.040 H 
ATOM     94  H   NAG d1175       7.510 -14.883  18.813  0.00  0.00     0.091 H 
ATOM     95  C4  NAG d1181       6.064 -19.240  -7.315  0.00  0.00     0.089 C 
ATOM     96  C3  NAG d1181       7.419 -18.660  -7.732  0.00  0.00     0.086 C 
ATOM     97  C6  NAG d1181       4.162 -19.146  -5.648  0.00  0.00     0.043 C 
ATOM     98  C5  NAG d1181       5.390 -18.421  -6.205  0.00  0.00     0.089 C 
ATOM     99  C7  NAG d1181      10.666 -18.100  -6.755  0.00  0.00     0.214 C 
ATOM    100  C8  NAG d1181      11.154 -18.377  -5.359  0.00  0.00    -0.003 C 
ATOM    101  N2  NAG d1181       9.452 -17.561  -6.875  0.00  0.00    -0.349 N 
ATOM    102  O3  NAG d1181       8.128 -19.587  -8.541  0.00  0.00    -0.391 OA
ATOM    103  C1  NAG d1181       7.441 -17.470  -5.501  0.00  0.00     0.154 C 
ATOM    104  O6  NAG d1181       3.321 -18.230  -4.979  0.00  0.00    -0.398 OA
ATOM    105  O5  NAG d1181       6.282 -18.178  -5.131  0.00  0.00    -0.349 OA
ATOM    106  O7  NAG d1181      11.365 -18.367  -7.736  0.00  0.00    -0.274 OA
ATOM    107  O4  NAG d1181       5.217 -19.296  -8.441  0.00  0.00    -0.390 OA
ATOM    108  C2  NAG d1181       8.252 -18.294  -6.500  0.00  0.00     0.087 C 
ATOM    109  H   NAG d1181       6.239 -20.221  -6.925  0.00  0.00     0.091 H 
ATOM    110  H   NAG d1181       7.242 -17.771  -8.299  0.00  0.00     0.090 H 
ATOM    111  H   NAG d1181       4.479 -19.902  -4.961  0.00  0.00     0.078 H 
ATOM    112  H   NAG d1181       3.622 -19.593  -6.456  0.00  0.00     0.078 H 
ATOM    113  H   NAG d1181       5.094 -17.493  -6.649  0.00  0.00     0.090 H 
ATOM    114  H   NAG d1181      10.407 -18.076  -4.654  0.00  0.00     0.040 H 
ATOM    115  H   NAG d1181      12.055 -17.827  -5.181  0.00  0.00     0.040 H 
ATOM    116  H   NAG d1181      11.347 -19.424  -5.249  0.00  0.00     0.040 H 
ATOM    117  H   NAG d1181       9.366 -16.645  -7.227  0.00  0.00     0.163 HD
ATOM    118  H   NAG d1181       8.293 -20.398  -8.034  0.00  0.00     0.210 HD
ATOM    119  H   NAG d1181       7.126 -16.543  -5.932  0.00  0.00     0.132 H 
ATOM    120  H   NAG d1181       3.806 -17.822  -4.246  0.00  0.00     0.209 HD
ATOM    121  H   NAG d1181       5.071 -18.399  -8.780  0.00  0.00     0.210 HD
ATOM    122  H   NAG d1181       8.537 -19.213  -6.033  0.00  0.00     0.084 H 
ATOM    123  C7  NAG d1179       8.010 -15.149   3.060  0.00  0.00     0.214 C 
ATOM    124  C1  NAG d1179       9.749 -12.209   2.684  0.00  0.00     0.154 C 
ATOM    125  C2  NAG d1179       8.811 -13.155   1.947  0.00  0.00     0.087 C 
ATOM    126  O5  NAG d1179       9.629 -10.905   2.157  0.00  0.00    -0.349 OA
ATOM    127  O7  NAG d1179       6.819 -14.949   2.829  0.00  0.00    -0.274 OA
ATOM    128  O4  NAG d1179       9.178 -11.544  -1.411  0.00  0.00    -0.390 OA
ATOM    129  N2  NAG d1179       8.990 -14.521   2.413  0.00  0.00    -0.349 N 
ATOM    130  C8  NAG d1179       8.402 -16.141   4.112  0.00  0.00    -0.003 C 
ATOM    131  O3  NAG d1179       7.795 -13.733  -0.133  0.00  0.00    -0.348 OA
ATOM    132  C4  NAG d1179       8.912 -11.616  -0.025  0.00  0.00     0.089 C 
ATOM    133  C5  NAG d1179       9.944 -10.822   0.778  0.00  0.00     0.089 C 
ATOM    134  O6  NAG d1179       8.730  -8.741   0.507  0.00  0.00    -0.398 OA
ATOM    135  C3  NAG d1179       8.915 -13.073   0.426  0.00  0.00     0.093 C 
ATOM    136  C6  NAG d1179      10.000  -9.350   0.365  0.00  0.00     0.043 C 
ATOM    137  H   NAG d1179      10.783 -12.466   2.579  0.00  0.00     0.132 H 
ATOM    138  H   NAG d1179       7.818 -12.830   2.182  0.00  0.00     0.084 H 
ATOM    139  H   NAG d1179       8.510 -12.055  -1.895  0.00  0.00     0.210 HD
ATOM    140  H   NAG d1179       9.842 -14.985   2.249  0.00  0.00     0.163 HD
ATOM    141  H   NAG d1179       9.469 -16.187   4.178  0.00  0.00     0.040 H 
ATOM    142  H   NAG d1179       8.018 -17.106   3.853  0.00  0.00     0.040 H 
ATOM    143  H   NAG d1179       7.999 -15.839   5.055  0.00  0.00     0.040 H 
ATOM    144  H   NAG d1179       7.949 -11.186   0.153  0.00  0.00     0.091 H 
ATOM    145  H   NAG d1179      10.905 -11.250   0.579  0.00  0.00     0.090 H 
ATOM    146  H   NAG d1179       8.786  -7.810   0.241  0.00  0.00     0.209 HD
ATOM    147  H   NAG d1179       9.825 -13.532   0.103  0.00  0.00     0.091 H 
ATOM    148  H   NAG d1179      10.309  -9.284  -0.657  0.00  0.00     0.078 H 
ATOM    149  H   NAG d1179      10.697  -8.843   0.998  0.00  0.00     0.078 H 
ATOM    150  C6  BDP d1180       9.628 -14.616  -4.399  0.00  0.00     0.206 C 
ATOM    151  O3  BDP d1180       5.852 -17.250  -2.611  0.00  0.00    -0.390 OA
ATOM    152  C1  BDP d1180       8.172 -14.783  -1.037  0.00  0.00     0.160 C 
ATOM    153  O2  BDP d1180       7.055 -16.558   0.077  0.00  0.00    -0.388 OA
ATOM    154  C3  BDP d1180       7.147 -16.781  -2.297  0.00  0.00     0.092 C 
ATOM    155  O4  BDP d1180       8.282 -17.205  -4.366  0.00  0.00    -0.348 OA
ATOM    156  O5  BDP d1180       8.462 -14.254  -2.312  0.00  0.00    -0.340 OA
ATOM    157  C5  BDP d1180       8.945 -15.252  -3.187  0.00  0.00     0.152 C 
ATOM    158  O6B BDP d1180       9.002 -13.741  -5.045  0.00  0.00    -0.646 OA
ATOM    159  O6A BDP d1180      10.792 -14.999  -4.673  0.00  0.00    -0.646 OA
ATOM    160  C2  BDP d1180       7.038 -15.805  -1.117  0.00  0.00     0.110 C 
ATOM    161  C4  BDP d1180       7.780 -16.170  -3.551  0.00  0.00     0.103 C 
ATOM    162  H   BDP d1180       5.447 -17.638  -1.819  0.00  0.00     0.210 HD
ATOM    163  H   BDP d1180       9.055 -15.266  -0.675  0.00  0.00     0.133 H 
ATOM    164  H   BDP d1180       6.988 -15.959   0.838  0.00  0.00     0.210 HD
ATOM    165  H   BDP d1180       7.795 -17.574  -1.989  0.00  0.00     0.091 H 
ATOM    166  H   BDP d1180       9.698 -15.848  -2.717  0.00  0.00     0.104 H 
ATOM    167  H   BDP d1180       6.132 -15.255  -1.260  0.00  0.00     0.094 H 
ATOM    168  H   BDP d1180       7.028 -15.604  -4.060  0.00  0.00     0.092 H 
ENDROOT
TORSDOF 43
ENDMDL
MODEL 7
REMARK VINA RESULT:      -8.5      3.888     18.878
REMARK  0 active torsions:
REMARK  status: ('A' for Active; 'I' for Inactive)
REMARK       I    between atoms: C1_1  and  O3_15 
REMARK       I    between atoms: C1_2  and  O3_93 
REMARK       I    between atoms: C6_3  and  C5_89 
REMARK       I    between atoms: C6_3  and  O6_76 
REMARK       I    between atoms: O3_4  and  C3_22 
REMARK       I    between atoms: C6_5  and  C5_48 
REMARK       I    between atoms: C6_5  and  O6_31 
REMARK       I    between atoms: C4_6  and  O4_74 
REMARK       I    between atoms: C7_7  and  C8_62 
REMARK       I    between atoms: C7_7  and  N2_60 
REMARK       I    between atoms: C6_8  and  C5_52 
REMARK       I    between atoms: C3_9  and  O3_38 
REMARK       I    between atoms: C1_10  and  O4_75 
REMARK       I    between atoms: C6_12  and  C5_51 
REMARK       I    between atoms: O3_13  and  C3_42 
REMARK       I    between atoms: O4_14  and  C4_84 
REMARK       I    between atoms: O3_15  and  C3_86 
REMARK       I    between atoms: C6_16  and  C5_23 
REMARK       I    between atoms: C6_16  and  O6_58 
REMARK       I    between atoms: C1_17  and  O3_63 
REMARK       I    between atoms: C2_18  and  N2_60 
REMARK       I    between atoms: C2_19  and  N2_53 
REMARK       I    between atoms: O2_20  and  C2_66 
REMARK       I    between atoms: C3_25  and  O3_93 
REMARK       I    between atoms: C7_26  and  C8_32 
REMARK       I    between atoms: C7_26  and  N2_37 
REMARK       I    between atoms: C2_28  and  N2_44 
REMARK       I    between atoms: C7_29  and  C8_54 
REMARK       I    between atoms: C7_29  and  N2_53 
REMARK       I    between atoms: O1_33  and  C1_80 
REMARK       I    between atoms: O4_34  and  C4_40 
REMARK       I    between atoms: O4_34  and  C1_92 
REMARK       I    between atoms: C7_36  and  C8_81 
REMARK       I    between atoms: C7_36  and  N2_44 
REMARK       I    between atoms: N2_37  and  C2_83 
REMARK       I    between atoms: O3_39  and  C3_61 
REMARK       I    between atoms: C1_41  and  O4_46 
REMARK       I    between atoms: O2_43  and  C2_73 
REMARK       I    between atoms: C6_45  and  C5_87 
REMARK       I    between atoms: O4_46  and  C4_67 
REMARK       I    between atoms: C4_50  and  O4_65 
REMARK       I    between atoms: C2_55  and  O2_82 
REMARK       I    between atoms: O4_57  and  C4_71 
REMARK       I    between atoms: O3_63  and  C3_85 
REMARK       I    between atoms: O4_75  and  C4_91 
REMARK       I    between atoms: C5_77  and  C6_90 
REMARK       I    between atoms: O6_79  and  C6_90 
ROOT
ATOM      1  C1  BDP d1176       6.155 -13.726  -2.862  0.00  0.00     0.160 C 
ATOM      2  O3  BDP d1176       8.535 -11.080  -1.633  0.00  0.00    -0.390 OA
ATOM      3  O5  BDP d1176       5.656 -13.860  -1.561  0.00  0.00    -0.340 OA
ATOM      4  O6A BDP d1176       5.059 -13.722   1.078  0.00  0.00    -0.646 OA
ATOM      5  C3  BDP d1176       8.077 -12.412  -1.746  0.00  0.00     0.092 C 
ATOM      6  O4  BDP d1176       8.571 -13.160   0.467  0.00  0.00    -0.348 OA
ATOM      7  C4  BDP d1176       7.503 -12.858  -0.409  0.00  0.00     0.103 C 
ATOM      8  C6  BDP d1176       5.934 -14.507   0.666  0.00  0.00     0.206 C 
ATOM      9  C2  BDP d1176       7.120 -12.535  -2.929  0.00  0.00     0.110 C 
ATOM     10  O6B BDP d1176       6.264 -15.585   1.202  0.00  0.00    -0.646 OA
ATOM     11  O2  BDP d1176       7.932 -12.678  -4.069  0.00  0.00    -0.388 OA
ATOM     12  C5  BDP d1176       6.648 -14.103  -0.607  0.00  0.00     0.152 C 
ATOM     13  H   BDP d1176       6.696 -14.603  -3.151  0.00  0.00     0.133 H 
ATOM     14  H   BDP d1176       8.903 -10.792  -2.483  0.00  0.00     0.210 HD
ATOM     15  H   BDP d1176       8.882 -13.085  -1.962  0.00  0.00     0.091 H 
ATOM     16  H   BDP d1176       6.897 -12.078   0.002  0.00  0.00     0.092 H 
ATOM     17  H   BDP d1176       6.494 -11.667  -2.938  0.00  0.00     0.094 H 
ATOM     18  H   BDP d1176       8.466 -13.484  -3.986  0.00  0.00     0.210 HD
ATOM     19  H   BDP d1176       7.314 -14.882  -0.915  0.00  0.00     0.104 H 
ATOM     20  C1  BDP d1178      10.471 -12.367   5.891  0.00  0.00     0.160 C 
ATOM     21  C6  BDP d1178       9.560 -10.011   8.631  0.00  0.00     0.206 C 
ATOM     22  O6B BDP d1178       8.597  -9.959   9.434  0.00  0.00    -0.646 OA
ATOM     23  O6A BDP d1178      10.362  -9.067   8.424  0.00  0.00    -0.646 OA
ATOM     24  O3  BDP d1178      12.059 -14.178   8.737  0.00  0.00    -0.390 OA
ATOM     25  O2  BDP d1178      11.885 -14.319   5.942  0.00  0.00    -0.388 OA
ATOM     26  C5  BDP d1178       9.749 -11.337   7.893  0.00  0.00     0.152 C 
ATOM     27  C3  BDP d1178      11.062 -13.498   8.008  0.00  0.00     0.092 C 
ATOM     28  C2  BDP d1178      11.559 -13.138   6.630  0.00  0.00     0.110 C 
ATOM     29  O4  BDP d1178       9.886 -12.666   9.839  0.00  0.00    -0.348 OA
ATOM     30  O5  BDP d1178      10.232 -11.153   6.567  0.00  0.00    -0.340 OA
ATOM     31  C4  BDP d1178      10.640 -12.237   8.742  0.00  0.00     0.103 C 
ATOM     32  H   BDP d1178       9.536 -12.887   5.867  0.00  0.00     0.133 H 
ATOM     33  H   BDP d1178      12.319 -14.980   8.258  0.00  0.00     0.210 HD
ATOM     34  H   BDP d1178      12.206 -14.098   5.054  0.00  0.00     0.210 HD
ATOM     35  H   BDP d1178       8.802 -11.819   7.765  0.00  0.00     0.104 H 
ATOM     36  H   BDP d1178      10.219 -14.148   7.911  0.00  0.00     0.091 H 
ATOM     37  H   BDP d1178      12.432 -12.522   6.696  0.00  0.00     0.094 H 
ATOM     38  H   BDP d1178      11.511 -11.674   9.007  0.00  0.00     0.092 H 
ATOM     39  C6  NAG d1177       9.810  -8.645   1.320  0.00  0.00     0.043 C 
ATOM     40  O4  NAG d1177      10.486  -9.472   4.110  0.00  0.00    -0.390 OA
ATOM     41  C2  NAG d1177       9.639 -12.772   2.588  0.00  0.00     0.087 C 
ATOM     42  C3  NAG d1177       9.913 -11.730   3.664  0.00  0.00     0.093 C 
ATOM     43  C7  NAG d1177       9.465 -15.179   3.084  0.00  0.00     0.214 C 
ATOM     44  N2  NAG d1177       9.025 -13.931   3.219  0.00  0.00    -0.349 N 
ATOM     45  C8  NAG d1177       8.488 -16.239   3.496  0.00  0.00    -0.003 C 
ATOM     46  O7  NAG d1177      10.588 -15.486   2.673  0.00  0.00    -0.274 OA
ATOM     47  O6  NAG d1177      10.321  -8.898   0.024  0.00  0.00    -0.398 OA
ATOM     48  C4  NAG d1177      10.377 -10.413   3.060  0.00  0.00     0.089 C 
ATOM     49  O5  NAG d1177       9.246 -10.957   1.006  0.00  0.00    -0.349 OA
ATOM     50  C5  NAG d1177       9.388  -9.952   1.989  0.00  0.00     0.089 C 
ATOM     51  C1  NAG d1177       8.735 -12.182   1.505  0.00  0.00     0.154 C 
ATOM     52  O3  NAG d1177      10.919 -12.195   4.535  0.00  0.00    -0.348 OA
ATOM     53  H   NAG d1177      10.567  -8.174   1.912  0.00  0.00     0.078 H 
ATOM     54  H   NAG d1177       8.957  -8.004   1.239  0.00  0.00     0.078 H 
ATOM     55  H   NAG d1177      11.120  -9.796   4.769  0.00  0.00     0.210 HD
ATOM     56  H   NAG d1177      10.552 -13.071   2.115  0.00  0.00     0.084 H 
ATOM     57  H   NAG d1177       8.998 -11.568   4.194  0.00  0.00     0.091 H 
ATOM     58  H   NAG d1177       8.232 -13.780   3.783  0.00  0.00     0.163 HD
ATOM     59  H   NAG d1177       7.578 -15.780   3.820  0.00  0.00     0.040 H 
ATOM     60  H   NAG d1177       8.903 -16.814   4.298  0.00  0.00     0.040 H 
ATOM     61  H   NAG d1177       8.287 -16.881   2.664  0.00  0.00     0.040 H 
ATOM     62  H   NAG d1177      11.095  -9.479   0.089  0.00  0.00     0.209 HD
ATOM     63  H   NAG d1177      11.328 -10.523   2.582  0.00  0.00     0.091 H 
ATOM     64  H   NAG d1177       8.455  -9.774   2.481  0.00  0.00     0.090 H 
ATOM     65  H   NAG d1177       7.778 -11.951   1.923  0.00  0.00     0.132 H 
ATOM     66  C6  NAG d1175       1.130 -16.507  -3.624  0.00  0.00     0.043 C 
ATOM     67  O3  NAG d1175       5.036 -13.534  -3.756  0.00  0.00    -0.348 OA
ATOM     68  C2  NAG d1175       4.224 -14.482  -5.801  0.00  0.00     0.087 C 
ATOM     69  O6  NAG d1175       0.470 -17.563  -4.284  0.00  0.00    -0.398 OA
ATOM     70  O1  NAG d1175       3.038 -15.273  -7.761  0.00  0.00    -0.369 OA
ATOM     71  C7  NAG d1175       5.631 -13.369  -7.462  0.00  0.00     0.214 C 
ATOM     72  N2  NAG d1175       5.476 -14.315  -6.533  0.00  0.00    -0.349 N 
ATOM     73  C5  NAG d1175       2.438 -16.235  -4.356  0.00  0.00     0.089 C 
ATOM     74  O5  NAG d1175       2.172 -15.723  -5.654  0.00  0.00    -0.349 OA
ATOM     75  C4  NAG d1175       3.310 -15.280  -3.536  0.00  0.00     0.089 C 
ATOM     76  O4  NAG d1175       3.714 -15.977  -2.372  0.00  0.00    -0.390 OA
ATOM     77  O7  NAG d1175       5.434 -12.169  -7.239  0.00  0.00    -0.274 OA
ATOM     78  C1  NAG d1175       3.358 -15.587  -6.420  0.00  0.00     0.151 C 
ATOM     79  C8  NAG d1175       6.080 -13.847  -8.815  0.00  0.00    -0.003 C 
ATOM     80  C3  NAG d1175       4.526 -14.745  -4.315  0.00  0.00     0.093 C 
ATOM     81  H   NAG d1175       0.516 -15.630  -3.639  0.00  0.00     0.078 H 
ATOM     82  H   NAG d1175       1.324 -16.770  -2.605  0.00  0.00     0.078 H 
ATOM     83  H   NAG d1175       3.655 -13.579  -5.871  0.00  0.00     0.084 H 
ATOM     84  H   NAG d1175       0.301 -17.313  -5.206  0.00  0.00     0.209 HD
ATOM     85  H   NAG d1175       3.855 -15.182  -8.276  0.00  0.00     0.212 HD
ATOM     86  H   NAG d1175       6.228 -14.918  -6.335  0.00  0.00     0.163 HD
ATOM     87  H   NAG d1175       2.981 -17.149  -4.473  0.00  0.00     0.090 H 
ATOM     88  H   NAG d1175       2.738 -14.410  -3.289  0.00  0.00     0.091 H 
ATOM     89  H   NAG d1175       4.229 -16.759  -2.626  0.00  0.00     0.210 HD
ATOM     90  H   NAG d1175       3.901 -16.509  -6.414  0.00  0.00     0.132 H 
ATOM     91  H   NAG d1175       6.193 -14.911  -8.800  0.00  0.00     0.040 H 
ATOM     92  H   NAG d1175       7.018 -13.394  -9.060  0.00  0.00     0.040 H 
ATOM     93  H   NAG d1175       5.351 -13.576  -9.550  0.00  0.00     0.040 H 
ATOM     94  H   NAG d1175       5.255 -15.524  -4.236  0.00  0.00     0.091 H 
ATOM     95  C4  NAG d1181       3.406 -10.125  21.671  0.00  0.00     0.089 C 
ATOM     96  C3  NAG d1181       4.601  -9.175  21.805  0.00  0.00     0.086 C 
ATOM     97  C6  NAG d1181       2.415 -12.087  20.419  0.00  0.00     0.043 C 
ATOM     98  C5  NAG d1181       3.689 -11.293  20.715  0.00  0.00     0.089 C 
ATOM     99  C7  NAG d1181       6.536  -6.836  20.196  0.00  0.00     0.214 C 
ATOM    100  C8  NAG d1181       6.385  -6.524  18.731  0.00  0.00    -0.003 C 
ATOM    101  N2  NAG d1181       6.441  -8.116  20.554  0.00  0.00    -0.349 N 
ATOM    102  O3  NAG d1181       4.209  -7.977  22.460  0.00  0.00    -0.391 OA
ATOM    103  C1  NAG d1181       5.424 -10.120  19.610  0.00  0.00     0.154 C 
ATOM    104  O6  NAG d1181       2.747 -13.370  19.928  0.00  0.00    -0.398 OA
ATOM    105  O5  NAG d1181       4.217 -10.833  19.483  0.00  0.00    -0.349 OA
ATOM    106  O7  NAG d1181       6.734  -5.938  21.018  0.00  0.00    -0.274 OA
ATOM    107  O4  NAG d1181       3.069 -10.628  22.944  0.00  0.00    -0.390 OA
ATOM    108  C2  NAG d1181       5.192  -8.853  20.430  0.00  0.00     0.087 C 
ATOM    109  H   NAG d1181       2.593  -9.565  21.258  0.00  0.00     0.091 H 
ATOM    110  H   NAG d1181       5.350  -9.661  22.393  0.00  0.00     0.090 H 
ATOM    111  H   NAG d1181       1.835 -11.567  19.685  0.00  0.00     0.078 H 
ATOM    112  H   NAG d1181       1.849 -12.193  21.321  0.00  0.00     0.078 H 
ATOM    113  H   NAG d1181       4.403 -11.921  21.205  0.00  0.00     0.090 H 
ATOM    114  H   NAG d1181       6.221  -7.432  18.189  0.00  0.00     0.040 H 
ATOM    115  H   NAG d1181       7.276  -6.051  18.374  0.00  0.00     0.040 H 
ATOM    116  H   NAG d1181       5.551  -5.868  18.590  0.00  0.00     0.040 H 
ATOM    117  H   NAG d1181       7.236  -8.575  20.911  0.00  0.00     0.163 HD
ATOM    118  H   NAG d1181       3.529  -7.528  21.934  0.00  0.00     0.210 HD
ATOM    119  H   NAG d1181       6.128 -10.767  20.091  0.00  0.00     0.132 H 
ATOM    120  H   NAG d1181       3.260 -13.279  19.110  0.00  0.00     0.209 HD
ATOM    121  H   NAG d1181       3.817 -11.131  23.302  0.00  0.00     0.210 HD
ATOM    122  H   NAG d1181       4.477  -8.242  19.919  0.00  0.00     0.084 H 
ATOM    123  C7  NAG d1179       6.855 -12.243  11.099  0.00  0.00     0.214 C 
ATOM    124  C1  NAG d1179      10.290 -12.119  11.105  0.00  0.00     0.154 C 
ATOM    125  C2  NAG d1179       9.092 -12.335  12.020  0.00  0.00     0.087 C 
ATOM    126  O5  NAG d1179      11.426 -12.765  11.640  0.00  0.00    -0.349 OA
ATOM    127  O7  NAG d1179       6.487 -13.320  11.562  0.00  0.00    -0.274 OA
ATOM    128  O4  NAG d1179      11.014 -12.224  15.229  0.00  0.00    -0.390 OA
ATOM    129  N2  NAG d1179       7.936 -11.598  11.533  0.00  0.00    -0.349 N 
ATOM    130  C8  NAG d1179       6.069 -11.606   9.994  0.00  0.00    -0.003 C 
ATOM    131  O3  NAG d1179       8.314 -12.563  14.264  0.00  0.00    -0.348 OA
ATOM    132  C4  NAG d1179      10.684 -12.656  13.925  0.00  0.00     0.089 C 
ATOM    133  C5  NAG d1179      11.788 -12.297  12.927  0.00  0.00     0.089 C 
ATOM    134  O6  NAG d1179      13.055 -14.303  13.427  0.00  0.00    -0.398 OA
ATOM    135  C3  NAG d1179       9.367 -12.023  13.489  0.00  0.00     0.093 C 
ATOM    136  C6  NAG d1179      13.141 -12.894  13.314  0.00  0.00     0.043 C 
ATOM    137  H   NAG d1179      10.568 -11.091  11.002  0.00  0.00     0.132 H 
ATOM    138  H   NAG d1179       8.879 -13.383  11.986  0.00  0.00     0.084 H 
ATOM    139  H   NAG d1179      10.299 -12.463  15.839  0.00  0.00     0.210 HD
ATOM    140  H   NAG d1179       7.953 -10.613  11.525  0.00  0.00     0.163 HD
ATOM    141  H   NAG d1179       6.530 -10.682   9.715  0.00  0.00     0.040 H 
ATOM    142  H   NAG d1179       5.070 -11.420  10.329  0.00  0.00     0.040 H 
ATOM    143  H   NAG d1179       6.046 -12.261   9.149  0.00  0.00     0.040 H 
ATOM    144  H   NAG d1179      10.583 -13.721  13.941  0.00  0.00     0.091 H 
ATOM    145  H   NAG d1179      11.891 -11.232  12.931  0.00  0.00     0.090 H 
ATOM    146  H   NAG d1179      13.922 -14.662  13.672  0.00  0.00     0.209 HD
ATOM    147  H   NAG d1179       9.432 -10.964  13.625  0.00  0.00     0.091 H 
ATOM    148  H   NAG d1179      13.450 -12.485  14.254  0.00  0.00     0.078 H 
ATOM    149  H   NAG d1179      13.853 -12.653  12.552  0.00  0.00     0.078 H 
ATOM    150  C6  BDP d1180       8.847  -9.826  18.080  0.00  0.00     0.206 C 
ATOM    151  O3  BDP d1180       4.567 -12.088  17.096  0.00  0.00    -0.390 OA
ATOM    152  C1  BDP d1180       7.668 -11.574  15.078  0.00  0.00     0.160 C 
ATOM    153  O2  BDP d1180       5.473 -11.859  14.218  0.00  0.00    -0.388 OA
ATOM    154  C3  BDP d1180       5.562 -11.262  16.527  0.00  0.00     0.092 C 
ATOM    155  O4  BDP d1180       5.941  -9.725  18.329  0.00  0.00    -0.348 OA
ATOM    156  O5  BDP d1180       8.397 -11.363  16.267  0.00  0.00    -0.340 OA
ATOM    157  C5  BDP d1180       7.844 -10.312  17.032  0.00  0.00     0.152 C 
ATOM    158  O6B BDP d1180       9.379 -10.677  18.834  0.00  0.00    -0.646 OA
ATOM    159  O6A BDP d1180       9.094  -8.597  18.117  0.00  0.00    -0.646 OA
ATOM    160  C2  BDP d1180       6.243 -12.034  15.389  0.00  0.00     0.110 C 
ATOM    161  C4  BDP d1180       6.524 -10.800  17.626  0.00  0.00     0.103 C 
ATOM    162  H   BDP d1180       3.956 -12.383  16.403  0.00  0.00     0.210 HD
ATOM    163  H   BDP d1180       7.629 -10.645  14.549  0.00  0.00     0.133 H 
ATOM    164  H   BDP d1180       5.887 -12.340  13.484  0.00  0.00     0.210 HD
ATOM    165  H   BDP d1180       5.146 -10.374  16.099  0.00  0.00     0.091 H 
ATOM    166  H   BDP d1180       7.634  -9.459  16.423  0.00  0.00     0.104 H 
ATOM    167  H   BDP d1180       6.307 -13.052  15.708  0.00  0.00     0.094 H 
ATOM    168  H   BDP d1180       6.712 -11.631  18.273  0.00  0.00     0.092 H 
ENDROOT
TORSDOF 43
ENDMDL
MODEL 8
REMARK VINA RESULT:      -8.5      5.460      7.573
REMARK  0 active torsions:
REMARK  status: ('A' for Active; 'I' for Inactive)
REMARK       I    between atoms: C1_1  and  O3_15 
REMARK       I    between atoms: C1_2  and  O3_93 
REMARK       I    between atoms: C6_3  and  C5_89 
REMARK       I    between atoms: C6_3  and  O6_76 
REMARK       I    between atoms: O3_4  and  C3_22 
REMARK       I    between atoms: C6_5  and  C5_48 
REMARK       I    between atoms: C6_5  and  O6_31 
REMARK       I    between atoms: C4_6  and  O4_74 
REMARK       I    between atoms: C7_7  and  C8_62 
REMARK       I    between atoms: C7_7  and  N2_60 
REMARK       I    between atoms: C6_8  and  C5_52 
REMARK       I    between atoms: C3_9  and  O3_38 
REMARK       I    between atoms: C1_10  and  O4_75 
REMARK       I    between atoms: C6_12  and  C5_51 
REMARK       I    between atoms: O3_13  and  C3_42 
REMARK       I    between atoms: O4_14  and  C4_84 
REMARK       I    between atoms: O3_15  and  C3_86 
REMARK       I    between atoms: C6_16  and  C5_23 
REMARK       I    between atoms: C6_16  and  O6_58 
REMARK       I    between atoms: C1_17  and  O3_63 
REMARK       I    between atoms: C2_18  and  N2_60 
REMARK       I    between atoms: C2_19  and  N2_53 
REMARK       I    between atoms: O2_20  and  C2_66 
REMARK       I    between atoms: C3_25  and  O3_93 
REMARK       I    between atoms: C7_26  and  C8_32 
REMARK       I    between atoms: C7_26  and  N2_37 
REMARK       I    between atoms: C2_28  and  N2_44 
REMARK       I    between atoms: C7_29  and  C8_54 
REMARK       I    between atoms: C7_29  and  N2_53 
REMARK       I    between atoms: O1_33  and  C1_80 
REMARK       I    between atoms: O4_34  and  C4_40 
REMARK       I    between atoms: O4_34  and  C1_92 
REMARK       I    between atoms: C7_36  and  C8_81 
REMARK       I    between atoms: C7_36  and  N2_44 
REMARK       I    between atoms: N2_37  and  C2_83 
REMARK       I    between atoms: O3_39  and  C3_61 
REMARK       I    between atoms: C1_41  and  O4_46 
REMARK       I    between atoms: O2_43  and  C2_73 
REMARK       I    between atoms: C6_45  and  C5_87 
REMARK       I    between atoms: O4_46  and  C4_67 
REMARK       I    between atoms: C4_50  and  O4_65 
REMARK       I    between atoms: C2_55  and  O2_82 
REMARK       I    between atoms: O4_57  and  C4_71 
REMARK       I    between atoms: O3_63  and  C3_85 
REMARK       I    between atoms: O4_75  and  C4_91 
REMARK       I    between atoms: C5_77  and  C6_90 
REMARK       I    between atoms: O6_79  and  C6_90 
ROOT
ATOM      1  C1  BDP d1176      14.679 -14.977  13.598  0.00  0.00     0.160 C 
ATOM      2  O3  BDP d1176      16.780 -13.935  10.653  0.00  0.00    -0.390 OA
ATOM      3  O5  BDP d1176      13.616 -15.241  12.727  0.00  0.00    -0.340 OA
ATOM      4  O6A BDP d1176      11.914 -15.590  10.647  0.00  0.00    -0.646 OA
ATOM      5  C3  BDP d1176      15.730 -13.755  11.581  0.00  0.00     0.092 C 
ATOM      6  O4  BDP d1176      14.113 -12.776  10.123  0.00  0.00    -0.348 OA
ATOM      7  C4  BDP d1176      14.398 -13.942  10.871  0.00  0.00     0.103 C 
ATOM      8  C6  BDP d1176      11.971 -14.497  11.244  0.00  0.00     0.206 C 
ATOM      9  C2  BDP d1176      15.945 -14.660  12.792  0.00  0.00     0.110 C 
ATOM     10  O6B BDP d1176      11.041 -13.670  11.351  0.00  0.00    -0.646 OA
ATOM     11  O2  BDP d1176      16.850 -13.979  13.627  0.00  0.00    -0.388 OA
ATOM     12  C5  BDP d1176      13.294 -14.162  11.898  0.00  0.00     0.152 C 
ATOM     13  H   BDP d1176      14.461 -14.129  14.213  0.00  0.00     0.133 H 
ATOM     14  H   BDP d1176      17.632 -13.817  11.101  0.00  0.00     0.210 HD
ATOM     15  H   BDP d1176      15.721 -12.758  11.972  0.00  0.00     0.091 H 
ATOM     16  H   BDP d1176      14.450 -14.793  10.224  0.00  0.00     0.092 H 
ATOM     17  H   BDP d1176      16.296 -15.607  12.438  0.00  0.00     0.094 H 
ATOM     18  H   BDP d1176      16.461 -13.135  13.905  0.00  0.00     0.210 HD
ATOM     19  H   BDP d1176      13.208 -13.248  12.449  0.00  0.00     0.104 H 
ATOM     20  C1  BDP d1178      12.262 -10.942   4.940  0.00  0.00     0.160 C 
ATOM     21  C6  BDP d1178      11.917 -12.557   1.598  0.00  0.00     0.206 C 
ATOM     22  O6B BDP d1178      11.085 -13.362   1.115  0.00  0.00    -0.646 OA
ATOM     23  O6A BDP d1178      13.026 -12.286   1.075  0.00  0.00    -0.646 OA
ATOM     24  O3  BDP d1178       9.985  -8.456   3.349  0.00  0.00    -0.390 OA
ATOM     25  O2  BDP d1178      11.457  -8.805   5.710  0.00  0.00    -0.388 OA
ATOM     26  C5  BDP d1178      11.505 -11.862   2.897  0.00  0.00     0.152 C 
ATOM     27  C3  BDP d1178      10.475  -9.715   3.753  0.00  0.00     0.092 C 
ATOM     28  C2  BDP d1178      11.740  -9.561   4.560  0.00  0.00     0.110 C 
ATOM     29  O4  BDP d1178       9.493 -10.964   2.049  0.00  0.00    -0.348 OA
ATOM     30  O5  BDP d1178      12.612 -11.638   3.763  0.00  0.00    -0.340 OA
ATOM     31  C4  BDP d1178      10.748 -10.587   2.540  0.00  0.00     0.103 C 
ATOM     32  H   BDP d1178      11.529 -11.542   5.436  0.00  0.00     0.133 H 
ATOM     33  H   BDP d1178       9.815  -7.909   4.132  0.00  0.00     0.210 HD
ATOM     34  H   BDP d1178      12.265  -8.701   6.236  0.00  0.00     0.210 HD
ATOM     35  H   BDP d1178      10.854 -12.500   3.458  0.00  0.00     0.104 H 
ATOM     36  H   BDP d1178       9.732 -10.181   4.364  0.00  0.00     0.091 H 
ATOM     37  H   BDP d1178      12.490  -9.056   3.988  0.00  0.00     0.094 H 
ATOM     38  H   BDP d1178      11.344 -10.042   1.839  0.00  0.00     0.092 H 
ATOM     39  C6  NAG d1177      17.266 -13.622   6.660  0.00  0.00     0.043 C 
ATOM     40  O4  NAG d1177      15.330 -12.393   4.746  0.00  0.00    -0.390 OA
ATOM     41  C2  NAG d1177      13.578 -11.805   7.987  0.00  0.00     0.087 C 
ATOM     42  C3  NAG d1177      13.784 -11.930   6.484  0.00  0.00     0.093 C 
ATOM     43  C7  NAG d1177      11.539 -10.834   8.972  0.00  0.00     0.214 C 
ATOM     44  N2  NAG d1177      12.147 -11.773   8.251  0.00  0.00    -0.349 N 
ATOM     45  C8  NAG d1177      10.156 -11.188   9.430  0.00  0.00    -0.003 C 
ATOM     46  O7  NAG d1177      12.030  -9.736   9.250  0.00  0.00    -0.274 OA
ATOM     47  O6  NAG d1177      18.062 -13.174   7.742  0.00  0.00    -0.398 OA
ATOM     48  C4  NAG d1177      15.247 -12.164   6.139  0.00  0.00     0.089 C 
ATOM     49  O5  NAG d1177      15.609 -13.115   8.320  0.00  0.00    -0.349 OA
ATOM     50  C5  NAG d1177      15.789 -13.349   6.939  0.00  0.00     0.089 C 
ATOM     51  C1  NAG d1177      14.252 -12.974   8.708  0.00  0.00     0.154 C 
ATOM     52  O3  NAG d1177      13.363 -10.747   5.844  0.00  0.00    -0.348 OA
ATOM     53  H   NAG d1177      17.559 -13.106   5.770  0.00  0.00     0.078 H 
ATOM     54  H   NAG d1177      17.408 -14.676   6.537  0.00  0.00     0.078 H 
ATOM     55  H   NAG d1177      14.979 -11.623   4.271  0.00  0.00     0.210 HD
ATOM     56  H   NAG d1177      14.024 -10.904   8.353  0.00  0.00     0.084 H 
ATOM     57  H   NAG d1177      13.208 -12.767   6.149  0.00  0.00     0.091 H 
ATOM     58  H   NAG d1177      11.593 -12.493   7.872  0.00  0.00     0.163 HD
ATOM     59  H   NAG d1177       9.910 -12.173   9.093  0.00  0.00     0.040 H 
ATOM     60  H   NAG d1177       9.456 -10.488   9.025  0.00  0.00     0.040 H 
ATOM     61  H   NAG d1177      10.115 -11.156  10.499  0.00  0.00     0.040 H 
ATOM     62  H   NAG d1177      17.939 -12.219   7.861  0.00  0.00     0.209 HD
ATOM     63  H   NAG d1177      15.844 -11.314   6.395  0.00  0.00     0.091 H 
ATOM     64  H   NAG d1177      15.239 -14.213   6.630  0.00  0.00     0.090 H 
ATOM     65  H   NAG d1177      13.772 -13.890   8.433  0.00  0.00     0.132 H 
ATOM     66  C6  NAG d1175      11.118 -18.266  16.771  0.00  0.00     0.043 C 
ATOM     67  O3  NAG d1175      14.876 -16.140  14.433  0.00  0.00    -0.348 OA
ATOM     68  C2  NAG d1175      15.083 -16.625  16.769  0.00  0.00     0.087 C 
ATOM     69  O6  NAG d1175      10.498 -18.439  18.025  0.00  0.00    -0.398 OA
ATOM     70  O1  NAG d1175      15.194 -17.505  19.025  0.00  0.00    -0.369 OA
ATOM     71  C7  NAG d1175      17.413 -16.027  17.201  0.00  0.00     0.214 C 
ATOM     72  N2  NAG d1175      16.145 -15.655  17.014  0.00  0.00    -0.349 N 
ATOM     73  C5  NAG d1175      12.277 -17.293  16.946  0.00  0.00     0.089 C 
ATOM     74  O5  NAG d1175      13.285 -17.879  17.756  0.00  0.00    -0.349 OA
ATOM     75  C4  NAG d1175      12.819 -16.871  15.578  0.00  0.00     0.089 C 
ATOM     76  O4  NAG d1175      11.817 -16.092  14.952  0.00  0.00    -0.390 OA
ATOM     77  O7  NAG d1175      18.037 -16.721  16.388  0.00  0.00    -0.274 OA
ATOM     78  C1  NAG d1175      14.320 -16.957  18.059  0.00  0.00     0.151 C 
ATOM     79  C8  NAG d1175      18.062 -15.538  18.467  0.00  0.00    -0.003 C 
ATOM     80  C3  NAG d1175      14.151 -16.102  15.662  0.00  0.00     0.093 C 
ATOM     81  H   NAG d1175      11.484 -19.206  16.414  0.00  0.00     0.078 H 
ATOM     82  H   NAG d1175      10.416 -17.881  16.060  0.00  0.00     0.078 H 
ATOM     83  H   NAG d1175      15.518 -17.543  16.433  0.00  0.00     0.084 H 
ATOM     84  H   NAG d1175      11.144 -18.787  18.659  0.00  0.00     0.209 HD
ATOM     85  H   NAG d1175      15.897 -16.868  19.225  0.00  0.00     0.212 HD
ATOM     86  H   NAG d1175      15.920 -14.698  17.043  0.00  0.00     0.163 HD
ATOM     87  H   NAG d1175      11.932 -16.411  17.444  0.00  0.00     0.090 H 
ATOM     88  H   NAG d1175      13.044 -17.747  15.006  0.00  0.00     0.091 H 
ATOM     89  H   NAG d1175      11.634 -15.306  15.492  0.00  0.00     0.210 HD
ATOM     90  H   NAG d1175      13.898 -16.060  18.463  0.00  0.00     0.132 H 
ATOM     91  H   NAG d1175      17.358 -14.960  19.028  0.00  0.00     0.040 H 
ATOM     92  H   NAG d1175      18.908 -14.931  18.222  0.00  0.00     0.040 H 
ATOM     93  H   NAG d1175      18.381 -16.376  19.051  0.00  0.00     0.040 H 
ATOM     94  H   NAG d1175      13.863 -15.097  15.889  0.00  0.00     0.091 H 
ATOM     95  C4  NAG d1181       1.638 -16.772  -7.595  0.00  0.00     0.089 C 
ATOM     96  C3  NAG d1181       2.713 -16.125  -8.473  0.00  0.00     0.086 C 
ATOM     97  C6  NAG d1181       0.599 -16.889  -5.290  0.00  0.00     0.043 C 
ATOM     98  C5  NAG d1181       1.503 -16.085  -6.228  0.00  0.00     0.089 C 
ATOM     99  C7  NAG d1181       6.086 -15.603  -8.875  0.00  0.00     0.214 C 
ATOM    100  C8  NAG d1181       7.100 -16.012  -7.842  0.00  0.00    -0.003 C 
ATOM    101  N2  NAG d1181       4.944 -15.079  -8.427  0.00  0.00    -0.349 N 
ATOM    102  O3  NAG d1181       3.001 -16.950  -9.592  0.00  0.00    -0.391 OA
ATOM    103  C1  NAG d1181       3.684 -15.171  -6.342  0.00  0.00     0.154 C 
ATOM    104  O6  NAG d1181       0.131 -16.063  -4.243  0.00  0.00    -0.398 OA
ATOM    105  O5  NAG d1181       2.765 -15.936  -5.601  0.00  0.00    -0.349 OA
ATOM    106  O7  NAG d1181       6.310 -15.753 -10.079  0.00  0.00    -0.274 OA
ATOM    107  O4  NAG d1181       0.400 -16.729  -8.269  0.00  0.00    -0.390 OA
ATOM    108  C2  NAG d1181       3.989 -15.870  -7.666  0.00  0.00     0.087 C 
ATOM    109  H   NAG d1181       1.934 -17.784  -7.414  0.00  0.00     0.091 H 
ATOM    110  H   NAG d1181       2.338 -15.186  -8.822  0.00  0.00     0.090 H 
ATOM    111  H   NAG d1181       1.153 -17.705  -4.876  0.00  0.00     0.078 H 
ATOM    112  H   NAG d1181      -0.238 -17.261  -5.843  0.00  0.00     0.078 H 
ATOM    113  H   NAG d1181       1.073 -15.123  -6.412  0.00  0.00     0.090 H 
ATOM    114  H   NAG d1181       6.719 -15.801  -6.865  0.00  0.00     0.040 H 
ATOM    115  H   NAG d1181       8.007 -15.465  -7.998  0.00  0.00     0.040 H 
ATOM    116  H   NAG d1181       7.296 -17.060  -7.930  0.00  0.00     0.040 H 
ATOM    117  H   NAG d1181       4.743 -14.134  -8.616  0.00  0.00     0.163 HD
ATOM    118  H   NAG d1181       3.342 -17.804  -9.285  0.00  0.00     0.210 HD
ATOM    119  H   NAG d1181       3.241 -14.211  -6.507  0.00  0.00     0.132 H 
ATOM    120  H   NAG d1181       0.886 -15.723  -3.739  0.00  0.00     0.209 HD
ATOM    121  H   NAG d1181       0.149 -15.805  -8.423  0.00  0.00     0.210 HD
ATOM    122  H   NAG d1181       4.420 -16.827  -7.455  0.00  0.00     0.084 H 
ATOM    123  C7  NAG d1179       7.798 -13.732   1.404  0.00  0.00     0.214 C 
ATOM    124  C1  NAG d1179       9.297 -10.733   0.644  0.00  0.00     0.154 C 
ATOM    125  C2  NAG d1179       8.115 -11.618   0.269  0.00  0.00     0.087 C 
ATOM    126  O5  NAG d1179       9.001  -9.385   0.350  0.00  0.00    -0.349 OA
ATOM    127  O7  NAG d1179       6.623 -13.533   1.709  0.00  0.00    -0.274 OA
ATOM    128  O4  NAG d1179       7.100  -9.663  -2.756  0.00  0.00    -0.390 OA
ATOM    129  N2  NAG d1179       8.437 -13.020   0.477  0.00  0.00    -0.349 N 
ATOM    130  C8  NAG d1179       8.566 -14.818   2.092  0.00  0.00    -0.003 C 
ATOM    131  O3  NAG d1179       6.316 -11.999  -1.252  0.00  0.00    -0.348 OA
ATOM    132  C4  NAG d1179       7.429  -9.882  -1.400  0.00  0.00     0.089 C 
ATOM    133  C5  NAG d1179       8.720  -9.154  -1.019  0.00  0.00     0.089 C 
ATOM    134  O6  NAG d1179       7.553  -7.081  -0.550  0.00  0.00    -0.398 OA
ATOM    135  C3  NAG d1179       7.583 -11.377  -1.142  0.00  0.00     0.093 C 
ATOM    136  C6  NAG d1179       8.636  -7.647  -1.266  0.00  0.00     0.043 C 
ATOM    137  H   NAG d1179      10.188 -10.958   0.096  0.00  0.00     0.132 H 
ATOM    138  H   NAG d1179       7.317 -11.339   0.926  0.00  0.00     0.084 H 
ATOM    139  H   NAG d1179       6.280 -10.135  -2.970  0.00  0.00     0.210 HD
ATOM    140  H   NAG d1179       9.134 -13.448  -0.071  0.00  0.00     0.163 HD
ATOM    141  H   NAG d1179       9.563 -14.849   1.706  0.00  0.00     0.040 H 
ATOM    142  H   NAG d1179       8.086 -15.759   1.918  0.00  0.00     0.040 H 
ATOM    143  H   NAG d1179       8.596 -14.623   3.143  0.00  0.00     0.040 H 
ATOM    144  H   NAG d1179       6.636  -9.493  -0.797  0.00  0.00     0.091 H 
ATOM    145  H   NAG d1179       9.502  -9.541  -1.640  0.00  0.00     0.090 H 
ATOM    146  H   NAG d1179       7.517  -6.127  -0.719  0.00  0.00     0.209 HD
ATOM    147  H   NAG d1179       8.267 -11.782  -1.857  0.00  0.00     0.091 H 
ATOM    148  H   NAG d1179       8.495  -7.470  -2.312  0.00  0.00     0.078 H 
ATOM    149  H   NAG d1179       9.545  -7.194  -0.930  0.00  0.00     0.078 H 
ATOM    150  C6  BDP d1180       6.200 -12.402  -5.960  0.00  0.00     0.206 C 
ATOM    151  O3  BDP d1180       3.438 -15.281  -3.048  0.00  0.00    -0.390 OA
ATOM    152  C1  BDP d1180       6.261 -12.942  -2.332  0.00  0.00     0.160 C 
ATOM    153  O2  BDP d1180       5.662 -14.845  -1.043  0.00  0.00    -0.388 OA
ATOM    154  C3  BDP d1180       4.758 -14.821  -3.251  0.00  0.00     0.092 C 
ATOM    155  O4  BDP d1180       4.926 -15.007  -5.637  0.00  0.00    -0.348 OA
ATOM    156  O5  BDP d1180       6.010 -12.279  -3.551  0.00  0.00    -0.340 OA
ATOM    157  C5  BDP d1180       6.063 -13.172  -4.645  0.00  0.00     0.152 C 
ATOM    158  O6B BDP d1180       5.384 -11.477  -6.195  0.00  0.00    -0.646 OA
ATOM    159  O6A BDP d1180       7.136 -12.731  -6.727  0.00  0.00    -0.646 OA
ATOM    160  C2  BDP d1180       5.170 -13.974  -2.040  0.00  0.00     0.110 C 
ATOM    161  C4  BDP d1180       4.831 -14.071  -4.585  0.00  0.00     0.103 C 
ATOM    162  H   BDP d1180       3.387 -15.756  -2.203  0.00  0.00     0.210 HD
ATOM    163  H   BDP d1180       7.202 -13.443  -2.419  0.00  0.00     0.133 H 
ATOM    164  H   BDP d1180       5.929 -14.329  -0.266  0.00  0.00     0.210 HD
ATOM    165  H   BDP d1180       5.456 -15.628  -3.322  0.00  0.00     0.091 H 
ATOM    166  H   BDP d1180       6.929 -13.798  -4.592  0.00  0.00     0.104 H 
ATOM    167  H   BDP d1180       4.300 -13.431  -1.738  0.00  0.00     0.094 H 
ATOM    168  H   BDP d1180       3.950 -13.471  -4.678  0.00  0.00     0.092 H 
ENDROOT
TORSDOF 43
ENDMDL
MODEL 9
REMARK VINA RESULT:      -8.3      3.934     19.358
REMARK  0 active torsions:
REMARK  status: ('A' for Active; 'I' for Inactive)
REMARK       I    between atoms: C1_1  and  O3_15 
REMARK       I    between atoms: C1_2  and  O3_93 
REMARK       I    between atoms: C6_3  and  C5_89 
REMARK       I    between atoms: C6_3  and  O6_76 
REMARK       I    between atoms: O3_4  and  C3_22 
REMARK       I    between atoms: C6_5  and  C5_48 
REMARK       I    between atoms: C6_5  and  O6_31 
REMARK       I    between atoms: C4_6  and  O4_74 
REMARK       I    between atoms: C7_7  and  C8_62 
REMARK       I    between atoms: C7_7  and  N2_60 
REMARK       I    between atoms: C6_8  and  C5_52 
REMARK       I    between atoms: C3_9  and  O3_38 
REMARK       I    between atoms: C1_10  and  O4_75 
REMARK       I    between atoms: C6_12  and  C5_51 
REMARK       I    between atoms: O3_13  and  C3_42 
REMARK       I    between atoms: O4_14  and  C4_84 
REMARK       I    between atoms: O3_15  and  C3_86 
REMARK       I    between atoms: C6_16  and  C5_23 
REMARK       I    between atoms: C6_16  and  O6_58 
REMARK       I    between atoms: C1_17  and  O3_63 
REMARK       I    between atoms: C2_18  and  N2_60 
REMARK       I    between atoms: C2_19  and  N2_53 
REMARK       I    between atoms: O2_20  and  C2_66 
REMARK       I    between atoms: C3_25  and  O3_93 
REMARK       I    between atoms: C7_26  and  C8_32 
REMARK       I    between atoms: C7_26  and  N2_37 
REMARK       I    between atoms: C2_28  and  N2_44 
REMARK       I    between atoms: C7_29  and  C8_54 
REMARK       I    between atoms: C7_29  and  N2_53 
REMARK       I    between atoms: O1_33  and  C1_80 
REMARK       I    between atoms: O4_34  and  C4_40 
REMARK       I    between atoms: O4_34  and  C1_92 
REMARK       I    between atoms: C7_36  and  C8_81 
REMARK       I    between atoms: C7_36  and  N2_44 
REMARK       I    between atoms: N2_37  and  C2_83 
REMARK       I    between atoms: O3_39  and  C3_61 
REMARK       I    between atoms: C1_41  and  O4_46 
REMARK       I    between atoms: O2_43  and  C2_73 
REMARK       I    between atoms: C6_45  and  C5_87 
REMARK       I    between atoms: O4_46  and  C4_67 
REMARK       I    between atoms: C4_50  and  O4_65 
REMARK       I    between atoms: C2_55  and  O2_82 
REMARK       I    between atoms: O4_57  and  C4_71 
REMARK       I    between atoms: O3_63  and  C3_85 
REMARK       I    between atoms: O4_75  and  C4_91 
REMARK       I    between atoms: C5_77  and  C6_90 
REMARK       I    between atoms: O6_79  and  C6_90 
ROOT
ATOM      1  C1  BDP d1176      14.085 -12.406  -4.943  0.00  0.00     0.160 C 
ATOM      2  O3  BDP d1176      15.391  -9.456  -3.002  0.00  0.00    -0.390 OA
ATOM      3  O5  BDP d1176      13.254 -12.729  -3.864  0.00  0.00    -0.340 OA
ATOM      4  O6A BDP d1176      11.872 -12.905  -1.539  0.00  0.00    -0.646 OA
ATOM      5  C3  BDP d1176      15.270 -10.838  -3.268  0.00  0.00     0.092 C 
ATOM      6  O4  BDP d1176      15.214 -11.642  -1.020  0.00  0.00    -0.348 OA
ATOM      7  C4  BDP d1176      14.422 -11.484  -2.182  0.00  0.00     0.103 C 
ATOM      8  C6  BDP d1176      12.972 -13.477  -1.669  0.00  0.00     0.206 C 
ATOM      9  C2  BDP d1176      14.761 -11.052  -4.692  0.00  0.00     0.110 C 
ATOM     10  O6B BDP d1176      13.337 -14.510  -1.069  0.00  0.00    -0.646 OA
ATOM     11  O2  BDP d1176      15.891 -10.952  -5.524  0.00  0.00    -0.388 OA
ATOM     12  C5  BDP d1176      13.939 -12.850  -2.651  0.00  0.00     0.152 C 
ATOM     13  H   BDP d1176      14.855 -13.140  -5.059  0.00  0.00     0.133 H 
ATOM     14  H   BDP d1176      15.931  -9.040  -3.692  0.00  0.00     0.210 HD
ATOM     15  H   BDP d1176      16.221 -11.328  -3.232  0.00  0.00     0.091 H 
ATOM     16  H   BDP d1176      13.575 -10.866  -1.970  0.00  0.00     0.092 H 
ATOM     17  H   BDP d1176      14.004 -10.320  -4.884  0.00  0.00     0.094 H 
ATOM     18  H   BDP d1176      16.527 -11.646  -5.289  0.00  0.00     0.210 HD
ATOM     19  H   BDP d1176      14.811 -13.463  -2.746  0.00  0.00     0.104 H 
ATOM     20  C1  BDP d1178      15.182 -10.911   4.734  0.00  0.00     0.160 C 
ATOM     21  C6  BDP d1178      13.025  -8.982   7.084  0.00  0.00     0.206 C 
ATOM     22  O6B BDP d1178      11.875  -9.174   7.548  0.00  0.00    -0.646 OA
ATOM     23  O6A BDP d1178      13.643  -7.891   7.149  0.00  0.00    -0.646 OA
ATOM     24  O3  BDP d1178      16.169 -12.595   7.911  0.00  0.00    -0.390 OA
ATOM     25  O2  BDP d1178      16.881 -12.557   5.199  0.00  0.00    -0.388 OA
ATOM     26  C5  BDP d1178      13.694 -10.190   6.425  0.00  0.00     0.152 C 
ATOM     27  C3  BDP d1178      15.323 -12.064   6.916  0.00  0.00     0.092 C 
ATOM     28  C2  BDP d1178      16.129 -11.514   5.766  0.00  0.00     0.110 C 
ATOM     29  O4  BDP d1178      13.504 -11.610   8.301  0.00  0.00    -0.348 OA
ATOM     30  O5  BDP d1178      14.507  -9.819   5.318  0.00  0.00    -0.340 OA
ATOM     31  C4  BDP d1178      14.451 -10.965   7.499  0.00  0.00     0.103 C 
ATOM     32  H   BDP d1178      14.424 -11.596   4.415  0.00  0.00     0.133 H 
ATOM     33  H   BDP d1178      16.719 -13.295   7.527  0.00  0.00     0.210 HD
ATOM     34  H   BDP d1178      17.403 -12.214   4.458  0.00  0.00     0.210 HD
ATOM     35  H   BDP d1178      12.949 -10.832   6.003  0.00  0.00     0.104 H 
ATOM     36  H   BDP d1178      14.699 -12.854   6.553  0.00  0.00     0.091 H 
ATOM     37  H   BDP d1178      16.796 -10.751   6.108  0.00  0.00     0.094 H 
ATOM     38  H   BDP d1178      15.067 -10.268   8.028  0.00  0.00     0.092 H 
ATOM     39  C6  NAG d1177      15.189  -7.051   0.231  0.00  0.00     0.043 C 
ATOM     40  O4  NAG d1177      15.144  -7.941   3.082  0.00  0.00    -0.390 OA
ATOM     41  C2  NAG d1177      15.488 -11.218   1.332  0.00  0.00     0.087 C 
ATOM     42  C3  NAG d1177      15.205 -10.226   2.453  0.00  0.00     0.093 C 
ATOM     43  C7  NAG d1177      15.666 -13.645   1.720  0.00  0.00     0.214 C 
ATOM     44  N2  NAG d1177      14.961 -12.516   1.727  0.00  0.00    -0.349 N 
ATOM     45  C8  NAG d1177      14.848 -14.899   1.794  0.00  0.00    -0.003 C 
ATOM     46  O7  NAG d1177      16.899 -13.701   1.675  0.00  0.00    -0.274 OA
ATOM     47  O6  NAG d1177      16.108  -7.105  -0.845  0.00  0.00    -0.398 OA
ATOM     48  C4  NAG d1177      15.552  -8.804   2.039  0.00  0.00     0.089 C 
ATOM     49  O5  NAG d1177      15.230  -9.397  -0.271  0.00  0.00    -0.349 OA
ATOM     50  C5  NAG d1177      14.860  -8.461   0.720  0.00  0.00     0.089 C 
ATOM     51  C1  NAG d1177      14.853 -10.732   0.028  0.00  0.00     0.154 C 
ATOM     52  O3  NAG d1177      15.973 -10.556   3.587  0.00  0.00    -0.348 OA
ATOM     53  H   NAG d1177      15.620  -6.491   1.034  0.00  0.00     0.078 H 
ATOM     54  H   NAG d1177      14.289  -6.580  -0.104  0.00  0.00     0.078 H 
ATOM     55  H   NAG d1177      15.601  -8.187   3.902  0.00  0.00     0.210 HD
ATOM     56  H   NAG d1177      16.541 -11.302   1.163  0.00  0.00     0.084 H 
ATOM     57  H   NAG d1177      14.160 -10.281   2.674  0.00  0.00     0.091 H 
ATOM     58  H   NAG d1177      14.022 -12.562   2.017  0.00  0.00     0.163 HD
ATOM     59  H   NAG d1177      13.809 -14.647   1.825  0.00  0.00     0.040 H 
ATOM     60  H   NAG d1177      15.109 -15.443   2.678  0.00  0.00     0.040 H 
ATOM     61  H   NAG d1177      15.043 -15.504   0.933  0.00  0.00     0.040 H 
ATOM     62  H   NAG d1177      16.928  -7.531  -0.549  0.00  0.00     0.209 HD
ATOM     63  H   NAG d1177      16.604  -8.696   1.879  0.00  0.00     0.091 H 
ATOM     64  H   NAG d1177      13.806  -8.500   0.899  0.00  0.00     0.090 H 
ATOM     65  H   NAG d1177      13.788 -10.718   0.131  0.00  0.00     0.132 H 
ATOM     66  C6  NAG d1175      10.202 -16.026  -7.264  0.00  0.00     0.043 C 
ATOM     67  O3  NAG d1175      13.274 -12.364  -6.138  0.00  0.00    -0.348 OA
ATOM     68  C2  NAG d1175      13.329 -13.293  -8.346  0.00  0.00     0.087 C 
ATOM     69  O6  NAG d1175      10.003 -17.135  -8.109  0.00  0.00    -0.398 OA
ATOM     70  O1  NAG d1175      12.978 -14.146 -10.587  0.00  0.00    -0.369 OA
ATOM     71  C7  NAG d1175      14.914 -11.812  -9.473  0.00  0.00     0.214 C 
ATOM     72  N2  NAG d1175      14.682 -12.837  -8.650  0.00  0.00    -0.349 N 
ATOM     73  C5  NAG d1175      11.587 -15.456  -7.550  0.00  0.00     0.089 C 
ATOM     74  O5  NAG d1175      11.626 -14.909  -8.860  0.00  0.00    -0.349 OA
ATOM     75  C4  NAG d1175      11.956 -14.417  -6.488  0.00  0.00     0.089 C 
ATOM     76  O4  NAG d1175      12.122 -15.110  -5.264  0.00  0.00    -0.390 OA
ATOM     77  O7  NAG d1175      14.419 -10.691  -9.307  0.00  0.00    -0.274 OA
ATOM     78  C1  NAG d1175      12.934 -14.493  -9.217  0.00  0.00     0.151 C 
ATOM     79  C8  NAG d1175      15.839 -12.093 -10.625  0.00  0.00    -0.003 C 
ATOM     80  C3  NAG d1175      13.215 -13.604  -6.843  0.00  0.00     0.093 C 
ATOM     81  H   NAG d1175       9.457 -15.283  -7.459  0.00  0.00     0.078 H 
ATOM     82  H   NAG d1175      10.129 -16.323  -6.239  0.00  0.00     0.078 H 
ATOM     83  H   NAG d1175      12.636 -12.511  -8.579  0.00  0.00     0.084 H 
ATOM     84  H   NAG d1175      10.072 -16.854  -9.035  0.00  0.00     0.209 HD
ATOM     85  H   NAG d1175      13.876 -13.863 -10.821  0.00  0.00     0.212 HD
ATOM     86  H   NAG d1175      15.445 -13.299  -8.235  0.00  0.00     0.163 HD
ATOM     87  H   NAG d1175      12.313 -16.240  -7.503  0.00  0.00     0.090 H 
ATOM     88  H   NAG d1175      11.171 -13.693  -6.420  0.00  0.00     0.091 H 
ATOM     89  H   NAG d1175      12.838 -15.759  -5.355  0.00  0.00     0.210 HD
ATOM     90  H   NAG d1175      13.626 -15.293  -9.054  0.00  0.00     0.132 H 
ATOM     91  H   NAG d1175      16.156 -13.114 -10.588  0.00  0.00     0.040 H 
ATOM     92  H   NAG d1175      16.694 -11.453 -10.560  0.00  0.00     0.040 H 
ATOM     93  H   NAG d1175      15.327 -11.911 -11.546  0.00  0.00     0.040 H 
ATOM     94  H   NAG d1175      14.029 -14.234  -6.551  0.00  0.00     0.091 H 
ATOM     95  C4  NAG d1181       3.377 -11.238  17.560  0.00  0.00     0.089 C 
ATOM     96  C3  NAG d1181       4.255 -10.092  18.071  0.00  0.00     0.086 C 
ATOM     97  C6  NAG d1181       3.232 -13.254  16.037  0.00  0.00     0.043 C 
ATOM     98  C5  NAG d1181       4.167 -12.257  16.725  0.00  0.00     0.089 C 
ATOM     99  C7  NAG d1181       6.067  -7.314  17.172  0.00  0.00     0.214 C 
ATOM    100  C8  NAG d1181       6.306  -6.928  15.737  0.00  0.00    -0.003 C 
ATOM    101  N2  NAG d1181       6.131  -8.612  17.468  0.00  0.00    -0.349 N 
ATOM    102  O3  NAG d1181       3.449  -9.042  18.586  0.00  0.00    -0.391 OA
ATOM    103  C1  NAG d1181       5.878 -10.696  16.229  0.00  0.00     0.154 C 
ATOM    104  O6  NAG d1181       3.951 -14.410  15.658  0.00  0.00    -0.398 OA
ATOM    105  O5  NAG d1181       4.938 -11.614  15.725  0.00  0.00    -0.349 OA
ATOM    106  O7  NAG d1181       5.820  -6.459  18.026  0.00  0.00    -0.274 OA
ATOM    107  O4  NAG d1181       2.780 -11.891  18.659  0.00  0.00    -0.390 OA
ATOM    108  C2  NAG d1181       5.156  -9.561  16.952  0.00  0.00     0.087 C 
ATOM    109  H   NAG d1181       2.630 -10.815  16.921  0.00  0.00     0.091 H 
ATOM    110  H   NAG d1181       4.874 -10.470  18.857  0.00  0.00     0.090 H 
ATOM    111  H   NAG d1181       2.808 -12.800  15.166  0.00  0.00     0.078 H 
ATOM    112  H   NAG d1181       2.454 -13.532  16.717  0.00  0.00     0.078 H 
ATOM    113  H   NAG d1181       4.812 -12.773  17.405  0.00  0.00     0.090 H 
ATOM    114  H   NAG d1181       6.501  -7.807  15.160  0.00  0.00     0.040 H 
ATOM    115  H   NAG d1181       7.147  -6.269  15.681  0.00  0.00     0.040 H 
ATOM    116  H   NAG d1181       5.438  -6.434  15.352  0.00  0.00     0.040 H 
ATOM    117  H   NAG d1181       6.857  -8.937  18.049  0.00  0.00     0.163 HD
ATOM    118  H   NAG d1181       2.883  -8.693  17.880  0.00  0.00     0.210 HD
ATOM    119  H   NAG d1181       6.520 -11.232  16.897  0.00  0.00     0.132 H 
ATOM    120  H   NAG d1181       4.657 -14.163  15.042  0.00  0.00     0.209 HD
ATOM    121  H   NAG d1181       3.471 -12.267  19.225  0.00  0.00     0.210 HD
ATOM    122  H   NAG d1181       4.520  -9.061  16.252  0.00  0.00     0.084 H 
ATOM    123  C7  NAG d1179      10.215 -11.866   8.560  0.00  0.00     0.214 C 
ATOM    124  C1  NAG d1179      13.387 -11.093   9.636  0.00  0.00     0.154 C 
ATOM    125  C2  NAG d1179      12.038 -11.600  10.130  0.00  0.00     0.087 C 
ATOM    126  O5  NAG d1179      14.414 -11.550  10.490  0.00  0.00    -0.349 OA
ATOM    127  O7  NAG d1179       9.952 -13.025   8.873  0.00  0.00    -0.274 OA
ATOM    128  O4  NAG d1179      12.836 -11.366  13.779  0.00  0.00    -0.390 OA
ATOM    129  N2  NAG d1179      10.959 -11.061   9.317  0.00  0.00    -0.349 N 
ATOM    130  C8  NAG d1179       9.687 -11.309   7.274  0.00  0.00    -0.003 C 
ATOM    131  O3  NAG d1179      10.682 -12.140  12.018  0.00  0.00    -0.348 OA
ATOM    132  C4  NAG d1179      13.011 -11.754  12.432  0.00  0.00     0.089 C 
ATOM    133  C5  NAG d1179      14.267 -11.119  11.832  0.00  0.00     0.089 C 
ATOM    134  O6  NAG d1179      15.705 -12.879  12.676  0.00  0.00    -0.398 OA
ATOM    135  C3  NAG d1179      11.788 -11.352  11.616  0.00  0.00     0.093 C 
ATOM    136  C6  NAG d1179      15.532 -11.475  12.613  0.00  0.00     0.043 C 
ATOM    137  H   NAG d1179      13.467 -10.025   9.637  0.00  0.00     0.132 H 
ATOM    138  H   NAG d1179      12.064 -12.664  10.019  0.00  0.00     0.084 H 
ATOM    139  H   NAG d1179      12.035 -11.782  14.133  0.00  0.00     0.210 HD
ATOM    140  H   NAG d1179      10.777 -10.094   9.327  0.00  0.00     0.163 HD
ATOM    141  H   NAG d1179      10.012 -10.296   7.163  0.00  0.00     0.040 H 
ATOM    142  H   NAG d1179       8.618 -11.342   7.283  0.00  0.00     0.040 H 
ATOM    143  H   NAG d1179      10.055 -11.892   6.455  0.00  0.00     0.040 H 
ATOM    144  H   NAG d1179      13.129 -12.817  12.403  0.00  0.00     0.091 H 
ATOM    145  H   NAG d1179      14.144 -10.057  11.881  0.00  0.00     0.090 H 
ATOM    146  H   NAG d1179      16.512 -13.084  13.174  0.00  0.00     0.209 HD
ATOM    147  H   NAG d1179      11.591 -10.313  11.778  0.00  0.00     0.091 H 
ATOM    148  H   NAG d1179      15.452 -11.087  13.607  0.00  0.00     0.078 H 
ATOM    149  H   NAG d1179      16.376 -11.047  12.113  0.00  0.00     0.078 H 
ATOM    150  C6  BDP d1180       9.468  -9.644  15.844  0.00  0.00     0.206 C 
ATOM    151  O3  BDP d1180       6.241 -12.598  13.550  0.00  0.00    -0.390 OA
ATOM    152  C1  BDP d1180       9.633 -11.354  12.603  0.00  0.00     0.160 C 
ATOM    153  O2  BDP d1180       7.907 -11.986  11.099  0.00  0.00    -0.388 OA
ATOM    154  C3  BDP d1180       7.171 -11.557  13.328  0.00  0.00     0.092 C 
ATOM    155  O4  BDP d1180       6.666 -10.116  15.177  0.00  0.00    -0.348 OA
ATOM    156  O5  BDP d1180       9.910 -11.098  13.962  0.00  0.00    -0.340 OA
ATOM    157  C5  BDP d1180       8.949 -10.232  14.530  0.00  0.00     0.152 C 
ATOM    158  O6B BDP d1180       9.908 -10.433  16.716  0.00  0.00    -0.646 OA
ATOM    159  O6A BDP d1180       9.436  -8.396  15.971  0.00  0.00    -0.646 OA
ATOM    160  C2  BDP d1180       8.307 -12.098  12.449  0.00  0.00     0.110 C 
ATOM    161  C4  BDP d1180       7.640 -11.005  14.677  0.00  0.00     0.103 C 
ATOM    162  H   BDP d1180       5.941 -12.951  12.697  0.00  0.00     0.210 HD
ATOM    163  H   BDP d1180       9.568 -10.413  12.099  0.00  0.00     0.133 H 
ATOM    164  H   BDP d1180       8.613 -12.323  10.524  0.00  0.00     0.210 HD
ATOM    165  H   BDP d1180       6.732 -10.735  12.803  0.00  0.00     0.091 H 
ATOM    166  H   BDP d1180       8.764  -9.391  13.896  0.00  0.00     0.104 H 
ATOM    167  H   BDP d1180       8.477 -13.107  12.760  0.00  0.00     0.094 H 
ATOM    168  H   BDP d1180       7.789 -11.831  15.341  0.00  0.00     0.092 H 
ENDROOT
TORSDOF 43
ENDMDL
MODEL 10
REMARK VINA RESULT:      -7.8      5.842     18.175
REMARK  0 active torsions:
REMARK  status: ('A' for Active; 'I' for Inactive)
REMARK       I    between atoms: C1_1  and  O3_15 
REMARK       I    between atoms: C1_2  and  O3_93 
REMARK       I    between atoms: C6_3  and  C5_89 
REMARK       I    between atoms: C6_3  and  O6_76 
REMARK       I    between atoms: O3_4  and  C3_22 
REMARK       I    between atoms: C6_5  and  C5_48 
REMARK       I    between atoms: C6_5  and  O6_31 
REMARK       I    between atoms: C4_6  and  O4_74 
REMARK       I    between atoms: C7_7  and  C8_62 
REMARK       I    between atoms: C7_7  and  N2_60 
REMARK       I    between atoms: C6_8  and  C5_52 
REMARK       I    between atoms: C3_9  and  O3_38 
REMARK       I    between atoms: C1_10  and  O4_75 
REMARK       I    between atoms: C6_12  and  C5_51 
REMARK       I    between atoms: O3_13  and  C3_42 
REMARK       I    between atoms: O4_14  and  C4_84 
REMARK       I    between atoms: O3_15  and  C3_86 
REMARK       I    between atoms: C6_16  and  C5_23 
REMARK       I    between atoms: C6_16  and  O6_58 
REMARK       I    between atoms: C1_17  and  O3_63 
REMARK       I    between atoms: C2_18  and  N2_60 
REMARK       I    between atoms: C2_19  and  N2_53 
REMARK       I    between atoms: O2_20  and  C2_66 
REMARK       I    between atoms: C3_25  and  O3_93 
REMARK       I    between atoms: C7_26  and  C8_32 
REMARK       I    between atoms: C7_26  and  N2_37 
REMARK       I    between atoms: C2_28  and  N2_44 
REMARK       I    between atoms: C7_29  and  C8_54 
REMARK       I    between atoms: C7_29  and  N2_53 
REMARK       I    between atoms: O1_33  and  C1_80 
REMARK       I    between atoms: O4_34  and  C4_40 
REMARK       I    between atoms: O4_34  and  C1_92 
REMARK       I    between atoms: C7_36  and  C8_81 
REMARK       I    between atoms: C7_36  and  N2_44 
REMARK       I    between atoms: N2_37  and  C2_83 
REMARK       I    between atoms: O3_39  and  C3_61 
REMARK       I    between atoms: C1_41  and  O4_46 
REMARK       I    between atoms: O2_43  and  C2_73 
REMARK       I    between atoms: C6_45  and  C5_87 
REMARK       I    between atoms: O4_46  and  C4_67 
REMARK       I    between atoms: C4_50  and  O4_65 
REMARK       I    between atoms: C2_55  and  O2_82 
REMARK       I    between atoms: O4_57  and  C4_71 
REMARK       I    between atoms: O3_63  and  C3_85 
REMARK       I    between atoms: O4_75  and  C4_91 
REMARK       I    between atoms: C5_77  and  C6_90 
REMARK       I    between atoms: O6_79  and  C6_90 
ROOT
ATOM      1  C1  BDP d1176       6.430 -15.238  -2.534  0.00  0.00     0.160 C 
ATOM      2  O3  BDP d1176       6.598 -11.671  -1.341  0.00  0.00    -0.390 OA
ATOM      3  O5  BDP d1176       6.794 -15.668  -1.252  0.00  0.00    -0.340 OA
ATOM      4  O6A BDP d1176       7.505 -15.957   1.347  0.00  0.00    -0.646 OA
ATOM      5  C3  BDP d1176       7.175 -12.906  -1.716  0.00  0.00     0.092 C 
ATOM      6  O4  BDP d1176       8.943 -12.987  -0.114  0.00  0.00    -0.348 OA
ATOM      7  C4  BDP d1176       7.721 -13.599  -0.477  0.00  0.00     0.103 C 
ATOM      8  C6  BDP d1176       8.373 -15.842   0.460  0.00  0.00     0.206 C 
ATOM      9  C2  BDP d1176       6.170 -13.727  -2.521  0.00  0.00     0.110 C 
ATOM     10  O6B BDP d1176       9.532 -16.306   0.504  0.00  0.00    -0.646 OA
ATOM     11  O2  BDP d1176       6.248 -13.246  -3.841  0.00  0.00    -0.388 OA
ATOM     12  C5  BDP d1176       7.966 -15.072  -0.778  0.00  0.00     0.152 C 
ATOM     13  H   BDP d1176       7.216 -15.430  -3.234  0.00  0.00     0.133 H 
ATOM     14  H   BDP d1176       6.248 -11.225  -2.128  0.00  0.00     0.210 HD
ATOM     15  H   BDP d1176       8.011 -12.763  -2.369  0.00  0.00     0.091 H 
ATOM     16  H   BDP d1176       7.015 -13.517   0.323  0.00  0.00     0.092 H 
ATOM     17  H   BDP d1176       5.209 -13.611  -2.064  0.00  0.00     0.094 H 
ATOM     18  H   BDP d1176       7.145 -13.387  -4.183  0.00  0.00     0.210 HD
ATOM     19  H   BDP d1176       8.752 -15.105  -1.504  0.00  0.00     0.104 H 
ATOM     20  C1  BDP d1178      11.916 -10.917   4.417  0.00  0.00     0.160 C 
ATOM     21  C6  BDP d1178      10.988  -9.953   7.896  0.00  0.00     0.206 C 
ATOM     22  O6B BDP d1178      10.733 -10.614   8.931  0.00  0.00    -0.646 OA
ATOM     23  O6A BDP d1178      10.737  -8.730   7.756  0.00  0.00    -0.646 OA
ATOM     24  O3  BDP d1178      15.329 -10.883   5.918  0.00  0.00    -0.390 OA
ATOM     25  O2  BDP d1178      14.095 -11.172   3.417  0.00  0.00    -0.388 OA
ATOM     26  C5  BDP d1178      11.671 -10.717   6.761  0.00  0.00     0.152 C 
ATOM     27  C3  BDP d1178      13.958 -11.185   5.783  0.00  0.00     0.092 C 
ATOM     28  C2  BDP d1178      13.407 -10.608   4.504  0.00  0.00     0.110 C 
ATOM     29  O4  BDP d1178      13.502 -11.459   8.052  0.00  0.00    -0.348 OA
ATOM     30  O5  BDP d1178      11.252 -10.267   5.478  0.00  0.00    -0.340 OA
ATOM     31  C4  BDP d1178      13.180 -10.637   6.967  0.00  0.00     0.103 C 
ATOM     32  H   BDP d1178      11.701 -11.960   4.523  0.00  0.00     0.133 H 
ATOM     33  H   BDP d1178      15.814 -11.238   5.157  0.00  0.00     0.210 HD
ATOM     34  H   BDP d1178      13.747 -10.807   2.589  0.00  0.00     0.210 HD
ATOM     35  H   BDP d1178      11.377 -11.746   6.789  0.00  0.00     0.104 H 
ATOM     36  H   BDP d1178      13.854 -12.249   5.754  0.00  0.00     0.091 H 
ATOM     37  H   BDP d1178      13.538  -9.546   4.485  0.00  0.00     0.094 H 
ATOM     38  H   BDP d1178      13.433  -9.607   7.111  0.00  0.00     0.092 H 
ATOM     39  C6  NAG d1177       7.008  -9.025   1.677  0.00  0.00     0.043 C 
ATOM     40  O4  NAG d1177       9.191  -9.011   3.716  0.00  0.00    -0.390 OA
ATOM     41  C2  NAG d1177      10.246 -11.884   1.581  0.00  0.00     0.087 C 
ATOM     42  C3  NAG d1177      10.178 -10.958   2.788  0.00  0.00     0.093 C 
ATOM     43  C7  NAG d1177      11.984 -13.612   1.331  0.00  0.00     0.214 C 
ATOM     44  N2  NAG d1177      10.940 -13.101   1.977  0.00  0.00    -0.349 N 
ATOM     45  C8  NAG d1177      12.300 -15.038   1.672  0.00  0.00    -0.003 C 
ATOM     46  O7  NAG d1177      12.678 -12.993   0.518  0.00  0.00    -0.274 OA
ATOM     47  O6  NAG d1177       6.913  -8.846   0.275  0.00  0.00    -0.398 OA
ATOM     48  C4  NAG d1177       9.300  -9.746   2.512  0.00  0.00     0.089 C 
ATOM     49  O5  NAG d1177       8.094 -10.999   0.849  0.00  0.00    -0.349 OA
ATOM     50  C5  NAG d1177       7.932 -10.198   2.001  0.00  0.00     0.089 C 
ATOM     51  C1  NAG d1177       8.836 -12.187   1.072  0.00  0.00     0.154 C 
ATOM     52  O3  NAG d1177      11.471 -10.502   3.115  0.00  0.00    -0.348 OA
ATOM     53  H   NAG d1177       7.399  -8.134   2.121  0.00  0.00     0.078 H 
ATOM     54  H   NAG d1177       6.033  -9.233   2.068  0.00  0.00     0.078 H 
ATOM     55  H   NAG d1177      10.075  -8.741   4.010  0.00  0.00     0.210 HD
ATOM     56  H   NAG d1177      10.782 -11.417   0.781  0.00  0.00     0.084 H 
ATOM     57  H   NAG d1177       9.758 -11.517   3.598  0.00  0.00     0.091 H 
ATOM     58  H   NAG d1177      10.615 -13.576   2.776  0.00  0.00     0.163 HD
ATOM     59  H   NAG d1177      11.592 -15.399   2.388  0.00  0.00     0.040 H 
ATOM     60  H   NAG d1177      13.286 -15.095   2.085  0.00  0.00     0.040 H 
ATOM     61  H   NAG d1177      12.248 -15.637   0.787  0.00  0.00     0.040 H 
ATOM     62  H   NAG d1177       7.793  -8.658  -0.087  0.00  0.00     0.209 HD
ATOM     63  H   NAG d1177       9.729  -9.125   1.755  0.00  0.00     0.091 H 
ATOM     64  H   NAG d1177       7.474 -10.760   2.787  0.00  0.00     0.090 H 
ATOM     65  H   NAG d1177       8.295 -12.733   1.816  0.00  0.00     0.132 H 
ATOM     66  C6  NAG d1175       4.987 -20.850  -2.530  0.00  0.00     0.043 C 
ATOM     67  O3  NAG d1175       5.244 -15.963  -2.931  0.00  0.00    -0.348 OA
ATOM     68  C2  NAG d1175       4.504 -17.248  -4.812  0.00  0.00     0.087 C 
ATOM     69  O6  NAG d1175       5.019 -22.062  -3.248  0.00  0.00    -0.398 OA
ATOM     70  O1  NAG d1175       3.473 -18.705  -6.452  0.00  0.00    -0.369 OA
ATOM     71  C7  NAG d1175       3.860 -15.498  -6.392  0.00  0.00     0.214 C 
ATOM     72  N2  NAG d1175       4.813 -16.224  -5.804  0.00  0.00    -0.349 N 
ATOM     73  C5  NAG d1175       5.259 -19.713  -3.508  0.00  0.00     0.089 C 
ATOM     74  O5  NAG d1175       4.187 -19.600  -4.432  0.00  0.00    -0.349 OA
ATOM     75  C4  NAG d1175       5.493 -18.408  -2.744  0.00  0.00     0.089 C 
ATOM     76  O4  NAG d1175       6.713 -18.547  -2.040  0.00  0.00    -0.390 OA
ATOM     77  O7  NAG d1175       3.031 -14.835  -5.757  0.00  0.00    -0.274 OA
ATOM     78  C1  NAG d1175       4.463 -18.645  -5.444  0.00  0.00     0.151 C 
ATOM     79  C8  NAG d1175       3.855 -15.515  -7.896  0.00  0.00    -0.003 C 
ATOM     80  C3  NAG d1175       5.512 -17.165  -3.652  0.00  0.00     0.093 C 
ATOM     81  H   NAG d1175       4.025 -20.719  -2.080  0.00  0.00     0.078 H 
ATOM     82  H   NAG d1175       5.727 -20.858  -1.757  0.00  0.00     0.078 H 
ATOM     83  H   NAG d1175       3.526 -17.068  -4.417  0.00  0.00     0.084 H 
ATOM     84  H   NAG d1175       4.345 -22.042  -3.946  0.00  0.00     0.209 HD
ATOM     85  H   NAG d1175       3.671 -18.049  -7.139  0.00  0.00     0.212 HD
ATOM     86  H   NAG d1175       5.753 -16.064  -6.048  0.00  0.00     0.163 HD
ATOM     87  H   NAG d1175       6.147 -19.925  -4.066  0.00  0.00     0.090 H 
ATOM     88  H   NAG d1175       4.675 -18.245  -2.073  0.00  0.00     0.091 H 
ATOM     89  H   NAG d1175       7.435 -18.693  -2.671  0.00  0.00     0.210 HD
ATOM     90  H   NAG d1175       5.410 -18.859  -5.895  0.00  0.00     0.132 H 
ATOM     91  H   NAG d1175       4.646 -16.143  -8.249  0.00  0.00     0.040 H 
ATOM     92  H   NAG d1175       3.999 -14.521  -8.265  0.00  0.00     0.040 H 
ATOM     93  H   NAG d1175       2.917 -15.893  -8.246  0.00  0.00     0.040 H 
ATOM     94  H   NAG d1175       6.505 -17.142  -4.050  0.00  0.00     0.091 H 
ATOM     95  C4  NAG d1181      13.132 -14.292  21.479  0.00  0.00     0.089 C 
ATOM     96  C3  NAG d1181      13.259 -12.766  21.526  0.00  0.00     0.086 C 
ATOM     97  C6  NAG d1181      13.317 -16.371  20.048  0.00  0.00     0.043 C 
ATOM     98  C5  NAG d1181      13.668 -14.886  20.168  0.00  0.00     0.089 C 
ATOM     99  C7  NAG d1181      12.124  -9.801  20.210  0.00  0.00     0.214 C 
ATOM    100  C8  NAG d1181      11.182  -9.740  19.039  0.00  0.00    -0.003 C 
ATOM    101  N2  NAG d1181      13.089 -10.720  20.163  0.00  0.00    -0.349 N 
ATOM    102  O3  NAG d1181      12.506 -12.240  22.609  0.00  0.00    -0.391 OA
ATOM    103  C1  NAG d1181      13.423 -12.839  19.004  0.00  0.00     0.154 C 
ATOM    104  O6  NAG d1181      14.164 -16.995  19.105  0.00  0.00    -0.398 OA
ATOM    105  O5  NAG d1181      13.131 -14.215  19.042  0.00  0.00    -0.349 OA
ATOM    106  O7  NAG d1181      11.997  -9.034  21.167  0.00  0.00    -0.274 OA
ATOM    107  O4  NAG d1181      13.829 -14.850  22.570  0.00  0.00    -0.390 OA
ATOM    108  C2  NAG d1181      12.790 -12.144  20.208  0.00  0.00     0.087 C 
ATOM    109  H   NAG d1181      12.090 -14.532  21.534  0.00  0.00     0.091 H 
ATOM    110  H   NAG d1181      14.290 -12.521  21.670  0.00  0.00     0.090 H 
ATOM    111  H   NAG d1181      12.300 -16.471  19.731  0.00  0.00     0.078 H 
ATOM    112  H   NAG d1181      13.449 -16.841  21.001  0.00  0.00     0.078 H 
ATOM    113  H   NAG d1181      14.731 -14.765  20.191  0.00  0.00     0.090 H 
ATOM    114  H   NAG d1181      11.459 -10.482  18.320  0.00  0.00     0.040 H 
ATOM    115  H   NAG d1181      11.236  -8.770  18.590  0.00  0.00     0.040 H 
ATOM    116  H   NAG d1181      10.183  -9.924  19.374  0.00  0.00     0.040 H 
ATOM    117  H   NAG d1181      14.027 -10.428  20.094  0.00  0.00     0.163 HD
ATOM    118  H   NAG d1181      11.569 -12.457  22.486  0.00  0.00     0.210 HD
ATOM    119  H   NAG d1181      14.488 -12.738  19.017  0.00  0.00     0.132 H 
ATOM    120  H   NAG d1181      14.049 -16.572  18.240  0.00  0.00     0.209 HD
ATOM    121  H   NAG d1181      14.770 -14.622  22.503  0.00  0.00     0.210 HD
ATOM    122  H   NAG d1181      11.729 -12.278  20.161  0.00  0.00     0.084 H 
ATOM    123  C7  NAG d1179      11.970 -13.397  10.253  0.00  0.00     0.214 C 
ATOM    124  C1  NAG d1179      13.929 -10.763   9.235  0.00  0.00     0.154 C 
ATOM    125  C2  NAG d1179      13.764 -11.776  10.360  0.00  0.00     0.087 C 
ATOM    126  O5  NAG d1179      15.274 -10.339   9.162  0.00  0.00    -0.349 OA
ATOM    127  O7  NAG d1179      12.681 -14.381  10.448  0.00  0.00    -0.274 OA
ATOM    128  O4  NAG d1179      16.238 -10.198  12.682  0.00  0.00    -0.390 OA
ATOM    129  N2  NAG d1179      12.367 -12.152  10.511  0.00  0.00    -0.349 N 
ATOM    130  C8  NAG d1179      10.589 -13.581   9.703  0.00  0.00    -0.003 C 
ATOM    131  O3  NAG d1179      14.441 -12.454  12.545  0.00  0.00    -0.348 OA
ATOM    132  C4  NAG d1179      15.762 -10.763  11.478  0.00  0.00     0.089 C 
ATOM    133  C5  NAG d1179      15.738  -9.726  10.353  0.00  0.00     0.089 C 
ATOM    134  O6  NAG d1179      18.062 -10.116   9.784  0.00  0.00    -0.398 OA
ATOM    135  C3  NAG d1179      14.362 -11.327  11.692  0.00  0.00     0.093 C 
ATOM    136  C6  NAG d1179      17.114  -9.112  10.095  0.00  0.00     0.043 C 
ATOM    137  H   NAG d1179      13.355  -9.871   9.377  0.00  0.00     0.132 H 
ATOM    138  H   NAG d1179      14.330 -12.636  10.069  0.00  0.00     0.084 H 
ATOM    139  H   NAG d1179      16.243 -10.875  13.377  0.00  0.00     0.210 HD
ATOM    140  H   NAG d1179      11.710 -11.481  10.805  0.00  0.00     0.163 HD
ATOM    141  H   NAG d1179      10.117 -12.627   9.598  0.00  0.00     0.040 H 
ATOM    142  H   NAG d1179      10.017 -14.191  10.371  0.00  0.00     0.040 H 
ATOM    143  H   NAG d1179      10.646 -14.057   8.747  0.00  0.00     0.040 H 
ATOM    144  H   NAG d1179      16.427 -11.550  11.192  0.00  0.00     0.091 H 
ATOM    145  H   NAG d1179      15.082  -8.937  10.657  0.00  0.00     0.090 H 
ATOM    146  H   NAG d1179      18.927  -9.706   9.624  0.00  0.00     0.209 HD
ATOM    147  H   NAG d1179      13.746 -10.567  12.124  0.00  0.00     0.091 H 
ATOM    148  H   NAG d1179      17.433  -8.587  10.971  0.00  0.00     0.078 H 
ATOM    149  H   NAG d1179      17.039  -8.440   9.265  0.00  0.00     0.078 H 
ATOM    150  C6  BDP d1180      14.586 -10.136  16.662  0.00  0.00     0.206 C 
ATOM    151  O3  BDP d1180      13.138 -14.851  16.398  0.00  0.00    -0.390 OA
ATOM    152  C1  BDP d1180      13.747 -12.252  13.785  0.00  0.00     0.160 C 
ATOM    153  O2  BDP d1180      12.259 -14.093  13.603  0.00  0.00    -0.388 OA
ATOM    154  C3  BDP d1180      12.922 -13.573  15.835  0.00  0.00     0.092 C 
ATOM    155  O4  BDP d1180      12.901 -12.221  17.816  0.00  0.00    -0.348 OA
ATOM    156  O5  BDP d1180      14.559 -11.541  14.693  0.00  0.00    -0.340 OA
ATOM    157  C5  BDP d1180      13.858 -11.231  15.880  0.00  0.00     0.152 C 
ATOM    158  O6B BDP d1180      15.806 -10.293  16.910  0.00  0.00    -0.646 OA
ATOM    159  O6A BDP d1180      13.919  -9.129  17.002  0.00  0.00    -0.646 OA
ATOM    160  C2  BDP d1180      13.348 -13.610  14.362  0.00  0.00     0.110 C 
ATOM    161  C4  BDP d1180      13.664 -12.524  16.669  0.00  0.00     0.103 C 
ATOM    162  H   BDP d1180      12.670 -15.519  15.872  0.00  0.00     0.210 HD
ATOM    163  H   BDP d1180      12.865 -11.672  13.612  0.00  0.00     0.133 H 
ATOM    164  H   BDP d1180      12.507 -14.125  12.666  0.00  0.00     0.210 HD
ATOM    165  H   BDP d1180      11.888 -13.298  15.857  0.00  0.00     0.091 H 
ATOM    166  H   BDP d1180      12.890 -10.830  15.664  0.00  0.00     0.104 H 
ATOM    167  H   BDP d1180      14.213 -14.237  14.311  0.00  0.00     0.094 H 
ATOM    168  H   BDP d1180      14.620 -12.925  16.933  0.00  0.00     0.092 H 
ENDROOT
TORSDOF 43
ENDMDL
MODEL 11
REMARK VINA RESULT:      -7.8      4.073     19.370
REMARK  0 active torsions:
REMARK  status: ('A' for Active; 'I' for Inactive)
REMARK       I    between atoms: C1_1  and  O3_15 
REMARK       I    between atoms: C1_2  and  O3_93 
REMARK       I    between atoms: C6_3  and  C5_89 
REMARK       I    between atoms: C6_3  and  O6_76 
REMARK       I    between atoms: O3_4  and  C3_22 
REMARK       I    between atoms: C6_5  and  C5_48 
REMARK       I    between atoms: C6_5  and  O6_31 
REMARK       I    between atoms: C4_6  and  O4_74 
REMARK       I    between atoms: C7_7  and  C8_62 
REMARK       I    between atoms: C7_7  and  N2_60 
REMARK       I    between atoms: C6_8  and  C5_52 
REMARK       I    between atoms: C3_9  and  O3_38 
REMARK       I    between atoms: C1_10  and  O4_75 
REMARK       I    between atoms: C6_12  and  C5_51 
REMARK       I    between atoms: O3_13  and  C3_42 
REMARK       I    between atoms: O4_14  and  C4_84 
REMARK       I    between atoms: O3_15  and  C3_86 
REMARK       I    between atoms: C6_16  and  C5_23 
REMARK       I    between atoms: C6_16  and  O6_58 
REMARK       I    between atoms: C1_17  and  O3_63 
REMARK       I    between atoms: C2_18  and  N2_60 
REMARK       I    between atoms: C2_19  and  N2_53 
REMARK       I    between atoms: O2_20  and  C2_66 
REMARK       I    between atoms: C3_25  and  O3_93 
REMARK       I    between atoms: C7_26  and  C8_32 
REMARK       I    between atoms: C7_26  and  N2_37 
REMARK       I    between atoms: C2_28  and  N2_44 
REMARK       I    between atoms: C7_29  and  C8_54 
REMARK       I    between atoms: C7_29  and  N2_53 
REMARK       I    between atoms: O1_33  and  C1_80 
REMARK       I    between atoms: O4_34  and  C4_40 
REMARK       I    between atoms: O4_34  and  C1_92 
REMARK       I    between atoms: C7_36  and  C8_81 
REMARK       I    between atoms: C7_36  and  N2_44 
REMARK       I    between atoms: N2_37  and  C2_83 
REMARK       I    between atoms: O3_39  and  C3_61 
REMARK       I    between atoms: C1_41  and  O4_46 
REMARK       I    between atoms: O2_43  and  C2_73 
REMARK       I    between atoms: C6_45  and  C5_87 
REMARK       I    between atoms: O4_46  and  C4_67 
REMARK       I    between atoms: C4_50  and  O4_65 
REMARK       I    between atoms: C2_55  and  O2_82 
REMARK       I    between atoms: O4_57  and  C4_71 
REMARK       I    between atoms: O3_63  and  C3_85 
REMARK       I    between atoms: O4_75  and  C4_91 
REMARK       I    between atoms: C5_77  and  C6_90 
REMARK       I    between atoms: O6_79  and  C6_90 
ROOT
ATOM      1  C1  BDP d1176      13.918 -12.991  -4.737  0.00  0.00     0.160 C 
ATOM      2  O3  BDP d1176      16.188 -10.836  -2.645  0.00  0.00    -0.390 OA
ATOM      3  O5  BDP d1176      13.022 -13.062  -3.663  0.00  0.00    -0.340 OA
ATOM      4  O6A BDP d1176      11.659 -12.878  -1.328  0.00  0.00    -0.646 OA
ATOM      5  C3  BDP d1176      15.580 -12.063  -2.992  0.00  0.00     0.092 C 
ATOM      6  O4  BDP d1176      15.229 -12.934  -0.797  0.00  0.00    -0.348 OA
ATOM      7  C4  BDP d1176      14.552 -12.428  -1.932  0.00  0.00     0.103 C 
ATOM      8  C6  BDP d1176      12.481 -13.797  -1.513  0.00  0.00     0.206 C 
ATOM      9  C2  BDP d1176      15.034 -11.989  -4.416  0.00  0.00     0.110 C 
ATOM     10  O6B BDP d1176      12.448 -14.927  -0.984  0.00  0.00    -0.646 OA
ATOM     11  O2  BDP d1176      16.128 -12.249  -5.262  0.00  0.00    -0.388 OA
ATOM     12  C5  BDP d1176      13.613 -13.498  -2.473  0.00  0.00     0.152 C 
ATOM     13  H   BDP d1176      14.373 -13.943  -4.912  0.00  0.00     0.133 H 
ATOM     14  H   BDP d1176      16.845 -10.598  -3.318  0.00  0.00     0.210 HD
ATOM     15  H   BDP d1176      16.292 -12.862  -3.003  0.00  0.00     0.091 H 
ATOM     16  H   BDP d1176      13.983 -11.562  -1.667  0.00  0.00     0.092 H 
ATOM     17  H   BDP d1176      14.591 -11.024  -4.550  0.00  0.00     0.094 H 
ATOM     18  H   BDP d1176      16.472 -13.137  -5.081  0.00  0.00     0.210 HD
ATOM     19  H   BDP d1176      14.207 -14.375  -2.622  0.00  0.00     0.104 H 
ATOM     20  C1  BDP d1178      15.437 -12.606   4.991  0.00  0.00     0.160 C 
ATOM     21  C6  BDP d1178      14.107 -10.185   7.494  0.00  0.00     0.206 C 
ATOM     22  O6B BDP d1178      12.963  -9.981   7.967  0.00  0.00    -0.646 OA
ATOM     23  O6A BDP d1178      15.075  -9.394   7.613  0.00  0.00    -0.646 OA
ATOM     24  O3  BDP d1178      15.740 -14.730   8.041  0.00  0.00    -0.390 OA
ATOM     25  O2  BDP d1178      16.429 -14.778   5.323  0.00  0.00    -0.388 OA
ATOM     26  C5  BDP d1178      14.301 -11.508   6.750  0.00  0.00     0.152 C 
ATOM     27  C3  BDP d1178      15.145 -13.869   7.096  0.00  0.00     0.092 C 
ATOM     28  C2  BDP d1178      16.100 -13.573   5.967  0.00  0.00     0.110 C 
ATOM     29  O4  BDP d1178      13.605 -12.881   8.540  0.00  0.00    -0.348 OA
ATOM     30  O5  BDP d1178      15.198 -11.383   5.653  0.00  0.00    -0.340 OA
ATOM     31  C4  BDP d1178      14.724 -12.569   7.761  0.00  0.00     0.103 C 
ATOM     32  H   BDP d1178      14.486 -12.952   4.645  0.00  0.00     0.133 H 
ATOM     33  H   BDP d1178      16.004 -15.555   7.605  0.00  0.00     0.210 HD
ATOM     34  H   BDP d1178      17.044 -14.598   4.595  0.00  0.00     0.210 HD
ATOM     35  H   BDP d1178      13.377 -11.811   6.304  0.00  0.00     0.104 H 
ATOM     36  H   BDP d1178      14.281 -14.358   6.698  0.00  0.00     0.091 H 
ATOM     37  H   BDP d1178      16.995 -13.123   6.341  0.00  0.00     0.094 H 
ATOM     38  H   BDP d1178      15.547 -12.175   8.319  0.00  0.00     0.092 H 
ATOM     39  C6  NAG d1177      16.850  -8.728   0.732  0.00  0.00     0.043 C 
ATOM     40  O4  NAG d1177      16.476  -9.722   3.524  0.00  0.00    -0.390 OA
ATOM     41  C2  NAG d1177      15.628 -12.786   1.571  0.00  0.00     0.087 C 
ATOM     42  C3  NAG d1177      15.715 -11.832   2.755  0.00  0.00     0.093 C 
ATOM     43  C7  NAG d1177      14.920 -15.134   1.808  0.00  0.00     0.214 C 
ATOM     44  N2  NAG d1177      14.668 -13.831   1.896  0.00  0.00    -0.349 N 
ATOM     45  C8  NAG d1177      13.706 -16.014   1.821  0.00  0.00    -0.003 C 
ATOM     46  O7  NAG d1177      16.051 -15.626   1.737  0.00  0.00    -0.274 OA
ATOM     47  O6  NAG d1177      17.693  -9.040  -0.363  0.00  0.00    -0.398 OA
ATOM     48  C4  NAG d1177      16.551 -10.606   2.422  0.00  0.00     0.089 C 
ATOM     49  O5  NAG d1177      16.047 -10.896   0.087  0.00  0.00    -0.349 OA
ATOM     50  C5  NAG d1177      16.035  -9.954   1.140  0.00  0.00     0.089 C 
ATOM     51  C1  NAG d1177      15.215 -12.023   0.312  0.00  0.00     0.154 C 
ATOM     52  O3  NAG d1177      16.308 -12.487   3.853  0.00  0.00    -0.348 OA
ATOM     53  H   NAG d1177      17.450  -8.412   1.559  0.00  0.00     0.078 H 
ATOM     54  H   NAG d1177      16.180  -7.945   0.442  0.00  0.00     0.078 H 
ATOM     55  H   NAG d1177      16.811 -10.166   4.318  0.00  0.00     0.210 HD
ATOM     56  H   NAG d1177      16.581 -13.231   1.378  0.00  0.00     0.084 H 
ATOM     57  H   NAG d1177      14.719 -11.522   2.992  0.00  0.00     0.091 H 
ATOM     58  H   NAG d1177      13.773 -13.555   2.201  0.00  0.00     0.163 HD
ATOM     59  H   NAG d1177      12.827 -15.408   1.887  0.00  0.00     0.040 H 
ATOM     60  H   NAG d1177      13.750 -16.670   2.665  0.00  0.00     0.040 H 
ATOM     61  H   NAG d1177      13.674 -16.592   0.921  0.00  0.00     0.040 H 
ATOM     62  H   NAG d1177      18.304  -9.750  -0.109  0.00  0.00     0.209 HD
ATOM     63  H   NAG d1177      17.573 -10.872   2.250  0.00  0.00     0.091 H 
ATOM     64  H   NAG d1177      15.036  -9.624   1.336  0.00  0.00     0.090 H 
ATOM     65  H   NAG d1177      14.226 -11.634   0.435  0.00  0.00     0.132 H 
ATOM     66  C6  NAG d1175       9.004 -14.822  -7.200  0.00  0.00     0.043 C 
ATOM     67  O3  NAG d1175      13.182 -12.585  -5.912  0.00  0.00    -0.348 OA
ATOM     68  C2  NAG d1175      12.909 -13.330  -8.172  0.00  0.00     0.087 C 
ATOM     69  O6  NAG d1175       8.423 -15.730  -8.107  0.00  0.00    -0.398 OA
ATOM     70  O1  NAG d1175      12.284 -13.857 -10.454  0.00  0.00    -0.369 OA
ATOM     71  C7  NAG d1175      14.925 -12.449  -9.237  0.00  0.00     0.214 C 
ATOM     72  N2  NAG d1175      14.336 -13.371  -8.473  0.00  0.00    -0.349 N 
ATOM     73  C5  NAG d1175      10.502 -14.770  -7.476  0.00  0.00     0.089 C 
ATOM     74  O5  NAG d1175      10.741 -14.192  -8.751  0.00  0.00    -0.349 OA
ATOM     75  C4  NAG d1175      11.215 -14.003  -6.361  0.00  0.00     0.089 C 
ATOM     76  O4  NAG d1175      11.116 -14.785  -5.185  0.00  0.00    -0.390 OA
ATOM     77  O7  NAG d1175      14.865 -11.237  -8.994  0.00  0.00    -0.274 OA
ATOM     78  C1  NAG d1175      12.113 -14.251  -9.107  0.00  0.00     0.151 C 
ATOM     79  C8  NAG d1175      15.692 -12.969 -10.421  0.00  0.00    -0.003 C 
ATOM     80  C3  NAG d1175      12.684 -13.674  -6.689  0.00  0.00     0.093 C 
ATOM     81  H   NAG d1175       8.577 -13.851  -7.335  0.00  0.00     0.078 H 
ATOM     82  H   NAG d1175       8.825 -15.137  -6.193  0.00  0.00     0.078 H 
ATOM     83  H   NAG d1175      12.544 -12.339  -8.344  0.00  0.00     0.084 H 
ATOM     84  H   NAG d1175       8.593 -15.434  -9.015  0.00  0.00     0.209 HD
ATOM     85  H   NAG d1175      13.225 -13.901 -10.687  0.00  0.00     0.212 HD
ATOM     86  H   NAG d1175      14.881 -14.102  -8.102  0.00  0.00     0.163 HD
ATOM     87  H   NAG d1175      10.899 -15.764  -7.491  0.00  0.00     0.090 H 
ATOM     88  H   NAG d1175      10.743 -13.051  -6.234  0.00  0.00     0.091 H 
ATOM     89  H   NAG d1175      11.552 -15.640  -5.328  0.00  0.00     0.210 HD
ATOM     90  H   NAG d1175      12.471 -15.255  -9.006  0.00  0.00     0.132 H 
ATOM     91  H   NAG d1175      15.621 -14.036 -10.452  0.00  0.00     0.040 H 
ATOM     92  H   NAG d1175      16.720 -12.684 -10.333  0.00  0.00     0.040 H 
ATOM     93  H   NAG d1175      15.283 -12.558 -11.320  0.00  0.00     0.040 H 
ATOM     94  H   NAG d1175      13.216 -14.571  -6.451  0.00  0.00     0.091 H 
ATOM     95  C4  NAG d1181       4.248  -9.488  17.993  0.00  0.00     0.089 C 
ATOM     96  C3  NAG d1181       5.477  -8.768  18.556  0.00  0.00     0.086 C 
ATOM     97  C6  NAG d1181       3.395 -11.217  16.353  0.00  0.00     0.043 C 
ATOM     98  C5  NAG d1181       4.623 -10.667  17.083  0.00  0.00     0.089 C 
ATOM     99  C7  NAG d1181       8.170  -6.774  17.793  0.00  0.00     0.214 C 
ATOM    100  C8  NAG d1181       8.537  -6.410  16.380  0.00  0.00    -0.003 C 
ATOM    101  N2  NAG d1181       7.762  -8.025  18.008  0.00  0.00    -0.349 N 
ATOM    102  O3  NAG d1181       5.099  -7.534  19.149  0.00  0.00    -0.391 OA
ATOM    103  C1  NAG d1181       6.783  -9.797  16.651  0.00  0.00     0.154 C 
ATOM    104  O6  NAG d1181       3.652 -12.527  15.892  0.00  0.00    -0.398 OA
ATOM    105  O5  NAG d1181       5.577 -10.282  16.109  0.00  0.00    -0.349 OA
ATOM    106  O7  NAG d1181       8.243  -5.943  18.702  0.00  0.00    -0.274 OA
ATOM    107  O4  NAG d1181       3.452  -9.951  19.061  0.00  0.00    -0.390 OA
ATOM    108  C2  NAG d1181       6.513  -8.526  17.455  0.00  0.00     0.087 C 
ATOM    109  H   NAG d1181       3.706  -8.785  17.395  0.00  0.00     0.091 H 
ATOM    110  H   NAG d1181       5.916  -9.392  19.305  0.00  0.00     0.090 H 
ATOM    111  H   NAG d1181       3.166 -10.587  15.520  0.00  0.00     0.078 H 
ATOM    112  H   NAG d1181       2.566 -11.240  17.030  0.00  0.00     0.078 H 
ATOM    113  H   NAG d1181       5.037 -11.422  17.718  0.00  0.00     0.090 H 
ATOM    114  H   NAG d1181       8.407  -7.262  15.747  0.00  0.00     0.040 H 
ATOM    115  H   NAG d1181       9.559  -6.094  16.348  0.00  0.00     0.040 H 
ATOM    116  H   NAG d1181       7.907  -5.614  16.042  0.00  0.00     0.040 H 
ATOM    117  H   NAG d1181       8.320  -8.625  18.555  0.00  0.00     0.163 HD
ATOM    118  H   NAG d1181       4.700  -6.961  18.476  0.00  0.00     0.210 HD
ATOM    119  H   NAG d1181       7.186 -10.568  17.273  0.00  0.00     0.132 H 
ATOM    120  H   NAG d1181       4.403 -12.512  15.278  0.00  0.00     0.209 HD
ATOM    121  H   NAG d1181       3.959 -10.586  19.590  0.00  0.00     0.210 HD
ATOM    122  H   NAG d1181       6.103  -7.788  16.798  0.00  0.00     0.084 H 
ATOM    123  C7  NAG d1179      10.443 -11.956   8.845  0.00  0.00     0.214 C 
ATOM    124  C1  NAG d1179      13.676 -12.442   9.906  0.00  0.00     0.154 C 
ATOM    125  C2  NAG d1179      12.233 -12.462  10.393  0.00  0.00     0.087 C 
ATOM    126  O5  NAG d1179      14.467 -13.290  10.711  0.00  0.00    -0.349 OA
ATOM    127  O7  NAG d1179       9.779 -12.960   9.091  0.00  0.00    -0.274 OA
ATOM    128  O4  NAG d1179      13.046 -12.761  14.034  0.00  0.00    -0.390 OA
ATOM    129  N2  NAG d1179      11.423 -11.521   9.635  0.00  0.00    -0.349 N 
ATOM    130  C8  NAG d1179      10.156 -11.166   7.604  0.00  0.00    -0.003 C 
ATOM    131  O3  NAG d1179      10.766 -12.597  12.270  0.00  0.00    -0.348 OA
ATOM    132  C4  NAG d1179      13.076 -13.100  12.663  0.00  0.00     0.089 C 
ATOM    133  C5  NAG d1179      14.479 -12.921  12.079  0.00  0.00     0.089 C 
ATOM    134  O6  NAG d1179      15.184 -15.130  12.788  0.00  0.00    -0.398 OA
ATOM    135  C3  NAG d1179      12.082 -12.235  11.896  0.00  0.00     0.093 C 
ATOM    136  C6  NAG d1179      15.528 -13.757  12.813  0.00  0.00     0.043 C 
ATOM    137  H   NAG d1179      14.134 -11.477   9.971  0.00  0.00     0.132 H 
ATOM    138  H   NAG d1179      11.875 -13.455  10.218  0.00  0.00     0.084 H 
ATOM    139  H   NAG d1179      12.147 -12.884  14.377  0.00  0.00     0.210 HD
ATOM    140  H   NAG d1179      11.600 -10.556   9.707  0.00  0.00     0.163 HD
ATOM    141  H   NAG d1179      10.824 -10.332   7.550  0.00  0.00     0.040 H 
ATOM    142  H   NAG d1179       9.146 -10.814   7.632  0.00  0.00     0.040 H 
ATOM    143  H   NAG d1179      10.293 -11.789   6.745  0.00  0.00     0.040 H 
ATOM    144  H   NAG d1179      12.804 -14.131  12.567  0.00  0.00     0.091 H 
ATOM    145  H   NAG d1179      14.745 -11.891  12.195  0.00  0.00     0.090 H 
ATOM    146  H   NAG d1179      15.861 -15.642  13.258  0.00  0.00     0.209 HD
ATOM    147  H   NAG d1179      12.271 -11.207  12.125  0.00  0.00     0.091 H 
ATOM    148  H   NAG d1179      15.588 -13.429  13.830  0.00  0.00     0.078 H 
ATOM    149  H   NAG d1179      16.471 -13.629  12.324  0.00  0.00     0.078 H 
ATOM    150  C6  BDP d1180      10.512 -10.080  16.263  0.00  0.00     0.206 C 
ATOM    151  O3  BDP d1180       6.449 -11.527  13.854  0.00  0.00    -0.390 OA
ATOM    152  C1  BDP d1180      10.066 -11.527  12.921  0.00  0.00     0.160 C 
ATOM    153  O2  BDP d1180       8.235 -11.401  11.415  0.00  0.00    -0.388 OA
ATOM    154  C3  BDP d1180       7.692 -10.878  13.679  0.00  0.00     0.092 C 
ATOM    155  O4  BDP d1180       7.731  -9.472  15.621  0.00  0.00    -0.348 OA
ATOM    156  O5  BDP d1180      10.411 -11.474  14.288  0.00  0.00    -0.340 OA
ATOM    157  C5  BDP d1180       9.823 -10.359  14.925  0.00  0.00     0.152 C 
ATOM    158  O6B BDP d1180      10.636 -11.028  17.076  0.00  0.00    -0.646 OA
ATOM    159  O6A BDP d1180      10.930  -8.915  16.465  0.00  0.00    -0.646 OA
ATOM    160  C2  BDP d1180       8.561 -11.734  12.747  0.00  0.00     0.110 C 
ATOM    161  C4  BDP d1180       8.323 -10.618  15.050  0.00  0.00     0.103 C 
ATOM    162  H   BDP d1180       6.047 -11.695  12.988  0.00  0.00     0.210 HD
ATOM    163  H   BDP d1180      10.345 -10.594  12.477  0.00  0.00     0.133 H 
ATOM    164  H   BDP d1180       8.775 -11.931  10.807  0.00  0.00     0.210 HD
ATOM    165  H   BDP d1180       7.580  -9.922  13.213  0.00  0.00     0.091 H 
ATOM    166  H   BDP d1180       9.955  -9.468  14.347  0.00  0.00     0.104 H 
ATOM    167  H   BDP d1180       8.356 -12.754  12.993  0.00  0.00     0.094 H 
ATOM    168  H   BDP d1180       8.162 -11.482  15.659  0.00  0.00     0.092 H 
ENDROOT
TORSDOF 43
ENDMDL
MODEL 12
REMARK VINA RESULT:      -7.8      5.250     18.394
REMARK  0 active torsions:
REMARK  status: ('A' for Active; 'I' for Inactive)
REMARK       I    between atoms: C1_1  and  O3_15 
REMARK       I    between atoms: C1_2  and  O3_93 
REMARK       I    between atoms: C6_3  and  C5_89 
REMARK       I    between atoms: C6_3  and  O6_76 
REMARK       I    between atoms: O3_4  and  C3_22 
REMARK       I    between atoms: C6_5  and  C5_48 
REMARK       I    between atoms: C6_5  and  O6_31 
REMARK       I    between atoms: C4_6  and  O4_74 
REMARK       I    between atoms: C7_7  and  C8_62 
REMARK       I    between atoms: C7_7  and  N2_60 
REMARK       I    between atoms: C6_8  and  C5_52 
REMARK       I    between atoms: C3_9  and  O3_38 
REMARK       I    between atoms: C1_10  and  O4_75 
REMARK       I    between atoms: C6_12  and  C5_51 
REMARK       I    between atoms: O3_13  and  C3_42 
REMARK       I    between atoms: O4_14  and  C4_84 
REMARK       I    between atoms: O3_15  and  C3_86 
REMARK       I    between atoms: C6_16  and  C5_23 
REMARK       I    between atoms: C6_16  and  O6_58 
REMARK       I    between atoms: C1_17  and  O3_63 
REMARK       I    between atoms: C2_18  and  N2_60 
REMARK       I    between atoms: C2_19  and  N2_53 
REMARK       I    between atoms: O2_20  and  C2_66 
REMARK       I    between atoms: C3_25  and  O3_93 
REMARK       I    between atoms: C7_26  and  C8_32 
REMARK       I    between atoms: C7_26  and  N2_37 
REMARK       I    between atoms: C2_28  and  N2_44 
REMARK       I    between atoms: C7_29  and  C8_54 
REMARK       I    between atoms: C7_29  and  N2_53 
REMARK       I    between atoms: O1_33  and  C1_80 
REMARK       I    between atoms: O4_34  and  C4_40 
REMARK       I    between atoms: O4_34  and  C1_92 
REMARK       I    between atoms: C7_36  and  C8_81 
REMARK       I    between atoms: C7_36  and  N2_44 
REMARK       I    between atoms: N2_37  and  C2_83 
REMARK       I    between atoms: O3_39  and  C3_61 
REMARK       I    between atoms: C1_41  and  O4_46 
REMARK       I    between atoms: O2_43  and  C2_73 
REMARK       I    between atoms: C6_45  and  C5_87 
REMARK       I    between atoms: O4_46  and  C4_67 
REMARK       I    between atoms: C4_50  and  O4_65 
REMARK       I    between atoms: C2_55  and  O2_82 
REMARK       I    between atoms: O4_57  and  C4_71 
REMARK       I    between atoms: O3_63  and  C3_85 
REMARK       I    between atoms: O4_75  and  C4_91 
REMARK       I    between atoms: C5_77  and  C6_90 
REMARK       I    between atoms: O6_79  and  C6_90 
ROOT
ATOM      1  C1  BDP d1176       7.295 -15.450  -2.795  0.00  0.00     0.160 C 
ATOM      2  O3  BDP d1176       7.840 -11.841  -1.873  0.00  0.00    -0.390 OA
ATOM      3  O5  BDP d1176       7.444 -15.800  -1.448  0.00  0.00    -0.340 OA
ATOM      4  O6A BDP d1176       7.804 -15.934   1.235  0.00  0.00    -0.646 OA
ATOM      5  C3  BDP d1176       8.271 -13.171  -2.075  0.00  0.00     0.092 C 
ATOM      6  O4  BDP d1176       9.815 -13.336  -0.260  0.00  0.00    -0.348 OA
ATOM      7  C4  BDP d1176       8.566 -13.810  -0.726  0.00  0.00     0.103 C 
ATOM      8  C6  BDP d1176       8.776 -16.022   0.458  0.00  0.00     0.206 C 
ATOM      9  C2  BDP d1176       7.257 -13.923  -2.933  0.00  0.00     0.110 C 
ATOM     10  O6B BDP d1176       9.842 -16.630   0.685  0.00  0.00    -0.646 OA
ATOM     11  O2  BDP d1176       7.554 -13.585  -4.266  0.00  0.00    -0.388 OA
ATOM     12  C5  BDP d1176       8.628 -15.325  -0.877  0.00  0.00     0.152 C 
ATOM     13  H   BDP d1176       8.120 -15.811  -3.373  0.00  0.00     0.133 H 
ATOM     14  H   BDP d1176       7.651 -11.428  -2.731  0.00  0.00     0.210 HD
ATOM     15  H   BDP d1176       9.188 -13.205  -2.626  0.00  0.00     0.091 H 
ATOM     16  H   BDP d1176       7.793 -13.558  -0.030  0.00  0.00     0.092 H 
ATOM     17  H   BDP d1176       6.277 -13.636  -2.613  0.00  0.00     0.094 H 
ATOM     18  H   BDP d1176       8.455 -13.876  -4.480  0.00  0.00     0.210 HD
ATOM     19  H   BDP d1176       9.479 -15.532  -1.493  0.00  0.00     0.104 H 
ATOM     20  C1  BDP d1178      12.518 -11.262   4.435  0.00  0.00     0.160 C 
ATOM     21  C6  BDP d1178      11.348  -9.855   7.682  0.00  0.00     0.206 C 
ATOM     22  O6B BDP d1178      10.884 -10.375   8.725  0.00  0.00    -0.646 OA
ATOM     23  O6A BDP d1178      11.295  -8.629   7.416  0.00  0.00    -0.646 OA
ATOM     24  O3  BDP d1178      15.706 -11.543   6.348  0.00  0.00    -0.390 OA
ATOM     25  O2  BDP d1178      14.737 -11.901   3.741  0.00  0.00    -0.388 OA
ATOM     26  C5  BDP d1178      12.038 -10.809   6.706  0.00  0.00     0.152 C 
ATOM     27  C3  BDP d1178      14.330 -11.671   6.065  0.00  0.00     0.092 C 
ATOM     28  C2  BDP d1178      14.018 -11.148   4.685  0.00  0.00     0.110 C 
ATOM     29  O4  BDP d1178      13.583 -11.664   8.272  0.00  0.00    -0.348 OA
ATOM     30  O5  BDP d1178      11.838 -10.430   5.348  0.00  0.00    -0.340 OA
ATOM     31  C4  BDP d1178      13.509 -10.913   7.094  0.00  0.00     0.103 C 
ATOM     32  H   BDP d1178      12.144 -12.252   4.594  0.00  0.00     0.133 H 
ATOM     33  H   BDP d1178      16.219 -12.031   5.685  0.00  0.00     0.210 HD
ATOM     34  H   BDP d1178      14.542 -11.573   2.850  0.00  0.00     0.210 HD
ATOM     35  H   BDP d1178      11.598 -11.782   6.777  0.00  0.00     0.104 H 
ATOM     36  H   BDP d1178      14.077 -12.709   6.106  0.00  0.00     0.091 H 
ATOM     37  H   BDP d1178      14.303 -10.121   4.600  0.00  0.00     0.094 H 
ATOM     38  H   BDP d1178      13.891  -9.918   7.188  0.00  0.00     0.092 H 
ATOM     39  C6  NAG d1177       8.281  -8.998   0.956  0.00  0.00     0.043 C 
ATOM     40  O4  NAG d1177      10.196  -9.083   3.247  0.00  0.00    -0.390 OA
ATOM     41  C2  NAG d1177      11.061 -12.261   1.495  0.00  0.00     0.087 C 
ATOM     42  C3  NAG d1177      10.990 -11.224   2.607  0.00  0.00     0.093 C 
ATOM     43  C7  NAG d1177      12.547 -14.224   1.602  0.00  0.00     0.214 C 
ATOM     44  N2  NAG d1177      11.522 -13.517   2.069  0.00  0.00    -0.349 N 
ATOM     45  C8  NAG d1177      12.613 -15.639   2.091  0.00  0.00    -0.003 C 
ATOM     46  O7  NAG d1177      13.412 -13.783   0.838  0.00  0.00    -0.274 OA
ATOM     47  O6  NAG d1177       8.374  -8.942  -0.456  0.00  0.00    -0.398 OA
ATOM     48  C4  NAG d1177      10.334  -9.938   2.129  0.00  0.00     0.089 C 
ATOM     49  O5  NAG d1177       9.158 -11.169   0.429  0.00  0.00    -0.349 OA
ATOM     50  C5  NAG d1177       8.983 -10.248   1.485  0.00  0.00     0.089 C 
ATOM     51  C1  NAG d1177       9.689 -12.419   0.837  0.00  0.00     0.154 C 
ATOM     52  O3  NAG d1177      12.289 -10.917   3.058  0.00  0.00    -0.348 OA
ATOM     53  H   NAG d1177       8.744  -8.129   1.375  0.00  0.00     0.078 H 
ATOM     54  H   NAG d1177       7.248  -9.035   1.235  0.00  0.00     0.078 H 
ATOM     55  H   NAG d1177      11.070  -8.907   3.630  0.00  0.00     0.210 HD
ATOM     56  H   NAG d1177      11.747 -11.949   0.735  0.00  0.00     0.084 H 
ATOM     57  H   NAG d1177      10.404 -11.642   3.399  0.00  0.00     0.091 H 
ATOM     58  H   NAG d1177      11.042 -13.866   2.855  0.00  0.00     0.163 HD
ATOM     59  H   NAG d1177      11.783 -15.832   2.738  0.00  0.00     0.040 H 
ATOM     60  H   NAG d1177      13.526 -15.789   2.628  0.00  0.00     0.040 H 
ATOM     61  H   NAG d1177      12.576 -16.307   1.255  0.00  0.00     0.040 H 
ATOM     62  H   NAG d1177       9.308  -8.909  -0.718  0.00  0.00     0.209 HD
ATOM     63  H   NAG d1177      10.933  -9.454   1.385  0.00  0.00     0.091 H 
ATOM     64  H   NAG d1177       8.361 -10.666   2.249  0.00  0.00     0.090 H 
ATOM     65  H   NAG d1177       8.994 -12.815   1.547  0.00  0.00     0.132 H 
ATOM     66  C6  NAG d1175       5.065 -20.791  -2.535  0.00  0.00     0.043 C 
ATOM     67  O3  NAG d1175       6.070 -16.043  -3.281  0.00  0.00    -0.348 OA
ATOM     68  C2  NAG d1175       5.372 -17.390  -5.134  0.00  0.00     0.087 C 
ATOM     69  O6  NAG d1175       5.002 -22.059  -3.146  0.00  0.00    -0.398 OA
ATOM     70  O1  NAG d1175       4.335 -18.845  -6.773  0.00  0.00    -0.369 OA
ATOM     71  C7  NAG d1175       5.173 -15.728  -6.915  0.00  0.00     0.214 C 
ATOM     72  N2  NAG d1175       5.937 -16.516  -6.157  0.00  0.00    -0.349 N 
ATOM     73  C5  NAG d1175       5.608 -19.799  -3.556  0.00  0.00     0.089 C 
ATOM     74  O5  NAG d1175       4.676 -19.631  -4.614  0.00  0.00    -0.349 OA
ATOM     75  C4  NAG d1175       5.939 -18.470  -2.873  0.00  0.00     0.089 C 
ATOM     76  O4  NAG d1175       7.038 -18.704  -2.012  0.00  0.00    -0.390 OA
ATOM     77  O7  NAG d1175       4.381 -14.903  -6.443  0.00  0.00    -0.274 OA
ATOM     78  C1  NAG d1175       5.201 -18.823  -5.655  0.00  0.00     0.151 C 
ATOM     79  C8  NAG d1175       5.337 -15.887  -8.402  0.00  0.00    -0.003 C 
ATOM     80  C3  NAG d1175       6.242 -17.333  -3.867  0.00  0.00     0.093 C 
ATOM     81  H   NAG d1175       4.087 -20.490  -2.222  0.00  0.00     0.078 H 
ATOM     82  H   NAG d1175       5.702 -20.824  -1.676  0.00  0.00     0.078 H 
ATOM     83  H   NAG d1175       4.391 -17.044  -4.882  0.00  0.00     0.084 H 
ATOM     84  H   NAG d1175       4.422 -22.015  -3.923  0.00  0.00     0.209 HD
ATOM     85  H   NAG d1175       4.703 -18.290  -7.478  0.00  0.00     0.212 HD
ATOM     86  H   NAG d1175       6.912 -16.507  -6.291  0.00  0.00     0.163 HD
ATOM     87  H   NAG d1175       6.514 -20.180  -3.979  0.00  0.00     0.090 H 
ATOM     88  H   NAG d1175       5.082 -18.136  -2.326  0.00  0.00     0.091 H 
ATOM     89  H   NAG d1175       7.799 -19.005  -2.534  0.00  0.00     0.210 HD
ATOM     90  H   NAG d1175       6.153 -19.204  -5.965  0.00  0.00     0.132 H 
ATOM     91  H   NAG d1175       6.064 -16.647  -8.601  0.00  0.00     0.040 H 
ATOM     92  H   NAG d1175       5.664 -14.961  -8.826  0.00  0.00     0.040 H 
ATOM     93  H   NAG d1175       4.400 -16.168  -8.836  0.00  0.00     0.040 H 
ATOM     94  H   NAG d1175       7.267 -17.482  -4.136  0.00  0.00     0.091 H 
ATOM     95  C4  NAG d1181      11.275 -13.131  21.725  0.00  0.00     0.089 C 
ATOM     96  C3  NAG d1181      11.616 -11.639  21.668  0.00  0.00     0.086 C 
ATOM     97  C6  NAG d1181      11.320 -15.343  20.496  0.00  0.00     0.043 C 
ATOM     98  C5  NAG d1181      11.866 -13.914  20.543  0.00  0.00     0.089 C 
ATOM     99  C7  NAG d1181      11.080  -8.687  19.991  0.00  0.00     0.214 C 
ATOM    100  C8  NAG d1181      10.297  -8.611  18.709  0.00  0.00    -0.003 C 
ATOM    101  N2  NAG d1181      11.900  -9.727  20.138  0.00  0.00    -0.349 N 
ATOM    102  O3  NAG d1181      10.828 -10.915  22.602  0.00  0.00    -0.391 OA
ATOM    103  C1  NAG d1181      12.054 -11.972  19.200  0.00  0.00     0.154 C 
ATOM    104  O6  NAG d1181      12.170 -16.161  19.719  0.00  0.00    -0.398 OA
ATOM    105  O5  NAG d1181      11.564 -13.287  19.308  0.00  0.00    -0.349 OA
ATOM    106  O7  NAG d1181      10.956  -7.822  20.862  0.00  0.00    -0.274 OA
ATOM    107  O4  NAG d1181      11.755 -13.671  22.935  0.00  0.00    -0.390 OA
ATOM    108  C2  NAG d1181      11.395 -11.087  20.257  0.00  0.00     0.087 C 
ATOM    109  H   NAG d1181      10.210 -13.222  21.666  0.00  0.00     0.091 H 
ATOM    110  H   NAG d1181      12.648 -11.521  21.922  0.00  0.00     0.090 H 
ATOM    111  H   NAG d1181      10.342 -15.335  20.061  0.00  0.00     0.078 H 
ATOM    112  H   NAG d1181      11.272 -15.733  21.491  0.00  0.00     0.078 H 
ATOM    113  H   NAG d1181      12.926 -13.934  20.690  0.00  0.00     0.090 H 
ATOM    114  H   NAG d1181      10.543  -9.449  18.091  0.00  0.00     0.040 H 
ATOM    115  H   NAG d1181      10.541  -7.704  18.196  0.00  0.00     0.040 H 
ATOM    116  H   NAG d1181       9.249  -8.626  18.929  0.00  0.00     0.040 H 
ATOM    117  H   NAG d1181      12.872  -9.572  20.167  0.00  0.00     0.163 HD
ATOM    118  H   NAG d1181       9.889 -11.016  22.380  0.00  0.00     0.210 HD
ATOM    119  H   NAG d1181      13.114 -12.014  19.340  0.00  0.00     0.132 H 
ATOM    120  H   NAG d1181      12.217 -15.812  18.816  0.00  0.00     0.209 HD
ATOM    121  H   NAG d1181      12.720 -13.579  22.970  0.00  0.00     0.210 HD
ATOM    122  H   NAG d1181      10.339 -11.081  20.086  0.00  0.00     0.084 H 
ATOM    123  C7  NAG d1179      11.545 -13.160  10.407  0.00  0.00     0.214 C 
ATOM    124  C1  NAG d1179      13.969 -10.921   9.441  0.00  0.00     0.154 C 
ATOM    125  C2  NAG d1179      13.531 -11.792  10.612  0.00  0.00     0.087 C 
ATOM    126  O5  NAG d1179      15.360 -10.691   9.506  0.00  0.00    -0.349 OA
ATOM    127  O7  NAG d1179      12.080 -14.208  10.766  0.00  0.00    -0.274 OA
ATOM    128  O4  NAG d1179      15.926 -10.346  13.098  0.00  0.00    -0.390 OA
ATOM    129  N2  NAG d1179      12.087 -11.961  10.614  0.00  0.00    -0.349 N 
ATOM    130  C8  NAG d1179      10.224 -13.209   9.702  0.00  0.00    -0.003 C 
ATOM    131  O3  NAG d1179      13.848 -12.343  12.912  0.00  0.00    -0.348 OA
ATOM    132  C4  NAG d1179      15.514 -10.954  11.892  0.00  0.00     0.089 C 
ATOM    133  C5  NAG d1179      15.769 -10.036  10.695  0.00  0.00     0.089 C 
ATOM    134  O6  NAG d1179      18.062 -10.786  10.456  0.00  0.00    -0.398 OA
ATOM    135  C3  NAG d1179      14.031 -11.303  11.970  0.00  0.00     0.093 C 
ATOM    136  C6  NAG d1179      17.239  -9.638  10.566  0.00  0.00     0.043 C 
ATOM    137  H   NAG d1179      13.517  -9.951   9.440  0.00  0.00     0.132 H 
ATOM    138  H   NAG d1179      13.997 -12.744  10.463  0.00  0.00     0.084 H 
ATOM    139  H   NAG d1179      15.753 -10.949  13.839  0.00  0.00     0.210 HD
ATOM    140  H   NAG d1179      11.504 -11.183  10.770  0.00  0.00     0.163 HD
ATOM    141  H   NAG d1179       9.910 -12.214   9.464  0.00  0.00     0.040 H 
ATOM    142  H   NAG d1179       9.498 -13.670  10.338  0.00  0.00     0.040 H 
ATOM    143  H   NAG d1179      10.321 -13.777   8.801  0.00  0.00     0.040 H 
ATOM    144  H   NAG d1179      16.086 -11.847  11.755  0.00  0.00     0.091 H 
ATOM    145  H   NAG d1179      15.203  -9.141  10.851  0.00  0.00     0.090 H 
ATOM    146  H   NAG d1179      18.989 -10.513  10.375  0.00  0.00     0.209 HD
ATOM    147  H   NAG d1179      13.486 -10.429  12.260  0.00  0.00     0.091 H 
ATOM    148  H   NAG d1179      17.529  -9.080  11.431  0.00  0.00     0.078 H 
ATOM    149  H   NAG d1179      17.358  -9.045   9.683  0.00  0.00     0.078 H 
ATOM    150  C6  BDP d1180      13.856  -9.685  16.820  0.00  0.00     0.206 C 
ATOM    151  O3  BDP d1180      11.781 -14.167  16.744  0.00  0.00    -0.390 OA
ATOM    152  C1  BDP d1180      13.054 -11.933  14.035  0.00  0.00     0.160 C 
ATOM    153  O2  BDP d1180      11.346 -13.567  13.810  0.00  0.00    -0.388 OA
ATOM    154  C3  BDP d1180      11.818 -12.931  16.061  0.00  0.00     0.092 C 
ATOM    155  O4  BDP d1180      11.766 -11.405  17.911  0.00  0.00    -0.348 OA
ATOM    156  O5  BDP d1180      13.852 -11.255  14.980  0.00  0.00    -0.340 OA
ATOM    157  C5  BDP d1180      13.072 -10.742  16.040  0.00  0.00     0.152 C 
ATOM    158  O6B BDP d1180      15.004  -9.979  17.232  0.00  0.00    -0.646 OA
ATOM    159  O6A BDP d1180      13.307  -8.570  16.993  0.00  0.00    -0.646 OA
ATOM    160  C2  BDP d1180      12.399 -13.165  14.660  0.00  0.00     0.110 C 
ATOM    161  C4  BDP d1180      12.603 -11.916  16.897  0.00  0.00     0.103 C 
ATOM    162  H   BDP d1180      11.285 -14.813  16.217  0.00  0.00     0.210 HD
ATOM    163  H   BDP d1180      12.291 -11.259  13.706  0.00  0.00     0.133 H 
ATOM    164  H   BDP d1180      11.692 -13.721  12.917  0.00  0.00     0.210 HD
ATOM    165  H   BDP d1180      10.839 -12.519  15.930  0.00  0.00     0.091 H 
ATOM    166  H   BDP d1180      12.203 -10.237  15.673  0.00  0.00     0.104 H 
ATOM    167  H   BDP d1180      13.164 -13.904  14.769  0.00  0.00     0.094 H 
ATOM    168  H   BDP d1180      13.455 -12.414  17.310  0.00  0.00     0.092 H 
ENDROOT
TORSDOF 43
ENDMDL
MODEL 13
REMARK VINA RESULT:      -7.7      3.921     19.295
REMARK  0 active torsions:
REMARK  status: ('A' for Active; 'I' for Inactive)
REMARK       I    between atoms: C1_1  and  O3_15 
REMARK       I    between atoms: C1_2  and  O3_93 
REMARK       I    between atoms: C6_3  and  C5_89 
REMARK       I    between atoms: C6_3  and  O6_76 
REMARK       I    between atoms: O3_4  and  C3_22 
REMARK       I    between atoms: C6_5  and  C5_48 
REMARK       I    between atoms: C6_5  and  O6_31 
REMARK       I    between atoms: C4_6  and  O4_74 
REMARK       I    between atoms: C7_7  and  C8_62 
REMARK       I    between atoms: C7_7  and  N2_60 
REMARK       I    between atoms: C6_8  and  C5_52 
REMARK       I    between atoms: C3_9  and  O3_38 
REMARK       I    between atoms: C1_10  and  O4_75 
REMARK       I    between atoms: C6_12  and  C5_51 
REMARK       I    between atoms: O3_13  and  C3_42 
REMARK       I    between atoms: O4_14  and  C4_84 
REMARK       I    between atoms: O3_15  and  C3_86 
REMARK       I    between atoms: C6_16  and  C5_23 
REMARK       I    between atoms: C6_16  and  O6_58 
REMARK       I    between atoms: C1_17  and  O3_63 
REMARK       I    between atoms: C2_18  and  N2_60 
REMARK       I    between atoms: C2_19  and  N2_53 
REMARK       I    between atoms: O2_20  and  C2_66 
REMARK       I    between atoms: C3_25  and  O3_93 
REMARK       I    between atoms: C7_26  and  C8_32 
REMARK       I    between atoms: C7_26  and  N2_37 
REMARK       I    between atoms: C2_28  and  N2_44 
REMARK       I    between atoms: C7_29  and  C8_54 
REMARK       I    between atoms: C7_29  and  N2_53 
REMARK       I    between atoms: O1_33  and  C1_80 
REMARK       I    between atoms: O4_34  and  C4_40 
REMARK       I    between atoms: O4_34  and  C1_92 
REMARK       I    between atoms: C7_36  and  C8_81 
REMARK       I    between atoms: C7_36  and  N2_44 
REMARK       I    between atoms: N2_37  and  C2_83 
REMARK       I    between atoms: O3_39  and  C3_61 
REMARK       I    between atoms: C1_41  and  O4_46 
REMARK       I    between atoms: O2_43  and  C2_73 
REMARK       I    between atoms: C6_45  and  C5_87 
REMARK       I    between atoms: O4_46  and  C4_67 
REMARK       I    between atoms: C4_50  and  O4_65 
REMARK       I    between atoms: C2_55  and  O2_82 
REMARK       I    between atoms: O4_57  and  C4_71 
REMARK       I    between atoms: O3_63  and  C3_85 
REMARK       I    between atoms: O4_75  and  C4_91 
REMARK       I    between atoms: C5_77  and  C6_90 
REMARK       I    between atoms: O6_79  and  C6_90 
ROOT
ATOM      1  C1  BDP d1176      15.049 -13.567  -4.414  0.00  0.00     0.160 C 
ATOM      2  O3  BDP d1176      16.191 -10.478  -2.590  0.00  0.00    -0.390 OA
ATOM      3  O5  BDP d1176      14.166 -13.842  -3.364  0.00  0.00    -0.340 OA
ATOM      4  O6A BDP d1176      12.660 -13.907  -1.111  0.00  0.00    -0.646 OA
ATOM      5  C3  BDP d1176      16.111 -11.876  -2.777  0.00  0.00     0.092 C 
ATOM      6  O4  BDP d1176      15.944 -12.543  -0.490  0.00  0.00    -0.348 OA
ATOM      7  C4  BDP d1176      15.215 -12.473  -1.701  0.00  0.00     0.103 C 
ATOM      8  C6  BDP d1176      13.776 -14.462  -1.146  0.00  0.00     0.206 C 
ATOM      9  C2  BDP d1176      15.685 -12.186  -4.210  0.00  0.00     0.110 C 
ATOM     10  O6B BDP d1176      14.126 -15.448  -0.465  0.00  0.00    -0.646 OA
ATOM     11  O2  BDP d1176      16.858 -12.113  -4.985  0.00  0.00    -0.388 OA
ATOM     12  C5  BDP d1176      14.784 -13.875  -2.110  0.00  0.00     0.152 C 
ATOM     13  H   BDP d1176      15.837 -14.290  -4.443  0.00  0.00     0.133 H 
ATOM     14  H   BDP d1176      16.762 -10.093  -3.274  0.00  0.00     0.210 HD
ATOM     15  H   BDP d1176      17.067 -12.342  -2.659  0.00  0.00     0.091 H 
ATOM     16  H   BDP d1176      14.347 -11.861  -1.574  0.00  0.00     0.092 H 
ATOM     17  H   BDP d1176      14.927 -11.484  -4.488  0.00  0.00     0.094 H 
ATOM     18  H   BDP d1176      17.493 -12.777  -4.673  0.00  0.00     0.210 HD
ATOM     19  H   BDP d1176      15.671 -14.474  -2.120  0.00  0.00     0.104 H 
ATOM     20  C1  BDP d1178      15.580 -11.466   5.198  0.00  0.00     0.160 C 
ATOM     21  C6  BDP d1178      13.260  -9.445   7.304  0.00  0.00     0.206 C 
ATOM     22  O6B BDP d1178      12.091  -9.634   7.716  0.00  0.00    -0.646 OA
ATOM     23  O6A BDP d1178      13.854  -8.339   7.335  0.00  0.00    -0.646 OA
ATOM     24  O3  BDP d1178      16.419 -12.933   8.521  0.00  0.00    -0.390 OA
ATOM     25  O2  BDP d1178      17.280 -13.044   5.855  0.00  0.00    -0.388 OA
ATOM     26  C5  BDP d1178      13.987 -10.676   6.758  0.00  0.00     0.152 C 
ATOM     27  C3  BDP d1178      15.620 -12.482   7.451  0.00  0.00     0.092 C 
ATOM     28  C2  BDP d1178      16.479 -11.985   6.315  0.00  0.00     0.110 C 
ATOM     29  O4  BDP d1178      13.719 -11.984   8.704  0.00  0.00    -0.348 OA
ATOM     30  O5  BDP d1178      14.854 -10.355   5.675  0.00  0.00    -0.340 OA
ATOM     31  C4  BDP d1178      14.697 -11.368   7.917  0.00  0.00     0.103 C 
ATOM     32  H   BDP d1178      14.853 -12.185   4.881  0.00  0.00     0.133 H 
ATOM     33  H   BDP d1178      17.002 -13.643   8.212  0.00  0.00     0.210 HD
ATOM     34  H   BDP d1178      17.836 -12.735   5.123  0.00  0.00     0.210 HD
ATOM     35  H   BDP d1178      13.279 -11.358   6.336  0.00  0.00     0.104 H 
ATOM     36  H   BDP d1178      15.032 -13.305   7.104  0.00  0.00     0.091 H 
ATOM     37  H   BDP d1178      17.112 -11.188   6.645  0.00  0.00     0.094 H 
ATOM     38  H   BDP d1178      15.270 -10.627   8.434  0.00  0.00     0.092 H 
ATOM     39  C6  NAG d1177      15.767  -7.886   0.473  0.00  0.00     0.043 C 
ATOM     40  O4  NAG d1177      15.580  -8.603   3.367  0.00  0.00    -0.390 OA
ATOM     41  C2  NAG d1177      16.080 -11.971   1.843  0.00  0.00     0.087 C 
ATOM     42  C3  NAG d1177      15.717 -10.920   2.883  0.00  0.00     0.093 C 
ATOM     43  C7  NAG d1177      16.280 -14.366   2.388  0.00  0.00     0.214 C 
ATOM     44  N2  NAG d1177      15.555 -13.255   2.287  0.00  0.00    -0.349 N 
ATOM     45  C8  NAG d1177      15.482 -15.631   2.495  0.00  0.00    -0.003 C 
ATOM     46  O7  NAG d1177      17.514 -14.399   2.414  0.00  0.00    -0.274 OA
ATOM     47  O6  NAG d1177      16.745  -7.985  -0.546  0.00  0.00    -0.398 OA
ATOM     48  C4  NAG d1177      16.060  -9.519   2.402  0.00  0.00     0.089 C 
ATOM     49  O5  NAG d1177      15.878 -10.257   0.119  0.00  0.00    -0.349 OA
ATOM     50  C5  NAG d1177      15.437  -9.271   1.028  0.00  0.00     0.089 C 
ATOM     51  C1  NAG d1177      15.509 -11.579   0.479  0.00  0.00     0.154 C 
ATOM     52  O3  NAG d1177      16.427 -11.164   4.076  0.00  0.00    -0.348 OA
ATOM     53  H   NAG d1177      16.142  -7.269   1.262  0.00  0.00     0.078 H 
ATOM     54  H   NAG d1177      14.878  -7.456   0.061  0.00  0.00     0.078 H 
ATOM     55  H   NAG d1177      15.995  -8.789   4.223  0.00  0.00     0.210 HD
ATOM     56  H   NAG d1177      17.142 -12.043   1.737  0.00  0.00     0.084 H 
ATOM     57  H   NAG d1177      14.662 -10.984   3.050  0.00  0.00     0.091 H 
ATOM     58  H   NAG d1177      14.602 -13.303   2.529  0.00  0.00     0.163 HD
ATOM     59  H   NAG d1177      14.439 -15.400   2.454  0.00  0.00     0.040 H 
ATOM     60  H   NAG d1177      15.703 -16.115   3.424  0.00  0.00     0.040 H 
ATOM     61  H   NAG d1177      15.735 -16.282   1.685  0.00  0.00     0.040 H 
ATOM     62  H   NAG d1177      17.555  -8.376  -0.181  0.00  0.00     0.209 HD
ATOM     63  H   NAG d1177      17.118  -9.397   2.293  0.00  0.00     0.091 H 
ATOM     64  H   NAG d1177      14.376  -9.322   1.152  0.00  0.00     0.090 H 
ATOM     65  H   NAG d1177      14.440 -11.582   0.523  0.00  0.00     0.132 H 
ATOM     66  C6  NAG d1175      11.368 -17.403  -6.716  0.00  0.00     0.043 C 
ATOM     67  O3  NAG d1175      14.305 -13.615  -5.652  0.00  0.00    -0.348 OA
ATOM     68  C2  NAG d1175      14.500 -14.675  -7.792  0.00  0.00     0.087 C 
ATOM     69  O6  NAG d1175      11.236 -18.566  -7.500  0.00  0.00    -0.398 OA
ATOM     70  O1  NAG d1175      14.289 -15.669  -9.992  0.00  0.00    -0.369 OA
ATOM     71  C7  NAG d1175      16.118 -13.231  -8.920  0.00  0.00     0.214 C 
ATOM     72  N2  NAG d1175      15.859 -14.208  -8.049  0.00  0.00    -0.349 N 
ATOM     73  C5  NAG d1175      12.755 -16.822  -6.960  0.00  0.00     0.089 C 
ATOM     74  O5  NAG d1175      12.858 -16.355  -8.297  0.00  0.00    -0.349 OA
ATOM     75  C4  NAG d1175      13.046 -15.714  -5.946  0.00  0.00     0.089 C 
ATOM     76  O4  NAG d1175      13.157 -16.327  -4.675  0.00  0.00    -0.390 OA
ATOM     77  O7  NAG d1175      15.594 -12.113  -8.851  0.00  0.00    -0.274 OA
ATOM     78  C1  NAG d1175      14.176 -15.933  -8.607  0.00  0.00     0.151 C 
ATOM     79  C8  NAG d1175      17.111 -13.561 -10.001  0.00  0.00    -0.003 C 
ATOM     80  C3  NAG d1175      14.308 -14.896  -6.281  0.00  0.00     0.093 C 
ATOM     81  H   NAG d1175      10.621 -16.690  -6.996  0.00  0.00     0.078 H 
ATOM     82  H   NAG d1175      11.243 -17.639  -5.679  0.00  0.00     0.078 H 
ATOM     83  H   NAG d1175      13.807 -13.923  -8.110  0.00  0.00     0.084 H 
ATOM     84  H   NAG d1175      11.352 -18.340  -8.437  0.00  0.00     0.209 HD
ATOM     85  H   NAG d1175      15.193 -15.382 -10.194  0.00  0.00     0.212 HD
ATOM     86  H   NAG d1175      16.606 -14.628  -7.566  0.00  0.00     0.163 HD
ATOM     87  H   NAG d1175      13.492 -17.586  -6.825  0.00  0.00     0.090 H 
ATOM     88  H   NAG d1175      12.246 -15.003  -5.965  0.00  0.00     0.091 H 
ATOM     89  H   NAG d1175      13.888 -16.965  -4.686  0.00  0.00     0.210 HD
ATOM     90  H   NAG d1175      14.872 -16.707  -8.358  0.00  0.00     0.132 H 
ATOM     91  H   NAG d1175      17.443 -14.571  -9.884  0.00  0.00     0.040 H 
ATOM     92  H   NAG d1175      17.949 -12.900  -9.929  0.00  0.00     0.040 H 
ATOM     93  H   NAG d1175      16.647 -13.447 -10.958  0.00  0.00     0.040 H 
ATOM     94  H   NAG d1175      15.115 -15.490  -5.907  0.00  0.00     0.091 H 
ATOM     95  C4  NAG d1181       3.088 -11.270  17.359  0.00  0.00     0.089 C 
ATOM     96  C3  NAG d1181       3.915 -10.076  17.845  0.00  0.00     0.086 C 
ATOM     97  C6  NAG d1181       3.064 -13.377  15.957  0.00  0.00     0.043 C 
ATOM     98  C5  NAG d1181       3.941 -12.320  16.633  0.00  0.00     0.089 C 
ATOM     99  C7  NAG d1181       5.724  -7.319  16.876  0.00  0.00     0.214 C 
ATOM    100  C8  NAG d1181       6.035  -7.016  15.436  0.00  0.00    -0.003 C 
ATOM    101  N2  NAG d1181       5.795  -8.596  17.255  0.00  0.00    -0.349 N 
ATOM    102  O3  NAG d1181       3.063  -9.015  18.250  0.00  0.00    -0.391 OA
ATOM    103  C1  NAG d1181       5.649 -10.756  16.135  0.00  0.00     0.154 C 
ATOM    104  O6  NAG d1181       3.824 -14.538  15.690  0.00  0.00    -0.398 OA
ATOM    105  O5  NAG d1181       4.755 -11.722  15.638  0.00  0.00    -0.349 OA
ATOM    106  O7  NAG d1181       5.415  -6.419  17.661  0.00  0.00    -0.274 OA
ATOM    107  O4  NAG d1181       2.443 -11.867  18.462  0.00  0.00    -0.390 OA
ATOM    108  C2  NAG d1181       4.867  -9.595  16.746  0.00  0.00     0.087 C 
ATOM    109  H   NAG d1181       2.370 -10.902  16.656  0.00  0.00     0.091 H 
ATOM    110  H   NAG d1181       4.497 -10.392  18.685  0.00  0.00     0.090 H 
ATOM    111  H   NAG d1181       2.681 -12.985  15.038  0.00  0.00     0.078 H 
ATOM    112  H   NAG d1181       2.255 -13.630  16.610  0.00  0.00     0.078 H 
ATOM    113  H   NAG d1181       4.557 -12.780  17.377  0.00  0.00     0.090 H 
ATOM    114  H   NAG d1181       6.278  -7.924  14.925  0.00  0.00     0.040 H 
ATOM    115  H   NAG d1181       6.866  -6.344  15.385  0.00  0.00     0.040 H 
ATOM    116  H   NAG d1181       5.181  -6.565  14.974  0.00  0.00     0.040 H 
ATOM    117  H   NAG d1181       6.493  -8.869  17.893  0.00  0.00     0.163 HD
ATOM    118  H   NAG d1181       2.531  -8.721  17.494  0.00  0.00     0.210 HD
ATOM    119  H   NAG d1181       6.262 -11.237  16.869  0.00  0.00     0.132 H 
ATOM    120  H   NAG d1181       4.559 -14.314  15.099  0.00  0.00     0.209 HD
ATOM    121  H   NAG d1181       3.108 -12.194  19.087  0.00  0.00     0.210 HD
ATOM    122  H   NAG d1181       4.262  -9.152  15.983  0.00  0.00     0.084 H 
ATOM    123  C7  NAG d1179      10.426 -12.294   8.800  0.00  0.00     0.214 C 
ATOM    124  C1  NAG d1179      13.519 -11.389   9.997  0.00  0.00     0.154 C 
ATOM    125  C2  NAG d1179      12.154 -11.894  10.447  0.00  0.00     0.087 C 
ATOM    126  O5  NAG d1179      14.505 -11.771  10.932  0.00  0.00    -0.349 OA
ATOM    127  O7  NAG d1179      10.166 -13.438   9.168  0.00  0.00    -0.274 OA
ATOM    128  O4  NAG d1179      12.743 -11.423  14.112  0.00  0.00    -0.390 OA
ATOM    129  N2  NAG d1179      11.112 -11.429   9.545  0.00  0.00    -0.349 N 
ATOM    130  C8  NAG d1179       9.960 -11.827   7.454  0.00  0.00    -0.003 C 
ATOM    131  O3  NAG d1179      10.705 -12.348  12.288  0.00  0.00    -0.348 OA
ATOM    132  C4  NAG d1179      13.000 -11.888  12.804  0.00  0.00     0.089 C 
ATOM    133  C5  NAG d1179      14.276 -11.264  12.235  0.00  0.00     0.089 C 
ATOM    134  O6  NAG d1179      15.696 -12.938  13.263  0.00  0.00    -0.398 OA
ATOM    135  C3  NAG d1179      11.817 -11.562  11.899  0.00  0.00     0.093 C 
ATOM    136  C6  NAG d1179      15.502 -11.545  13.104  0.00  0.00     0.043 C 
ATOM    137  H   NAG d1179      13.579 -10.322   9.937  0.00  0.00     0.132 H 
ATOM    138  H   NAG d1179      12.205 -12.963  10.404  0.00  0.00     0.084 H 
ATOM    139  H   NAG d1179      11.931 -11.834  14.448  0.00  0.00     0.210 HD
ATOM    140  H   NAG d1179      10.912 -10.467   9.485  0.00  0.00     0.163 HD
ATOM    141  H   NAG d1179      10.273 -10.816   7.300  0.00  0.00     0.040 H 
ATOM    142  H   NAG d1179       8.893 -11.883   7.408  0.00  0.00     0.040 H 
ATOM    143  H   NAG d1179      10.383 -12.451   6.695  0.00  0.00     0.040 H 
ATOM    144  H   NAG d1179      13.138 -12.948  12.847  0.00  0.00     0.091 H 
ATOM    145  H   NAG d1179      14.131 -10.203  12.211  0.00  0.00     0.090 H 
ATOM    146  H   NAG d1179      16.477 -13.095  13.816  0.00  0.00     0.209 HD
ATOM    147  H   NAG d1179      11.593 -10.520  11.986  0.00  0.00     0.091 H 
ATOM    148  H   NAG d1179      15.359 -11.098  14.066  0.00  0.00     0.078 H 
ATOM    149  H   NAG d1179      16.364 -11.130  12.625  0.00  0.00     0.078 H 
ATOM    150  C6  BDP d1180       9.235  -9.652  15.881  0.00  0.00     0.206 C 
ATOM    151  O3  BDP d1180       6.194 -12.808  13.602  0.00  0.00    -0.390 OA
ATOM    152  C1  BDP d1180       9.611 -11.551  12.766  0.00  0.00     0.160 C 
ATOM    153  O2  BDP d1180       7.983 -12.310  11.212  0.00  0.00    -0.388 OA
ATOM    154  C3  BDP d1180       7.116 -11.763  13.367  0.00  0.00     0.092 C 
ATOM    155  O4  BDP d1180       6.484 -10.223  15.094  0.00  0.00    -0.348 OA
ATOM    156  O5  BDP d1180       9.807 -11.208  14.119  0.00  0.00    -0.340 OA
ATOM    157  C5  BDP d1180       8.801 -10.330  14.580  0.00  0.00     0.152 C 
ATOM    158  O6B BDP d1180       9.641 -10.377  16.823  0.00  0.00    -0.646 OA
ATOM    159  O6A BDP d1180       9.173  -8.400  15.929  0.00  0.00    -0.646 OA
ATOM    160  C2  BDP d1180       8.309 -12.332  12.586  0.00  0.00     0.110 C 
ATOM    161  C4  BDP d1180       7.500 -11.120  14.703  0.00  0.00     0.103 C 
ATOM    162  H   BDP d1180       5.949 -13.218  12.757  0.00  0.00     0.210 HD
ATOM    163  H   BDP d1180       9.556 -10.643  12.202  0.00  0.00     0.133 H 
ATOM    164  H   BDP d1180       8.725 -12.666  10.698  0.00  0.00     0.210 HD
ATOM    165  H   BDP d1180       6.692 -10.984  12.769  0.00  0.00     0.091 H 
ATOM    166  H   BDP d1180       8.636  -9.532  13.886  0.00  0.00     0.104 H 
ATOM    167  H   BDP d1180       8.480 -13.316  12.967  0.00  0.00     0.094 H 
ATOM    168  H   BDP d1180       7.627 -11.901  15.423  0.00  0.00     0.092 H 
ENDROOT
TORSDOF 43
ENDMDL
MODEL 14
REMARK VINA RESULT:      -7.6      5.215      7.854
REMARK  0 active torsions:
REMARK  status: ('A' for Active; 'I' for Inactive)
REMARK       I    between atoms: C1_1  and  O3_15 
REMARK       I    between atoms: C1_2  and  O3_93 
REMARK       I    between atoms: C6_3  and  C5_89 
REMARK       I    between atoms: C6_3  and  O6_76 
REMARK       I    between atoms: O3_4  and  C3_22 
REMARK       I    between atoms: C6_5  and  C5_48 
REMARK       I    between atoms: C6_5  and  O6_31 
REMARK       I    between atoms: C4_6  and  O4_74 
REMARK       I    between atoms: C7_7  and  C8_62 
REMARK       I    between atoms: C7_7  and  N2_60 
REMARK       I    between atoms: C6_8  and  C5_52 
REMARK       I    between atoms: C3_9  and  O3_38 
REMARK       I    between atoms: C1_10  and  O4_75 
REMARK       I    between atoms: C6_12  and  C5_51 
REMARK       I    between atoms: O3_13  and  C3_42 
REMARK       I    between atoms: O4_14  and  C4_84 
REMARK       I    between atoms: O3_15  and  C3_86 
REMARK       I    between atoms: C6_16  and  C5_23 
REMARK       I    between atoms: C6_16  and  O6_58 
REMARK       I    between atoms: C1_17  and  O3_63 
REMARK       I    between atoms: C2_18  and  N2_60 
REMARK       I    between atoms: C2_19  and  N2_53 
REMARK       I    between atoms: O2_20  and  C2_66 
REMARK       I    between atoms: C3_25  and  O3_93 
REMARK       I    between atoms: C7_26  and  C8_32 
REMARK       I    between atoms: C7_26  and  N2_37 
REMARK       I    between atoms: C2_28  and  N2_44 
REMARK       I    between atoms: C7_29  and  C8_54 
REMARK       I    between atoms: C7_29  and  N2_53 
REMARK       I    between atoms: O1_33  and  C1_80 
REMARK       I    between atoms: O4_34  and  C4_40 
REMARK       I    between atoms: O4_34  and  C1_92 
REMARK       I    between atoms: C7_36  and  C8_81 
REMARK       I    between atoms: C7_36  and  N2_44 
REMARK       I    between atoms: N2_37  and  C2_83 
REMARK       I    between atoms: O3_39  and  C3_61 
REMARK       I    between atoms: C1_41  and  O4_46 
REMARK       I    between atoms: O2_43  and  C2_73 
REMARK       I    between atoms: C6_45  and  C5_87 
REMARK       I    between atoms: O4_46  and  C4_67 
REMARK       I    between atoms: C4_50  and  O4_65 
REMARK       I    between atoms: C2_55  and  O2_82 
REMARK       I    between atoms: O4_57  and  C4_71 
REMARK       I    between atoms: O3_63  and  C3_85 
REMARK       I    between atoms: O4_75  and  C4_91 
REMARK       I    between atoms: C5_77  and  C6_90 
REMARK       I    between atoms: O6_79  and  C6_90 
ROOT
ATOM      1  C1  BDP d1176       2.692 -16.679  19.911  0.00  0.00     0.160 C 
ATOM      2  O3  BDP d1176       5.993 -18.324  19.153  0.00  0.00    -0.390 OA
ATOM      3  O5  BDP d1176       2.801 -15.948  18.723  0.00  0.00    -0.340 OA
ATOM      4  O6A BDP d1176       3.490 -14.807  16.363  0.00  0.00    -0.646 OA
ATOM      5  C3  BDP d1176       5.187 -17.228  19.536  0.00  0.00     0.092 C 
ATOM      6  O4  BDP d1176       6.379 -15.487  18.419  0.00  0.00    -0.348 OA
ATOM      7  C4  BDP d1176       5.162 -16.208  18.407  0.00  0.00     0.103 C 
ATOM      8  C6  BDP d1176       3.842 -14.294  17.443  0.00  0.00     0.206 C 
ATOM      9  C2  BDP d1176       3.813 -17.724  19.983  0.00  0.00     0.110 C 
ATOM     10  O6B BDP d1176       4.065 -13.081  17.641  0.00  0.00    -0.646 OA
ATOM     11  O2  BDP d1176       3.966 -18.126  21.323  0.00  0.00    -0.388 OA
ATOM     12  C5  BDP d1176       4.003 -15.242  18.613  0.00  0.00     0.152 C 
ATOM     13  H   BDP d1176       2.787 -16.036  20.760  0.00  0.00     0.133 H 
ATOM     14  H   BDP d1176       6.012 -18.977  19.871  0.00  0.00     0.210 HD
ATOM     15  H   BDP d1176       5.595 -16.721  20.385  0.00  0.00     0.091 H 
ATOM     16  H   BDP d1176       5.039 -16.710  17.470  0.00  0.00     0.092 H 
ATOM     17  H   BDP d1176       3.512 -18.506  19.318  0.00  0.00     0.094 H 
ATOM     18  H   BDP d1176       4.239 -17.365  21.859  0.00  0.00     0.210 HD
ATOM     19  H   BDP d1176       4.223 -14.690  19.502  0.00  0.00     0.104 H 
ATOM     20  C1  BDP d1178      10.608 -13.494  14.985  0.00  0.00     0.160 C 
ATOM     21  C6  BDP d1178      11.681 -14.254  11.497  0.00  0.00     0.206 C 
ATOM     22  O6B BDP d1178      11.226 -13.940  10.371  0.00  0.00    -0.646 OA
ATOM     23  O6A BDP d1178      12.535 -15.154  11.690  0.00  0.00    -0.646 OA
ATOM     24  O3  BDP d1178      12.723 -10.483  14.381  0.00  0.00    -0.390 OA
ATOM     25  O2  BDP d1178      11.305 -11.719  16.460  0.00  0.00    -0.388 OA
ATOM     26  C5  BDP d1178      11.154 -13.446  12.684  0.00  0.00     0.152 C 
ATOM     27  C3  BDP d1178      11.736 -11.462  14.144  0.00  0.00     0.092 C 
ATOM     28  C2  BDP d1178      11.653 -12.428  15.298  0.00  0.00     0.110 C 
ATOM     29  O4  BDP d1178      11.764 -11.337  11.817  0.00  0.00    -0.348 OA
ATOM     30  O5  BDP d1178      11.034 -14.235  13.863  0.00  0.00    -0.340 OA
ATOM     31  C4  BDP d1178      12.044 -12.221  12.865  0.00  0.00     0.103 C 
ATOM     32  H   BDP d1178       9.656 -13.079  14.727  0.00  0.00     0.133 H 
ATOM     33  H   BDP d1178      12.515 -10.006  15.199  0.00  0.00     0.210 HD
ATOM     34  H   BDP d1178      11.249 -12.333  17.209  0.00  0.00     0.210 HD
ATOM     35  H   BDP d1178      10.156 -13.116  12.484  0.00  0.00     0.104 H 
ATOM     36  H   BDP d1178      10.794 -10.966  14.041  0.00  0.00     0.091 H 
ATOM     37  H   BDP d1178      12.597 -12.908  15.453  0.00  0.00     0.094 H 
ATOM     38  H   BDP d1178      13.059 -12.558  12.890  0.00  0.00     0.092 H 
ATOM     39  C6  NAG d1177       9.051 -18.983  16.605  0.00  0.00     0.043 C 
ATOM     40  O4  NAG d1177      10.630 -16.887  15.178  0.00  0.00    -0.390 OA
ATOM     41  C2  NAG d1177       8.332 -14.766  17.213  0.00  0.00     0.087 C 
ATOM     42  C3  NAG d1177       9.325 -15.147  16.123  0.00  0.00     0.093 C 
ATOM     43  C7  NAG d1177       7.742 -12.427  17.712  0.00  0.00     0.214 C 
ATOM     44  N2  NAG d1177       7.767 -13.466  16.882  0.00  0.00    -0.349 N 
ATOM     45  C8  NAG d1177       6.798 -11.330  17.321  0.00  0.00    -0.003 C 
ATOM     46  O7  NAG d1177       8.437 -12.323  18.727  0.00  0.00    -0.274 OA
ATOM     47  O6  NAG d1177       8.847 -19.374  17.951  0.00  0.00    -0.398 OA
ATOM     48  C4  NAG d1177       9.817 -16.577  16.293  0.00  0.00     0.089 C 
ATOM     49  O5  NAG d1177       7.796 -17.131  17.477  0.00  0.00    -0.349 OA
ATOM     50  C5  NAG d1177       8.626 -17.529  16.405  0.00  0.00     0.089 C 
ATOM     51  C1  NAG d1177       7.243 -15.834  17.327  0.00  0.00     0.154 C 
ATOM     52  O3  NAG d1177      10.441 -14.288  16.172  0.00  0.00    -0.348 OA
ATOM     53  H   NAG d1177      10.087 -19.085  16.361  0.00  0.00     0.078 H 
ATOM     54  H   NAG d1177       8.460 -19.608  15.968  0.00  0.00     0.078 H 
ATOM     55  H   NAG d1177      11.374 -16.266  15.138  0.00  0.00     0.210 HD
ATOM     56  H   NAG d1177       8.822 -14.706  18.162  0.00  0.00     0.084 H 
ATOM     57  H   NAG d1177       8.821 -15.060  15.184  0.00  0.00     0.091 H 
ATOM     58  H   NAG d1177       7.379 -13.348  15.985  0.00  0.00     0.163 HD
ATOM     59  H   NAG d1177       6.288 -11.602  16.420  0.00  0.00     0.040 H 
ATOM     60  H   NAG d1177       7.348 -10.426  17.160  0.00  0.00     0.040 H 
ATOM     61  H   NAG d1177       6.083 -11.178  18.102  0.00  0.00     0.040 H 
ATOM     62  H   NAG d1177       9.378 -18.811  18.535  0.00  0.00     0.209 HD
ATOM     63  H   NAG d1177      10.389 -16.683  17.190  0.00  0.00     0.091 H 
ATOM     64  H   NAG d1177       8.093 -17.475  15.478  0.00  0.00     0.090 H 
ATOM     65  H   NAG d1177       6.672 -15.863  16.422  0.00  0.00     0.132 H 
ATOM     66  C6  NAG d1175      -2.702 -14.771  19.000  0.00  0.00     0.043 C 
ATOM     67  O3  NAG d1175       1.394 -17.314  19.931  0.00  0.00    -0.348 OA
ATOM     68  C2  NAG d1175      -0.460 -17.501  21.436  0.00  0.00     0.087 C 
ATOM     69  O6  NAG d1175      -3.846 -14.188  19.581  0.00  0.00    -0.398 OA
ATOM     70  O1  NAG d1175      -2.555 -17.796  22.620  0.00  0.00    -0.369 OA
ATOM     71  C7  NAG d1175       0.316 -19.236  22.973  0.00  0.00     0.214 C 
ATOM     72  N2  NAG d1175       0.333 -17.964  22.570  0.00  0.00    -0.349 N 
ATOM     73  C5  NAG d1175      -1.831 -15.324  20.122  0.00  0.00     0.089 C 
ATOM     74  O5  NAG d1175      -2.491 -16.408  20.760  0.00  0.00    -0.349 OA
ATOM     75  C4  NAG d1175      -0.464 -15.734  19.571  0.00  0.00     0.089 C 
ATOM     76  O4  NAG d1175       0.203 -14.549  19.179  0.00  0.00    -0.390 OA
ATOM     77  O7  NAG d1175       0.575 -20.184  22.222  0.00  0.00    -0.274 OA
ATOM     78  C1  NAG d1175      -1.776 -16.862  21.898  0.00  0.00     0.151 C 
ATOM     79  C8  NAG d1175      -0.026 -19.461  24.421  0.00  0.00    -0.003 C 
ATOM     80  C3  NAG d1175       0.380 -16.543  20.574  0.00  0.00     0.093 C 
ATOM     81  H   NAG d1175      -2.993 -15.564  18.343  0.00  0.00     0.078 H 
ATOM     82  H   NAG d1175      -2.160 -14.041  18.436  0.00  0.00     0.078 H 
ATOM     83  H   NAG d1175      -0.731 -18.343  20.832  0.00  0.00     0.084 H 
ATOM     84  H   NAG d1175      -4.328 -14.858  20.089  0.00  0.00     0.209 HD
ATOM     85  H   NAG d1175      -2.058 -18.100  23.396  0.00  0.00     0.212 HD
ATOM     86  H   NAG d1175       0.899 -17.318  23.051  0.00  0.00     0.163 HD
ATOM     87  H   NAG d1175      -1.669 -14.564  20.857  0.00  0.00     0.090 H 
ATOM     88  H   NAG d1175      -0.606 -16.393  18.739  0.00  0.00     0.091 H 
ATOM     89  H   NAG d1175       0.318 -13.972  19.951  0.00  0.00     0.210 HD
ATOM     90  H   NAG d1175      -1.563 -16.036  22.544  0.00  0.00     0.132 H 
ATOM     91  H   NAG d1175      -0.215 -18.520  24.893  0.00  0.00     0.040 H 
ATOM     92  H   NAG d1175       0.792 -19.947  24.909  0.00  0.00     0.040 H 
ATOM     93  H   NAG d1175      -0.899 -20.076  24.489  0.00  0.00     0.040 H 
ATOM     94  H   NAG d1175       0.825 -15.801  21.204  0.00  0.00     0.091 H 
ATOM     95  C4  NAG d1181      12.130  -8.024  -1.500  0.00  0.00     0.089 C 
ATOM     96  C3  NAG d1181      13.471  -8.753  -1.363  0.00  0.00     0.086 C 
ATOM     97  C6  NAG d1181      10.193  -6.945  -0.279  0.00  0.00     0.043 C 
ATOM     98  C5  NAG d1181      11.631  -7.457  -0.163  0.00  0.00     0.089 C 
ATOM     99  C7  NAG d1181      15.058 -11.518  -0.082  0.00  0.00     0.214 C 
ATOM    100  C8  NAG d1181      14.369 -12.505   0.822  0.00  0.00    -0.003 C 
ATOM    101  N2  NAG d1181      14.784 -10.228   0.111  0.00  0.00    -0.349 N 
ATOM    102  O3  NAG d1181      13.753  -9.495  -2.541  0.00  0.00    -0.391 OA
ATOM    103  C1  NAG d1181      12.950  -8.965   1.101  0.00  0.00     0.154 C 
ATOM    104  O6  NAG d1181       9.910  -6.052   0.777  0.00  0.00    -0.398 OA
ATOM    105  O5  NAG d1181      11.666  -8.440   0.858  0.00  0.00    -0.349 OA
ATOM    106  O7  NAG d1181      15.835 -11.899  -0.961  0.00  0.00    -0.274 OA
ATOM    107  O4  NAG d1181      12.264  -6.977  -2.435  0.00  0.00    -0.390 OA
ATOM    108  C2  NAG d1181      13.459  -9.682  -0.147  0.00  0.00     0.087 C 
ATOM    109  H   NAG d1181      11.406  -8.738  -1.833  0.00  0.00     0.091 H 
ATOM    110  H   NAG d1181      14.237  -8.020  -1.225  0.00  0.00     0.090 H 
ATOM    111  H   NAG d1181       9.518  -7.774  -0.233  0.00  0.00     0.078 H 
ATOM    112  H   NAG d1181      10.078  -6.433  -1.212  0.00  0.00     0.078 H 
ATOM    113  H   NAG d1181      12.285  -6.649   0.089  0.00  0.00     0.090 H 
ATOM    114  H   NAG d1181      13.741 -11.979   1.510  0.00  0.00     0.040 H 
ATOM    115  H   NAG d1181      15.103 -13.064   1.363  0.00  0.00     0.040 H 
ATOM    116  H   NAG d1181      13.773 -13.172   0.234  0.00  0.00     0.040 H 
ATOM    117  H   NAG d1181      15.495  -9.630   0.436  0.00  0.00     0.163 HD
ATOM    118  H   NAG d1181      13.062 -10.163  -2.675  0.00  0.00     0.210 HD
ATOM    119  H   NAG d1181      13.586  -8.144   1.361  0.00  0.00     0.132 H 
ATOM    120  H   NAG d1181      10.013  -6.511   1.625  0.00  0.00     0.209 HD
ATOM    121  H   NAG d1181      12.924  -6.341  -2.116  0.00  0.00     0.210 HD
ATOM    122  H   NAG d1181      12.790 -10.486  -0.376  0.00  0.00     0.084 H 
ATOM    123  C7  NAG d1179       9.844 -11.190   9.126  0.00  0.00     0.214 C 
ATOM    124  C1  NAG d1179      12.818 -11.190  10.850  0.00  0.00     0.154 C 
ATOM    125  C2  NAG d1179      12.136 -10.595   9.625  0.00  0.00     0.087 C 
ATOM    126  O5  NAG d1179      13.847 -10.331  11.293  0.00  0.00    -0.349 OA
ATOM    127  O7  NAG d1179       9.437 -10.035   9.017  0.00  0.00    -0.274 OA
ATOM    128  O4  NAG d1179      15.223  -9.078   8.150  0.00  0.00    -0.390 OA
ATOM    129  N2  NAG d1179      11.136 -11.510   9.099  0.00  0.00    -0.349 N 
ATOM    130  C8  NAG d1179       8.860 -12.306   9.299  0.00  0.00    -0.003 C 
ATOM    131  O3  NAG d1179      12.397  -9.331   7.618  0.00  0.00    -0.348 OA
ATOM    132  C4  NAG d1179      14.249  -9.342   9.138  0.00  0.00     0.089 C 
ATOM    133  C5  NAG d1179      14.852 -10.105  10.320  0.00  0.00     0.089 C 
ATOM    134  O6  NAG d1179      15.606  -8.071  11.402  0.00  0.00    -0.398 OA
ATOM    135  C3  NAG d1179      13.104 -10.147   8.532  0.00  0.00     0.093 C 
ATOM    136  C6  NAG d1179      16.016  -9.354  10.967  0.00  0.00     0.043 C 
ATOM    137  H   NAG d1179      13.291 -12.130  10.660  0.00  0.00     0.132 H 
ATOM    138  H   NAG d1179      11.653  -9.701   9.960  0.00  0.00     0.084 H 
ATOM    139  H   NAG d1179      14.815  -8.595   7.415  0.00  0.00     0.210 HD
ATOM    140  H   NAG d1179      11.417 -12.374   8.719  0.00  0.00     0.163 HD
ATOM    141  H   NAG d1179       9.384 -13.235   9.378  0.00  0.00     0.040 H 
ATOM    142  H   NAG d1179       8.204 -12.336   8.454  0.00  0.00     0.040 H 
ATOM    143  H   NAG d1179       8.288 -12.143  10.188  0.00  0.00     0.040 H 
ATOM    144  H   NAG d1179      13.878  -8.406   9.500  0.00  0.00     0.091 H 
ATOM    145  H   NAG d1179      15.233 -11.031   9.943  0.00  0.00     0.090 H 
ATOM    146  H   NAG d1179      16.357  -7.612  11.809  0.00  0.00     0.209 HD
ATOM    147  H   NAG d1179      13.510 -11.005   8.038  0.00  0.00     0.091 H 
ATOM    148  H   NAG d1179      16.805  -9.247  10.253  0.00  0.00     0.078 H 
ATOM    149  H   NAG d1179      16.354  -9.913  11.815  0.00  0.00     0.078 H 
ATOM    150  C6  BDP d1180      15.283  -9.858   3.912  0.00  0.00     0.206 C 
ATOM    151  O3  BDP d1180      10.571  -8.489   3.347  0.00  0.00    -0.390 OA
ATOM    152  C1  BDP d1180      12.474  -9.821   6.271  0.00  0.00     0.160 C 
ATOM    153  O2  BDP d1180      10.141 -10.056   5.899  0.00  0.00    -0.388 OA
ATOM    154  C3  BDP d1180      11.397  -9.456   3.961  0.00  0.00     0.092 C 
ATOM    155  O4  BDP d1180      12.935  -9.915   2.179  0.00  0.00    -0.348 OA
ATOM    156  O5  BDP d1180      13.679  -9.407   5.665  0.00  0.00    -0.340 OA
ATOM    157  C5  BDP d1180      13.830  -9.972   4.379  0.00  0.00     0.152 C 
ATOM    158  O6B BDP d1180      15.837  -8.733   3.958  0.00  0.00    -0.646 OA
ATOM    159  O6A BDP d1180      15.847 -10.908   3.519  0.00  0.00    -0.646 OA
ATOM    160  C2  BDP d1180      11.267  -9.312   5.483  0.00  0.00     0.110 C 
ATOM    161  C4  BDP d1180      12.830  -9.298   3.443  0.00  0.00     0.103 C 
ATOM    162  H   BDP d1180       9.662  -8.585   3.673  0.00  0.00     0.210 HD
ATOM    163  H   BDP d1180      12.462 -10.891   6.278  0.00  0.00     0.133 H 
ATOM    164  H   BDP d1180      10.040  -9.979   6.861  0.00  0.00     0.210 HD
ATOM    165  H   BDP d1180      11.096 -10.453   3.713  0.00  0.00     0.091 H 
ATOM    166  H   BDP d1180      13.617 -11.020   4.389  0.00  0.00     0.104 H 
ATOM    167  H   BDP d1180      11.183  -8.265   5.683  0.00  0.00     0.094 H 
ATOM    168  H   BDP d1180      13.048  -8.253   3.384  0.00  0.00     0.092 H 
ENDROOT
TORSDOF 43
ENDMDL
MODEL 15
REMARK VINA RESULT:      -7.4      6.895      8.229
REMARK  0 active torsions:
REMARK  status: ('A' for Active; 'I' for Inactive)
REMARK       I    between atoms: C1_1  and  O3_15 
REMARK       I    between atoms: C1_2  and  O3_93 
REMARK       I    between atoms: C6_3  and  C5_89 
REMARK       I    between atoms: C6_3  and  O6_76 
REMARK       I    between atoms: O3_4  and  C3_22 
REMARK       I    between atoms: C6_5  and  C5_48 
REMARK       I    between atoms: C6_5  and  O6_31 
REMARK       I    between atoms: C4_6  and  O4_74 
REMARK       I    between atoms: C7_7  and  C8_62 
REMARK       I    between atoms: C7_7  and  N2_60 
REMARK       I    between atoms: C6_8  and  C5_52 
REMARK       I    between atoms: C3_9  and  O3_38 
REMARK       I    between atoms: C1_10  and  O4_75 
REMARK       I    between atoms: C6_12  and  C5_51 
REMARK       I    between atoms: O3_13  and  C3_42 
REMARK       I    between atoms: O4_14  and  C4_84 
REMARK       I    between atoms: O3_15  and  C3_86 
REMARK       I    between atoms: C6_16  and  C5_23 
REMARK       I    between atoms: C6_16  and  O6_58 
REMARK       I    between atoms: C1_17  and  O3_63 
REMARK       I    between atoms: C2_18  and  N2_60 
REMARK       I    between atoms: C2_19  and  N2_53 
REMARK       I    between atoms: O2_20  and  C2_66 
REMARK       I    between atoms: C3_25  and  O3_93 
REMARK       I    between atoms: C7_26  and  C8_32 
REMARK       I    between atoms: C7_26  and  N2_37 
REMARK       I    between atoms: C2_28  and  N2_44 
REMARK       I    between atoms: C7_29  and  C8_54 
REMARK       I    between atoms: C7_29  and  N2_53 
REMARK       I    between atoms: O1_33  and  C1_80 
REMARK       I    between atoms: O4_34  and  C4_40 
REMARK       I    between atoms: O4_34  and  C1_92 
REMARK       I    between atoms: C7_36  and  C8_81 
REMARK       I    between atoms: C7_36  and  N2_44 
REMARK       I    between atoms: N2_37  and  C2_83 
REMARK       I    between atoms: O3_39  and  C3_61 
REMARK       I    between atoms: C1_41  and  O4_46 
REMARK       I    between atoms: O2_43  and  C2_73 
REMARK       I    between atoms: C6_45  and  C5_87 
REMARK       I    between atoms: O4_46  and  C4_67 
REMARK       I    between atoms: C4_50  and  O4_65 
REMARK       I    between atoms: C2_55  and  O2_82 
REMARK       I    between atoms: O4_57  and  C4_71 
REMARK       I    between atoms: O3_63  and  C3_85 
REMARK       I    between atoms: O4_75  and  C4_91 
REMARK       I    between atoms: C5_77  and  C6_90 
REMARK       I    between atoms: O6_79  and  C6_90 
ROOT
ATOM      1  C1  BDP d1176      15.520 -10.673  16.298  0.00  0.00     0.160 C 
ATOM      2  O3  BDP d1176      16.738 -13.667  14.367  0.00  0.00    -0.390 OA
ATOM      3  O5  BDP d1176      14.574 -10.430  15.295  0.00  0.00    -0.340 OA
ATOM      4  O6A BDP d1176      12.963 -10.411  13.116  0.00  0.00    -0.646 OA
ATOM      5  C3  BDP d1176      16.591 -12.278  14.583  0.00  0.00     0.092 C 
ATOM      6  O4  BDP d1176      16.282 -11.584  12.319  0.00  0.00    -0.348 OA
ATOM      7  C4  BDP d1176      15.616 -11.714  13.560  0.00  0.00     0.103 C 
ATOM      8  C6  BDP d1176      14.048  -9.797  13.109  0.00  0.00     0.206 C 
ATOM      9  C2  BDP d1176      16.218 -12.015  16.040  0.00  0.00     0.110 C 
ATOM     10  O6B BDP d1176      14.313  -8.782  12.430  0.00  0.00    -0.646 OA
ATOM     11  O2  BDP d1176      17.428 -12.036  16.758  0.00  0.00    -0.388 OA
ATOM     12  C5  BDP d1176      15.131 -10.343  14.015  0.00  0.00     0.152 C 
ATOM     13  H   BDP d1176      16.269  -9.910  16.304  0.00  0.00     0.133 H 
ATOM     14  H   BDP d1176      17.359 -14.031  15.016  0.00  0.00     0.210 HD
ATOM     15  H   BDP d1176      17.515 -11.760  14.429  0.00  0.00     0.091 H 
ATOM     16  H   BDP d1176      14.776 -12.369  13.462  0.00  0.00     0.092 H 
ATOM     17  H   BDP d1176      15.512 -12.761  16.339  0.00  0.00     0.094 H 
ATOM     18  H   BDP d1176      18.011 -11.334  16.429  0.00  0.00     0.210 HD
ATOM     19  H   BDP d1176      15.984  -9.698  13.995  0.00  0.00     0.104 H 
ATOM     20  C1  BDP d1178      15.709 -12.589   6.634  0.00  0.00     0.160 C 
ATOM     21  C6  BDP d1178      13.404 -14.698   4.601  0.00  0.00     0.206 C 
ATOM     22  O6B BDP d1178      12.208 -14.567   4.247  0.00  0.00    -0.646 OA
ATOM     23  O6A BDP d1178      14.054 -15.770   4.522  0.00  0.00    -0.646 OA
ATOM     24  O3  BDP d1178      16.312 -11.026   3.304  0.00  0.00    -0.390 OA
ATOM     25  O2  BDP d1178      17.289 -10.911   5.929  0.00  0.00    -0.388 OA
ATOM     26  C5  BDP d1178      14.089 -13.439   5.135  0.00  0.00     0.152 C 
ATOM     27  C3  BDP d1178      15.589 -11.537   4.401  0.00  0.00     0.092 C 
ATOM     28  C2  BDP d1178      16.525 -12.004   5.487  0.00  0.00     0.110 C 
ATOM     29  O4  BDP d1178      13.661 -12.117   3.228  0.00  0.00    -0.348 OA
ATOM     30  O5  BDP d1178      15.022 -13.730   6.170  0.00  0.00    -0.340 OA
ATOM     31  C4  BDP d1178      14.706 -12.691   3.958  0.00  0.00     0.103 C 
ATOM     32  H   BDP d1178      14.961 -11.915   6.998  0.00  0.00     0.133 H 
ATOM     33  H   BDP d1178      16.870 -10.290   3.599  0.00  0.00     0.210 HD
ATOM     34  H   BDP d1178      17.895 -11.201   6.628  0.00  0.00     0.210 HD
ATOM     35  H   BDP d1178      13.366 -12.803   5.602  0.00  0.00     0.104 H 
ATOM     36  H   BDP d1178      14.975 -10.752   4.789  0.00  0.00     0.091 H 
ATOM     37  H   BDP d1178      17.184 -12.760   5.114  0.00  0.00     0.094 H 
ATOM     38  H   BDP d1178      15.293 -13.392   3.401  0.00  0.00     0.092 H 
ATOM     39  C6  NAG d1177      16.309 -16.228  11.279  0.00  0.00     0.043 C 
ATOM     40  O4  NAG d1177      15.948 -15.477   8.411  0.00  0.00    -0.390 OA
ATOM     41  C2  NAG d1177      16.338 -12.111   9.972  0.00  0.00     0.087 C 
ATOM     42  C3  NAG d1177      15.984 -13.163   8.930  0.00  0.00     0.093 C 
ATOM     43  C7  NAG d1177      16.385  -9.701   9.462  0.00  0.00     0.214 C 
ATOM     44  N2  NAG d1177      15.726 -10.851   9.576  0.00  0.00    -0.349 N 
ATOM     45  C8  NAG d1177      15.517  -8.479   9.415  0.00  0.00    -0.003 C 
ATOM     46  O7  NAG d1177      17.613  -9.601   9.380  0.00  0.00    -0.274 OA
ATOM     47  O6  NAG d1177      17.327 -16.093  12.254  0.00  0.00    -0.398 OA
ATOM     48  C4  NAG d1177      16.423 -14.552   9.369  0.00  0.00     0.089 C 
ATOM     49  O5  NAG d1177      16.309 -13.861  11.671  0.00  0.00    -0.349 OA
ATOM     50  C5  NAG d1177      15.879 -14.855  10.765  0.00  0.00     0.089 C 
ATOM     51  C1  NAG d1177      15.854 -12.555  11.353  0.00  0.00     0.154 C 
ATOM     52  O3  NAG d1177      16.623 -12.862   7.710  0.00  0.00    -0.348 OA
ATOM     53  H   NAG d1177      16.678 -16.812  10.462  0.00  0.00     0.078 H 
ATOM     54  H   NAG d1177      15.464 -16.713  11.724  0.00  0.00     0.078 H 
ATOM     55  H   NAG d1177      16.312 -15.255   7.539  0.00  0.00     0.210 HD
ATOM     56  H   NAG d1177      17.399 -11.984  10.030  0.00  0.00     0.084 H 
ATOM     57  H   NAG d1177      14.921 -13.154   8.813  0.00  0.00     0.091 H 
ATOM     58  H   NAG d1177      14.762 -10.850   9.379  0.00  0.00     0.163 HD
ATOM     59  H   NAG d1177      14.490  -8.767   9.500  0.00  0.00     0.040 H 
ATOM     60  H   NAG d1177      15.668  -7.969   8.486  0.00  0.00     0.040 H 
ATOM     61  H   NAG d1177      15.772  -7.828  10.225  0.00  0.00     0.040 H 
ATOM     62  H   NAG d1177      18.097 -15.654  11.859  0.00  0.00     0.209 HD
ATOM     63  H   NAG d1177      17.490 -14.617   9.426  0.00  0.00     0.091 H 
ATOM     64  H   NAG d1177      14.812 -14.859  10.691  0.00  0.00     0.090 H 
ATOM     65  H   NAG d1177      14.786 -12.609  11.359  0.00  0.00     0.132 H 
ATOM     66  C6  NAG d1175      11.751  -7.079  18.837  0.00  0.00     0.043 C 
ATOM     67  O3  NAG d1175      14.833 -10.685  17.570  0.00  0.00    -0.348 OA
ATOM     68  C2  NAG d1175      15.071  -9.651  19.717  0.00  0.00     0.087 C 
ATOM     69  O6  NAG d1175      11.594  -5.938  19.648  0.00  0.00    -0.398 OA
ATOM     70  O1  NAG d1175      14.912  -8.705  21.943  0.00  0.00    -0.369 OA
ATOM     71  C7  NAG d1175      16.815 -11.023  20.743  0.00  0.00     0.214 C 
ATOM     72  N2  NAG d1175      16.464 -10.047  19.903  0.00  0.00    -0.349 N 
ATOM     73  C5  NAG d1175      13.178  -7.588  19.006  0.00  0.00     0.089 C 
ATOM     74  O5  NAG d1175      13.368  -8.071  20.328  0.00  0.00    -0.349 OA
ATOM     75  C4  NAG d1175      13.479  -8.663  17.959  0.00  0.00     0.089 C 
ATOM     76  O4  NAG d1175      13.497  -8.024  16.696  0.00  0.00    -0.390 OA
ATOM     77  O7  NAG d1175      16.349 -12.167  20.678  0.00  0.00    -0.274 OA
ATOM     78  C1  NAG d1175      14.719  -8.425  20.570  0.00  0.00     0.151 C 
ATOM     79  C8  NAG d1175      17.839 -10.657  21.783  0.00  0.00    -0.003 C 
ATOM     80  C3  NAG d1175      14.797  -9.416  18.221  0.00  0.00     0.093 C 
ATOM     81  H   NAG d1175      11.058  -7.836  19.138  0.00  0.00     0.078 H 
ATOM     82  H   NAG d1175      11.565  -6.834  17.812  0.00  0.00     0.078 H 
ATOM     83  H   NAG d1175      14.435 -10.444  20.053  0.00  0.00     0.084 H 
ATOM     84  H   NAG d1175      11.766  -6.173  20.574  0.00  0.00     0.209 HD
ATOM     85  H   NAG d1175      15.838  -8.946  22.097  0.00  0.00     0.212 HD
ATOM     86  H   NAG d1175      17.164  -9.580  19.394  0.00  0.00     0.163 HD
ATOM     87  H   NAG d1175      13.866  -6.784  18.852  0.00  0.00     0.090 H 
ATOM     88  H   NAG d1175      12.719  -9.416  18.003  0.00  0.00     0.091 H 
ATOM     89  H   NAG d1175      14.193  -7.348  16.686  0.00  0.00     0.210 HD
ATOM     90  H   NAG d1175      15.361  -7.611  20.303  0.00  0.00     0.132 H 
ATOM     91  H   NAG d1175      18.111  -9.629  21.669  0.00  0.00     0.040 H 
ATOM     92  H   NAG d1175      18.706 -11.270  21.660  0.00  0.00     0.040 H 
ATOM     93  H   NAG d1175      17.427 -10.812  22.758  0.00  0.00     0.040 H 
ATOM     94  H   NAG d1175      15.553  -8.774  17.821  0.00  0.00     0.091 H 
ATOM     95  C4  NAG d1181       2.687 -13.266  -4.940  0.00  0.00     0.089 C 
ATOM     96  C3  NAG d1181       3.554 -14.406  -5.485  0.00  0.00     0.086 C 
ATOM     97  C6  NAG d1181       2.618 -11.186  -3.500  0.00  0.00     0.043 C 
ATOM     98  C5  NAG d1181       3.517 -12.184  -4.234  0.00  0.00     0.089 C 
ATOM     99  C7  NAG d1181       5.550 -17.076  -4.652  0.00  0.00     0.214 C 
ATOM    100  C8  NAG d1181       5.944 -17.385  -3.233  0.00  0.00    -0.003 C 
ATOM    101  N2  NAG d1181       5.535 -15.792  -5.009  0.00  0.00    -0.349 N 
ATOM    102  O3  NAG d1181       2.741 -15.505  -5.870  0.00  0.00    -0.391 OA
ATOM    103  C1  NAG d1181       5.327 -13.661  -3.845  0.00  0.00     0.154 C 
ATOM    104  O6  NAG d1181       3.326  -9.991  -3.247  0.00  0.00    -0.398 OA
ATOM    105  O5  NAG d1181       4.407 -12.752  -3.289  0.00  0.00    -0.349 OA
ATOM    106  O7  NAG d1181       5.253 -17.979  -5.439  0.00  0.00    -0.274 OA
ATOM    107  O4  NAG d1181       1.961 -12.688  -6.000  0.00  0.00    -0.390 OA
ATOM    108  C2  NAG d1181       4.580 -14.852  -4.441  0.00  0.00     0.087 C 
ATOM    109  H   NAG d1181       2.025 -13.684  -4.211  0.00  0.00     0.091 H 
ATOM    110  H   NAG d1181       4.078 -14.046  -6.345  0.00  0.00     0.090 H 
ATOM    111  H   NAG d1181       2.300 -11.613  -2.572  0.00  0.00     0.078 H 
ATOM    112  H   NAG d1181       1.767 -10.967  -4.110  0.00  0.00     0.078 H 
ATOM    113  H   NAG d1181       4.072 -11.679  -4.998  0.00  0.00     0.090 H 
ATOM    114  H   NAG d1181       6.162 -16.473  -2.718  0.00  0.00     0.040 H 
ATOM    115  H   NAG d1181       6.811 -18.012  -3.233  0.00  0.00     0.040 H 
ATOM    116  H   NAG d1181       5.138 -17.889  -2.741  0.00  0.00     0.040 H 
ATOM    117  H   NAG d1181       6.187 -15.471  -5.674  0.00  0.00     0.163 HD
ATOM    118  H   NAG d1181       2.261 -15.839  -5.096  0.00  0.00     0.210 HD
ATOM    119  H   NAG d1181       5.879 -13.136  -4.597  0.00  0.00     0.132 H 
ATOM    120  H   NAG d1181       4.099 -10.184  -2.694  0.00  0.00     0.209 HD
ATOM    121  H   NAG d1181       2.578 -12.315  -6.649  0.00  0.00     0.210 HD
ATOM    122  H   NAG d1181       4.037 -15.340  -3.658  0.00  0.00     0.084 H 
ATOM    123  C7  NAG d1179      10.355 -11.984   3.290  0.00  0.00     0.214 C 
ATOM    124  C1  NAG d1179      13.432 -12.701   1.935  0.00  0.00     0.154 C 
ATOM    125  C2  NAG d1179      12.022 -12.263   1.558  0.00  0.00     0.087 C 
ATOM    126  O5  NAG d1179      14.351 -12.251   0.963  0.00  0.00    -0.349 OA
ATOM    127  O7  NAG d1179      10.018 -10.850   2.955  0.00  0.00    -0.274 OA
ATOM    128  O4  NAG d1179      12.463 -12.643  -2.139  0.00  0.00    -0.390 OA
ATOM    129  N2  NAG d1179      11.050 -12.798   2.497  0.00  0.00    -0.349 N 
ATOM    130  C8  NAG d1179       9.979 -12.496   4.646  0.00  0.00    -0.003 C 
ATOM    131  O3  NAG d1179      10.466 -11.859  -0.206  0.00  0.00    -0.348 OA
ATOM    132  C4  NAG d1179      12.756 -12.186  -0.835  0.00  0.00     0.089 C 
ATOM    133  C5  NAG d1179      14.088 -12.749  -0.337  0.00  0.00     0.089 C 
ATOM    134  O6  NAG d1179      15.367 -10.984  -1.399  0.00  0.00    -0.398 OA
ATOM    135  C3  NAG d1179      11.635 -12.589   0.117  0.00  0.00     0.093 C 
ATOM    136  C6  NAG d1179      15.255 -12.389  -1.257  0.00  0.00     0.043 C 
ATOM    137  H   NAG d1179      13.552 -13.764   1.972  0.00  0.00     0.132 H 
ATOM    138  H   NAG d1179      12.019 -11.194   1.618  0.00  0.00     0.084 H 
ATOM    139  H   NAG d1179      11.615 -12.271  -2.429  0.00  0.00     0.210 HD
ATOM    140  H   NAG d1179      10.904 -13.770   2.549  0.00  0.00     0.163 HD
ATOM    141  H   NAG d1179      10.351 -13.492   4.768  0.00  0.00     0.040 H 
ATOM    142  H   NAG d1179       8.913 -12.499   4.743  0.00  0.00     0.040 H 
ATOM    143  H   NAG d1179      10.403 -11.863   5.397  0.00  0.00     0.040 H 
ATOM    144  H   NAG d1179      12.835 -11.119  -0.865  0.00  0.00     0.091 H 
ATOM    145  H   NAG d1179      14.002 -13.816  -0.327  0.00  0.00     0.090 H 
ATOM    146  H   NAG d1179      16.112 -10.776  -1.984  0.00  0.00     0.209 HD
ATOM    147  H   NAG d1179      11.463 -13.641   0.021  0.00  0.00     0.091 H 
ATOM    148  H   NAG d1179      15.092 -12.826  -2.219  0.00  0.00     0.078 H 
ATOM    149  H   NAG d1179      16.160 -12.764  -0.826  0.00  0.00     0.078 H 
ATOM    150  C6  BDP d1180       8.975 -14.573  -3.777  0.00  0.00     0.206 C 
ATOM    151  O3  BDP d1180       5.881 -11.623  -1.302  0.00  0.00    -0.390 OA
ATOM    152  C1  BDP d1180       9.395 -12.706  -0.647  0.00  0.00     0.160 C 
ATOM    153  O2  BDP d1180       7.804 -12.061   0.993  0.00  0.00    -0.388 OA
ATOM    154  C3  BDP d1180       6.867 -12.620  -1.129  0.00  0.00     0.092 C 
ATOM    155  O4  BDP d1180       6.237 -14.164  -2.853  0.00  0.00    -0.348 OA
ATOM    156  O5  BDP d1180       9.546 -13.017  -2.015  0.00  0.00    -0.340 OA
ATOM    157  C5  BDP d1180       8.567 -13.941  -2.445  0.00  0.00     0.152 C 
ATOM    158  O6B BDP d1180       9.297 -13.813  -4.722  0.00  0.00    -0.646 OA
ATOM    159  O6A BDP d1180       8.978 -15.826  -3.845  0.00  0.00    -0.646 OA
ATOM    160  C2  BDP d1180       8.063 -12.000  -0.394  0.00  0.00     0.110 C 
ATOM    161  C4  BDP d1180       7.221 -13.220  -2.493  0.00  0.00     0.103 C 
ATOM    162  H   BDP d1180       5.654 -11.240  -0.440  0.00  0.00     0.210 HD
ATOM    163  H   BDP d1180       9.415 -13.624  -0.099  0.00  0.00     0.133 H 
ATOM    164  H   BDP d1180       8.549 -11.674   1.479  0.00  0.00     0.210 HD
ATOM    165  H   BDP d1180       6.514 -13.430  -0.527  0.00  0.00     0.091 H 
ATOM    166  H   BDP d1180       8.478 -14.757  -1.759  0.00  0.00     0.104 H 
ATOM    167  H   BDP d1180       8.163 -11.002  -0.764  0.00  0.00     0.094 H 
ATOM    168  H   BDP d1180       7.272 -12.422  -3.204  0.00  0.00     0.092 H 
ENDROOT
TORSDOF 43
ENDMDL
MODEL 16
REMARK VINA RESULT:      -7.4      5.397      7.124
REMARK  0 active torsions:
REMARK  status: ('A' for Active; 'I' for Inactive)
REMARK       I    between atoms: C1_1  and  O3_15 
REMARK       I    between atoms: C1_2  and  O3_93 
REMARK       I    between atoms: C6_3  and  C5_89 
REMARK       I    between atoms: C6_3  and  O6_76 
REMARK       I    between atoms: O3_4  and  C3_22 
REMARK       I    between atoms: C6_5  and  C5_48 
REMARK       I    between atoms: C6_5  and  O6_31 
REMARK       I    between atoms: C4_6  and  O4_74 
REMARK       I    between atoms: C7_7  and  C8_62 
REMARK       I    between atoms: C7_7  and  N2_60 
REMARK       I    between atoms: C6_8  and  C5_52 
REMARK       I    between atoms: C3_9  and  O3_38 
REMARK       I    between atoms: C1_10  and  O4_75 
REMARK       I    between atoms: C6_12  and  C5_51 
REMARK       I    between atoms: O3_13  and  C3_42 
REMARK       I    between atoms: O4_14  and  C4_84 
REMARK       I    between atoms: O3_15  and  C3_86 
REMARK       I    between atoms: C6_16  and  C5_23 
REMARK       I    between atoms: C6_16  and  O6_58 
REMARK       I    between atoms: C1_17  and  O3_63 
REMARK       I    between atoms: C2_18  and  N2_60 
REMARK       I    between atoms: C2_19  and  N2_53 
REMARK       I    between atoms: O2_20  and  C2_66 
REMARK       I    between atoms: C3_25  and  O3_93 
REMARK       I    between atoms: C7_26  and  C8_32 
REMARK       I    between atoms: C7_26  and  N2_37 
REMARK       I    between atoms: C2_28  and  N2_44 
REMARK       I    between atoms: C7_29  and  C8_54 
REMARK       I    between atoms: C7_29  and  N2_53 
REMARK       I    between atoms: O1_33  and  C1_80 
REMARK       I    between atoms: O4_34  and  C4_40 
REMARK       I    between atoms: O4_34  and  C1_92 
REMARK       I    between atoms: C7_36  and  C8_81 
REMARK       I    between atoms: C7_36  and  N2_44 
REMARK       I    between atoms: N2_37  and  C2_83 
REMARK       I    between atoms: O3_39  and  C3_61 
REMARK       I    between atoms: C1_41  and  O4_46 
REMARK       I    between atoms: O2_43  and  C2_73 
REMARK       I    between atoms: C6_45  and  C5_87 
REMARK       I    between atoms: O4_46  and  C4_67 
REMARK       I    between atoms: C4_50  and  O4_65 
REMARK       I    between atoms: C2_55  and  O2_82 
REMARK       I    between atoms: O4_57  and  C4_71 
REMARK       I    between atoms: O3_63  and  C3_85 
REMARK       I    between atoms: O4_75  and  C4_91 
REMARK       I    between atoms: C5_77  and  C6_90 
REMARK       I    between atoms: O6_79  and  C6_90 
ROOT
ATOM      1  C1  BDP d1176      14.515 -13.487  13.979  0.00  0.00     0.160 C 
ATOM      2  O3  BDP d1176      16.071 -11.558  11.145  0.00  0.00    -0.390 OA
ATOM      3  O5  BDP d1176      13.787 -14.238  13.048  0.00  0.00    -0.340 OA
ATOM      4  O6A BDP d1176      12.643 -15.377  10.871  0.00  0.00    -0.646 OA
ATOM      5  C3  BDP d1176      14.996 -11.911  11.991  0.00  0.00     0.092 C 
ATOM      6  O4  BDP d1176      13.229 -11.849  10.386  0.00  0.00    -0.348 OA
ATOM      7  C4  BDP d1176      13.984 -12.727  11.199  0.00  0.00     0.103 C 
ATOM      8  C6  BDP d1176      12.113 -14.395  11.426  0.00  0.00     0.206 C 
ATOM      9  C2  BDP d1176      15.527 -12.594  13.249  0.00  0.00     0.110 C 
ATOM     10  O6B BDP d1176      10.894 -14.127  11.435  0.00  0.00    -0.646 OA
ATOM     11  O2  BDP d1176      15.916 -11.557  14.116  0.00  0.00    -0.388 OA
ATOM     12  C5  BDP d1176      13.049 -13.455  12.156  0.00  0.00     0.152 C 
ATOM     13  H   BDP d1176      13.864 -12.853  14.542  0.00  0.00     0.133 H 
ATOM     14  H   BDP d1176      16.719 -11.037  11.646  0.00  0.00     0.210 HD
ATOM     15  H   BDP d1176      14.472 -11.045  12.339  0.00  0.00     0.091 H 
ATOM     16  H   BDP d1176      14.495 -13.444  10.592  0.00  0.00     0.092 H 
ATOM     17  H   BDP d1176      16.321 -13.250  12.959  0.00  0.00     0.094 H 
ATOM     18  H   BDP d1176      15.145 -11.010  14.332  0.00  0.00     0.210 HD
ATOM     19  H   BDP d1176      12.486 -12.699  12.662  0.00  0.00     0.104 H 
ATOM     20  C1  BDP d1178      11.140 -11.161   5.018  0.00  0.00     0.160 C 
ATOM     21  C6  BDP d1178      11.892 -12.745   1.729  0.00  0.00     0.206 C 
ATOM     22  O6B BDP d1178      11.598 -13.854   1.223  0.00  0.00    -0.646 OA
ATOM     23  O6A BDP d1178      12.767 -11.968   1.273  0.00  0.00    -0.646 OA
ATOM     24  O3  BDP d1178       8.076 -10.106   3.176  0.00  0.00    -0.390 OA
ATOM     25  O2  BDP d1178       9.338  -9.688   5.644  0.00  0.00    -0.388 OA
ATOM     26  C5  BDP d1178      11.092 -12.337   2.967  0.00  0.00     0.152 C 
ATOM     27  C3  BDP d1178       9.083 -10.964   3.663  0.00  0.00     0.092 C 
ATOM     28  C2  BDP d1178      10.044 -10.211   4.548  0.00  0.00     0.110 C 
ATOM     29  O4  BDP d1178       8.972 -12.537   1.948  0.00  0.00    -0.348 OA
ATOM     30  O5  BDP d1178      11.876 -11.599   3.897  0.00  0.00    -0.340 OA
ATOM     31  C4  BDP d1178       9.841 -11.595   2.508  0.00  0.00     0.103 C 
ATOM     32  H   BDP d1178      10.754 -12.042   5.487  0.00  0.00     0.133 H 
ATOM     33  H   BDP d1178       7.599  -9.710   3.922  0.00  0.00     0.210 HD
ATOM     34  H   BDP d1178       9.948  -9.201   6.220  0.00  0.00     0.210 HD
ATOM     35  H   BDP d1178      10.791 -13.210   3.508  0.00  0.00     0.104 H 
ATOM     36  H   BDP d1178       8.614 -11.733   4.240  0.00  0.00     0.091 H 
ATOM     37  H   BDP d1178      10.497  -9.405   4.009  0.00  0.00     0.094 H 
ATOM     38  H   BDP d1178      10.150 -10.829   1.827  0.00  0.00     0.092 H 
ATOM     39  C6  NAG d1177      16.660 -11.054   7.185  0.00  0.00     0.043 C 
ATOM     40  O4  NAG d1177      14.531 -10.930   5.095  0.00  0.00    -0.390 OA
ATOM     41  C2  NAG d1177      12.462 -11.266   8.181  0.00  0.00     0.087 C 
ATOM     42  C3  NAG d1177      12.822 -11.277   6.702  0.00  0.00     0.093 C 
ATOM     43  C7  NAG d1177      10.136 -11.413   8.983  0.00  0.00     0.214 C 
ATOM     44  N2  NAG d1177      11.180 -11.936   8.345  0.00  0.00    -0.349 N 
ATOM     45  C8  NAG d1177       9.069 -12.396   9.359  0.00  0.00    -0.003 C 
ATOM     46  O7  NAG d1177      10.007 -10.214   9.250  0.00  0.00    -0.274 OA
ATOM     47  O6  NAG d1177      17.049 -10.273   8.301  0.00  0.00    -0.398 OA
ATOM     48  C4  NAG d1177      14.236 -10.768   6.469  0.00  0.00     0.089 C 
ATOM     49  O5  NAG d1177      14.839 -11.418   8.706  0.00  0.00    -0.349 OA
ATOM     50  C5  NAG d1177      15.220 -11.537   7.351  0.00  0.00     0.089 C 
ATOM     51  C1  NAG d1177      13.559 -11.956   8.994  0.00  0.00     0.154 C 
ATOM     52  O3  NAG d1177      11.931 -10.452   5.987  0.00  0.00    -0.348 OA
ATOM     53  H   NAG d1177      16.735 -10.463   6.298  0.00  0.00     0.078 H 
ATOM     54  H   NAG d1177      17.306 -11.905   7.115  0.00  0.00     0.078 H 
ATOM     55  H   NAG d1177      13.889 -10.430   4.566  0.00  0.00     0.210 HD
ATOM     56  H   NAG d1177      12.382 -10.261   8.540  0.00  0.00     0.084 H 
ATOM     57  H   NAG d1177      12.754 -12.290   6.363  0.00  0.00     0.091 H 
ATOM     58  H   NAG d1177      11.079 -12.836   7.958  0.00  0.00     0.163 HD
ATOM     59  H   NAG d1177       9.361 -13.377   9.047  0.00  0.00     0.040 H 
ATOM     60  H   NAG d1177       8.151 -12.127   8.879  0.00  0.00     0.040 H 
ATOM     61  H   NAG d1177       8.932 -12.386  10.420  0.00  0.00     0.040 H 
ATOM     62  H   NAG d1177      16.468  -9.499   8.372  0.00  0.00     0.209 HD
ATOM     63  H   NAG d1177      14.321  -9.735   6.731  0.00  0.00     0.091 H 
ATOM     64  H   NAG d1177      15.187 -12.560   7.040  0.00  0.00     0.090 H 
ATOM     65  H   NAG d1177      13.609 -12.990   8.723  0.00  0.00     0.132 H 
ATOM     66  C6  NAG d1175      12.763 -18.091  17.029  0.00  0.00     0.043 C 
ATOM     67  O3  NAG d1175      15.185 -14.405  14.871  0.00  0.00    -0.348 OA
ATOM     68  C2  NAG d1175      15.415 -14.723  17.234  0.00  0.00     0.087 C 
ATOM     69  O6  NAG d1175      12.208 -18.542  18.243  0.00  0.00    -0.398 OA
ATOM     70  O1  NAG d1175      15.760 -15.433  19.526  0.00  0.00    -0.369 OA
ATOM     71  C7  NAG d1175      17.117 -13.063  17.800  0.00  0.00     0.214 C 
ATOM     72  N2  NAG d1175      15.848 -13.358  17.512  0.00  0.00    -0.349 N 
ATOM     73  C5  NAG d1175      13.284 -16.675  17.244  0.00  0.00     0.089 C 
ATOM     74  O5  NAG d1175      14.382 -16.693  18.145  0.00  0.00    -0.349 OA
ATOM     75  C4  NAG d1175      13.660 -16.045  15.901  0.00  0.00     0.089 C 
ATOM     76  O4  NAG d1175      12.459 -15.855  15.177  0.00  0.00    -0.390 OA
ATOM     77  O7  NAG d1175      18.062 -13.365  17.061  0.00  0.00    -0.274 OA
ATOM     78  C1  NAG d1175      14.809 -15.383  18.480  0.00  0.00     0.151 C 
ATOM     79  C8  NAG d1175      17.343 -12.318  19.087  0.00  0.00    -0.003 C 
ATOM     80  C3  NAG d1175      14.438 -14.723  16.045  0.00  0.00     0.093 C 
ATOM     81  H   NAG d1175      13.567 -18.733  16.737  0.00  0.00     0.078 H 
ATOM     82  H   NAG d1175      12.022 -18.099  16.257  0.00  0.00     0.078 H 
ATOM     83  H   NAG d1175      16.267 -15.312  16.966  0.00  0.00     0.084 H 
ATOM     84  H   NAG d1175      12.889 -18.530  18.934  0.00  0.00     0.209 HD
ATOM     85  H   NAG d1175      16.045 -14.533  19.748  0.00  0.00     0.212 HD
ATOM     86  H   NAG d1175      15.184 -12.632  17.487  0.00  0.00     0.163 HD
ATOM     87  H   NAG d1175      12.516 -16.073  17.681  0.00  0.00     0.090 H 
ATOM     88  H   NAG d1175      14.327 -16.701  15.382  0.00  0.00     0.091 H 
ATOM     89  H   NAG d1175      11.875 -15.258  15.670  0.00  0.00     0.210 HD
ATOM     90  H   NAG d1175      13.974 -14.805  18.818  0.00  0.00     0.132 H 
ATOM     91  H   NAG d1175      16.404 -12.155  19.574  0.00  0.00     0.040 H 
ATOM     92  H   NAG d1175      17.803 -11.375  18.877  0.00  0.00     0.040 H 
ATOM     93  H   NAG d1175      17.981 -12.892  19.725  0.00  0.00     0.040 H 
ATOM     94  H   NAG d1175      13.681 -13.986  16.211  0.00  0.00     0.091 H 
ATOM     95  C4  NAG d1181       5.732 -21.457  -7.971  0.00  0.00     0.089 C 
ATOM     96  C3  NAG d1181       6.423 -20.369  -8.798  0.00  0.00     0.086 C 
ATOM     97  C6  NAG d1181       4.701 -22.062  -5.741  0.00  0.00     0.043 C 
ATOM     98  C5  NAG d1181       5.172 -20.921  -6.646  0.00  0.00     0.089 C 
ATOM     99  C7  NAG d1181       9.135 -18.268  -8.989  0.00  0.00     0.214 C 
ATOM    100  C8  NAG d1181      10.135 -18.127  -7.873  0.00  0.00    -0.003 C 
ATOM    101  N2  NAG d1181       7.852 -18.367  -8.642  0.00  0.00    -0.349 N 
ATOM    102  O3  NAG d1181       7.164 -20.950  -9.861  0.00  0.00    -0.391 OA
ATOM    103  C1  NAG d1181       6.634 -19.058  -6.647  0.00  0.00     0.154 C 
ATOM    104  O6  NAG d1181       3.809 -21.568  -4.763  0.00  0.00    -0.398 OA
ATOM    105  O5  NAG d1181       6.147 -20.173  -5.940  0.00  0.00    -0.349 OA
ATOM    106  O7  NAG d1181       9.499 -18.292 -10.167  0.00  0.00    -0.274 OA
ATOM    107  O4  NAG d1181       4.688 -22.025  -8.730  0.00  0.00    -0.390 OA
ATOM    108  C2  NAG d1181       7.345 -19.523  -7.917  0.00  0.00     0.087 C 
ATOM    109  H   NAG d1181       6.468 -22.196  -7.729  0.00  0.00     0.091 H 
ATOM    110  H   NAG d1181       5.668 -19.733  -9.211  0.00  0.00     0.090 H 
ATOM    111  H   NAG d1181       5.547 -22.503  -5.257  0.00  0.00     0.078 H 
ATOM    112  H   NAG d1181       4.198 -22.796  -6.335  0.00  0.00     0.078 H 
ATOM    113  H   NAG d1181       4.344 -20.291  -6.898  0.00  0.00     0.090 H 
ATOM    114  H   NAG d1181       9.623 -18.127  -6.934  0.00  0.00     0.040 H 
ATOM    115  H   NAG d1181      10.670 -17.208  -7.988  0.00  0.00     0.040 H 
ATOM    116  H   NAG d1181      10.822 -18.947  -7.904  0.00  0.00     0.040 H 
ATOM    117  H   NAG d1181       7.232 -17.641  -8.882  0.00  0.00     0.163 HD
ATOM    118  H   NAG d1181       7.852 -21.529  -9.497  0.00  0.00     0.210 HD
ATOM    119  H   NAG d1181       5.795 -18.437  -6.880  0.00  0.00     0.132 H 
ATOM    120  H   NAG d1181       4.260 -20.902  -4.221  0.00  0.00     0.209 HD
ATOM    121  H   NAG d1181       4.032 -21.342  -8.939  0.00  0.00     0.210 HD
ATOM    122  H   NAG d1181       8.168 -20.147  -7.638  0.00  0.00     0.084 H 
ATOM    123  C7  NAG d1179       8.895 -15.781   1.300  0.00  0.00     0.214 C 
ATOM    124  C1  NAG d1179       8.801 -12.434   0.524  0.00  0.00     0.154 C 
ATOM    125  C2  NAG d1179       8.233 -13.783   0.105  0.00  0.00     0.087 C 
ATOM    126  O5  NAG d1179       7.912 -11.401   0.156  0.00  0.00    -0.349 OA
ATOM    127  O7  NAG d1179       7.752 -16.181   1.514  0.00  0.00    -0.274 OA
ATOM    128  O4  NAG d1179       6.640 -12.577  -3.060  0.00  0.00    -0.390 OA
ATOM    129  N2  NAG d1179       9.179 -14.850   0.391  0.00  0.00    -0.349 N 
ATOM    130  C8  NAG d1179      10.037 -16.353   2.082  0.00  0.00    -0.003 C 
ATOM    131  O3  NAG d1179       6.975 -14.997  -1.520  0.00  0.00    -0.348 OA
ATOM    132  C4  NAG d1179       6.925 -12.606  -1.677  0.00  0.00     0.089 C 
ATOM    133  C5  NAG d1179       7.664 -11.340  -1.238  0.00  0.00     0.089 C 
ATOM    134  O6  NAG d1179       5.602 -10.100  -0.934  0.00  0.00    -0.398 OA
ATOM    135  C3  NAG d1179       7.766 -13.835  -1.348  0.00  0.00     0.093 C 
ATOM    136  C6  NAG d1179       6.877 -10.066  -1.550  0.00  0.00     0.043 C 
ATOM    137  H   NAG d1179       9.729 -12.195   0.048  0.00  0.00     0.132 H 
ATOM    138  H   NAG d1179       7.351 -13.928   0.693  0.00  0.00     0.084 H 
ATOM    139  H   NAG d1179       6.173 -13.390  -3.310  0.00  0.00     0.210 HD
ATOM    140  H   NAG d1179      10.037 -14.884  -0.090  0.00  0.00     0.163 HD
ATOM    141  H   NAG d1179      10.950 -15.894   1.768  0.00  0.00     0.040 H 
ATOM    142  H   NAG d1179      10.091 -17.409   1.914  0.00  0.00     0.040 H 
ATOM    143  H   NAG d1179       9.884 -16.166   3.124  0.00  0.00     0.040 H 
ATOM    144  H   NAG d1179       5.998 -12.652  -1.145  0.00  0.00     0.091 H 
ATOM    145  H   NAG d1179       8.581 -11.297  -1.787  0.00  0.00     0.090 H 
ATOM    146  H   NAG d1179       5.120  -9.285  -1.143  0.00  0.00     0.209 HD
ATOM    147  H   NAG d1179       8.615 -13.856  -1.998  0.00  0.00     0.091 H 
ATOM    148  H   NAG d1179       6.752  -9.982  -2.610  0.00  0.00     0.078 H 
ATOM    149  H   NAG d1179       7.420  -9.226  -1.171  0.00  0.00     0.078 H 
ATOM    150  C6  BDP d1180       7.445 -15.413  -6.204  0.00  0.00     0.206 C 
ATOM    151  O3  BDP d1180       6.210 -19.269  -3.375  0.00  0.00    -0.390 OA
ATOM    152  C1  BDP d1180       7.471 -15.849  -2.562  0.00  0.00     0.160 C 
ATOM    153  O2  BDP d1180       7.773 -17.799  -1.242  0.00  0.00    -0.388 OA
ATOM    154  C3  BDP d1180       7.151 -18.223  -3.506  0.00  0.00     0.092 C 
ATOM    155  O4  BDP d1180       7.578 -18.308  -5.864  0.00  0.00    -0.348 OA
ATOM    156  O5  BDP d1180       7.028 -15.395  -3.822  0.00  0.00    -0.340 OA
ATOM    157  C5  BDP d1180       7.596 -16.150  -4.872  0.00  0.00     0.152 C 
ATOM    158  O6B BDP d1180       6.304 -15.005  -6.533  0.00  0.00    -0.646 OA
ATOM    159  O6A BDP d1180       8.481 -15.245  -6.892  0.00  0.00    -0.646 OA
ATOM    160  C2  BDP d1180       7.001 -17.281  -2.304  0.00  0.00     0.110 C 
ATOM    161  C4  BDP d1180       6.956 -17.536  -4.861  0.00  0.00     0.103 C 
ATOM    162  H   BDP d1180       6.330 -19.707  -2.518  0.00  0.00     0.210 HD
ATOM    163  H   BDP d1180       8.541 -15.826  -2.564  0.00  0.00     0.133 H 
ATOM    164  H   BDP d1180       7.693 -17.217  -0.470  0.00  0.00     0.210 HD
ATOM    165  H   BDP d1180       8.157 -18.588  -3.495  0.00  0.00     0.091 H 
ATOM    166  H   BDP d1180       8.649 -16.273  -4.734  0.00  0.00     0.104 H 
ATOM    167  H   BDP d1180       5.956 -17.231  -2.086  0.00  0.00     0.094 H 
ATOM    168  H   BDP d1180       5.905 -17.443  -5.038  0.00  0.00     0.092 H 
ENDROOT
TORSDOF 43
ENDMDL
MODEL 17
REMARK VINA RESULT:      -7.4      5.074      6.484
REMARK  0 active torsions:
REMARK  status: ('A' for Active; 'I' for Inactive)
REMARK       I    between atoms: C1_1  and  O3_15 
REMARK       I    between atoms: C1_2  and  O3_93 
REMARK       I    between atoms: C6_3  and  C5_89 
REMARK       I    between atoms: C6_3  and  O6_76 
REMARK       I    between atoms: O3_4  and  C3_22 
REMARK       I    between atoms: C6_5  and  C5_48 
REMARK       I    between atoms: C6_5  and  O6_31 
REMARK       I    between atoms: C4_6  and  O4_74 
REMARK       I    between atoms: C7_7  and  C8_62 
REMARK       I    between atoms: C7_7  and  N2_60 
REMARK       I    between atoms: C6_8  and  C5_52 
REMARK       I    between atoms: C3_9  and  O3_38 
REMARK       I    between atoms: C1_10  and  O4_75 
REMARK       I    between atoms: C6_12  and  C5_51 
REMARK       I    between atoms: O3_13  and  C3_42 
REMARK       I    between atoms: O4_14  and  C4_84 
REMARK       I    between atoms: O3_15  and  C3_86 
REMARK       I    between atoms: C6_16  and  C5_23 
REMARK       I    between atoms: C6_16  and  O6_58 
REMARK       I    between atoms: C1_17  and  O3_63 
REMARK       I    between atoms: C2_18  and  N2_60 
REMARK       I    between atoms: C2_19  and  N2_53 
REMARK       I    between atoms: O2_20  and  C2_66 
REMARK       I    between atoms: C3_25  and  O3_93 
REMARK       I    between atoms: C7_26  and  C8_32 
REMARK       I    between atoms: C7_26  and  N2_37 
REMARK       I    between atoms: C2_28  and  N2_44 
REMARK       I    between atoms: C7_29  and  C8_54 
REMARK       I    between atoms: C7_29  and  N2_53 
REMARK       I    between atoms: O1_33  and  C1_80 
REMARK       I    between atoms: O4_34  and  C4_40 
REMARK       I    between atoms: O4_34  and  C1_92 
REMARK       I    between atoms: C7_36  and  C8_81 
REMARK       I    between atoms: C7_36  and  N2_44 
REMARK       I    between atoms: N2_37  and  C2_83 
REMARK       I    between atoms: O3_39  and  C3_61 
REMARK       I    between atoms: C1_41  and  O4_46 
REMARK       I    between atoms: O2_43  and  C2_73 
REMARK       I    between atoms: C6_45  and  C5_87 
REMARK       I    between atoms: O4_46  and  C4_67 
REMARK       I    between atoms: C4_50  and  O4_65 
REMARK       I    between atoms: C2_55  and  O2_82 
REMARK       I    between atoms: O4_57  and  C4_71 
REMARK       I    between atoms: O3_63  and  C3_85 
REMARK       I    between atoms: O4_75  and  C4_91 
REMARK       I    between atoms: C5_77  and  C6_90 
REMARK       I    between atoms: O6_79  and  C6_90 
ROOT
ATOM      1  C1  BDP d1176      14.690 -15.557  15.898  0.00  0.00     0.160 C 
ATOM      2  O3  BDP d1176      16.599 -13.476  13.408  0.00  0.00    -0.390 OA
ATOM      3  O5  BDP d1176      13.932 -16.090  14.848  0.00  0.00    -0.340 OA
ATOM      4  O6A BDP d1176      12.782 -16.795  12.498  0.00  0.00    -0.646 OA
ATOM      5  C3  BDP d1176      15.448 -13.806  14.159  0.00  0.00     0.092 C 
ATOM      6  O4  BDP d1176      13.786 -13.328  12.513  0.00  0.00    -0.348 OA
ATOM      7  C4  BDP d1176      14.394 -14.387  13.228  0.00  0.00     0.103 C 
ATOM      8  C6  BDP d1176      12.338 -15.837  13.160  0.00  0.00     0.206 C 
ATOM      9  C2  BDP d1176      15.832 -14.703  15.333  0.00  0.00     0.110 C 
ATOM     10  O6B BDP d1176      11.158 -15.430  13.160  0.00  0.00    -0.646 OA
ATOM     11  O2  BDP d1176      16.290 -13.840  16.345  0.00  0.00    -0.388 OA
ATOM     12  C5  BDP d1176      13.334 -15.116  14.043  0.00  0.00     0.152 C 
ATOM     13  H   BDP d1176      14.086 -14.928  16.517  0.00  0.00     0.133 H 
ATOM     14  H   BDP d1176      17.274 -13.104  13.998  0.00  0.00     0.210 HD
ATOM     15  H   BDP d1176      15.007 -12.936  14.600  0.00  0.00     0.091 H 
ATOM     16  H   BDP d1176      14.852 -15.076  12.550  0.00  0.00     0.092 H 
ATOM     17  H   BDP d1176      16.562 -15.405  14.987  0.00  0.00     0.094 H 
ATOM     18  H   BDP d1176      15.575 -13.238  16.604  0.00  0.00     0.210 HD
ATOM     19  H   BDP d1176      12.834 -14.371  14.625  0.00  0.00     0.104 H 
ATOM     20  C1  BDP d1178      12.071 -11.713   7.212  0.00  0.00     0.160 C 
ATOM     21  C6  BDP d1178      12.811 -12.937   3.770  0.00  0.00     0.206 C 
ATOM     22  O6B BDP d1178      12.421 -13.929   3.109  0.00  0.00    -0.646 OA
ATOM     23  O6A BDP d1178      13.790 -12.216   3.455  0.00  0.00    -0.646 OA
ATOM     24  O3  BDP d1178       9.245 -10.074   5.415  0.00  0.00    -0.390 OA
ATOM     25  O2  BDP d1178      10.415 -10.129   7.963  0.00  0.00    -0.388 OA
ATOM     26  C5  BDP d1178      11.998 -12.600   5.021  0.00  0.00     0.152 C 
ATOM     27  C3  BDP d1178      10.122 -11.101   5.820  0.00  0.00     0.092 C 
ATOM     28  C2  BDP d1178      11.114 -10.587   6.833  0.00  0.00     0.110 C 
ATOM     29  O4  BDP d1178       9.925 -12.415   3.906  0.00  0.00    -0.348 OA
ATOM     30  O5  BDP d1178      12.810 -12.087   6.070  0.00  0.00    -0.340 OA
ATOM     31  C4  BDP d1178      10.864 -11.662   4.619  0.00  0.00     0.103 C 
ATOM     32  H   BDP d1178      11.564 -12.595   7.544  0.00  0.00     0.133 H 
ATOM     33  H   BDP d1178       8.777  -9.724   6.190  0.00  0.00     0.210 HD
ATOM     34  H   BDP d1178      11.045  -9.797   8.621  0.00  0.00     0.210 HD
ATOM     35  H   BDP d1178      11.573 -13.494   5.428  0.00  0.00     0.104 H 
ATOM     36  H   BDP d1178       9.540 -11.877   6.271  0.00  0.00     0.091 H 
ATOM     37  H   BDP d1178      11.682  -9.777   6.424  0.00  0.00     0.094 H 
ATOM     38  H   BDP d1178      11.292 -10.857   4.060  0.00  0.00     0.092 H 
ATOM     39  C6  NAG d1177      17.447 -12.539   9.577  0.00  0.00     0.043 C 
ATOM     40  O4  NAG d1177      15.457 -11.895   7.444  0.00  0.00    -0.390 OA
ATOM     41  C2  NAG d1177      13.205 -12.380  10.379  0.00  0.00     0.087 C 
ATOM     42  C3  NAG d1177      13.638 -12.243   8.926  0.00  0.00     0.093 C 
ATOM     43  C7  NAG d1177      10.839 -12.353  11.067  0.00  0.00     0.214 C 
ATOM     44  N2  NAG d1177      11.849 -12.910  10.404  0.00  0.00    -0.349 N 
ATOM     45  C8  NAG d1177       9.650 -13.243  11.268  0.00  0.00    -0.003 C 
ATOM     46  O7  NAG d1177      10.832 -11.191  11.488  0.00  0.00    -0.274 OA
ATOM     47  O6  NAG d1177      17.862 -11.959  10.800  0.00  0.00    -0.398 OA
ATOM     48  C4  NAG d1177      15.111 -11.879   8.815  0.00  0.00     0.089 C 
ATOM     49  O5  NAG d1177      15.520 -12.878  10.966  0.00  0.00    -0.349 OA
ATOM     50  C5  NAG d1177      15.955 -12.865   9.622  0.00  0.00     0.089 C 
ATOM     51  C1  NAG d1177      14.174 -13.294  11.132  0.00  0.00     0.154 C 
ATOM     52  O3  NAG d1177      12.885 -11.233   8.296  0.00  0.00    -0.348 OA
ATOM     53  H   NAG d1177      17.634 -11.851   8.779  0.00  0.00     0.078 H 
ATOM     54  H   NAG d1177      17.996 -13.444   9.417  0.00  0.00     0.078 H 
ATOM     55  H   NAG d1177      14.904 -11.259   6.964  0.00  0.00     0.210 HD
ATOM     56  H   NAG d1177      13.220 -11.427  10.866  0.00  0.00     0.084 H 
ATOM     57  H   NAG d1177      13.475 -13.188   8.452  0.00  0.00     0.091 H 
ATOM     58  H   NAG d1177      11.668 -13.733   9.896  0.00  0.00     0.163 HD
ATOM     59  H   NAG d1177       9.846 -14.203  10.838  0.00  0.00     0.040 H 
ATOM     60  H   NAG d1177       8.794 -12.808  10.795  0.00  0.00     0.040 H 
ATOM     61  H   NAG d1177       9.460 -13.354  12.316  0.00  0.00     0.040 H 
ATOM     62  H   NAG d1177      17.368 -11.138  10.953  0.00  0.00     0.209 HD
ATOM     63  H   NAG d1177      15.297 -10.905   9.217  0.00  0.00     0.091 H 
ATOM     64  H   NAG d1177      15.823 -13.829   9.176  0.00  0.00     0.090 H 
ATOM     65  H   NAG d1177      14.122 -14.283  10.727  0.00  0.00     0.132 H 
ATOM     66  C6  NAG d1175      12.275 -20.276  18.237  0.00  0.00     0.043 C 
ATOM     67  O3  NAG d1175      15.205 -16.655  16.684  0.00  0.00    -0.348 OA
ATOM     68  C2  NAG d1175      15.274 -17.300  18.989  0.00  0.00     0.087 C 
ATOM     69  O6  NAG d1175      11.610 -20.811  19.358  0.00  0.00    -0.398 OA
ATOM     70  O1  NAG d1175      15.417 -18.335  21.177  0.00  0.00    -0.369 OA
ATOM     71  C7  NAG d1175      17.120 -15.939  19.835  0.00  0.00     0.214 C 
ATOM     72  N2  NAG d1175      15.843 -16.042  19.464  0.00  0.00    -0.349 N 
ATOM     73  C5  NAG d1175      12.940 -18.971  18.659  0.00  0.00     0.089 C 
ATOM     74  O5  NAG d1175      13.981 -19.235  19.589  0.00  0.00    -0.349 OA
ATOM     75  C4  NAG d1175      13.454 -18.222  17.427  0.00  0.00     0.089 C 
ATOM     76  O4  NAG d1175      12.321 -17.800  16.691  0.00  0.00    -0.390 OA
ATOM     77  O7  NAG d1175      18.062 -16.253  19.098  0.00  0.00    -0.274 OA
ATOM     78  C1  NAG d1175      14.534 -18.038  20.112  0.00  0.00     0.151 C 
ATOM     79  C8  NAG d1175      17.360 -15.398  21.218  0.00  0.00    -0.003 C 
ATOM     80  C3  NAG d1175      14.367 -17.031  17.776  0.00  0.00     0.093 C 
ATOM     81  H   NAG d1175      13.016 -20.966  17.891  0.00  0.00     0.078 H 
ATOM     82  H   NAG d1175      11.579 -20.097  17.444  0.00  0.00     0.078 H 
ATOM     83  H   NAG d1175      16.067 -17.946  18.677  0.00  0.00     0.084 H 
ATOM     84  H   NAG d1175      12.251 -20.968  20.069  0.00  0.00     0.209 HD
ATOM     85  H   NAG d1175      15.789 -17.511  21.527  0.00  0.00     0.212 HD
ATOM     86  H   NAG d1175      15.266 -15.246  19.511  0.00  0.00     0.163 HD
ATOM     87  H   NAG d1175      12.222 -18.344  19.144  0.00  0.00     0.090 H 
ATOM     88  H   NAG d1175      14.069 -18.880  16.849  0.00  0.00     0.091 H 
ATOM     89  H   NAG d1175      11.783 -17.206  17.238  0.00  0.00     0.210 HD
ATOM     90  H   NAG d1175      13.752 -17.414  20.493  0.00  0.00     0.132 H 
ATOM     91  H   NAG d1175      16.422 -15.190  21.688  0.00  0.00     0.040 H 
ATOM     92  H   NAG d1175      17.933 -14.497  21.154  0.00  0.00     0.040 H 
ATOM     93  H   NAG d1175      17.896 -16.121  21.797  0.00  0.00     0.040 H 
ATOM     94  H   NAG d1175      13.689 -16.237  18.011  0.00  0.00     0.091 H 
ATOM     95  C4  NAG d1181       6.228 -19.537  -7.232  0.00  0.00     0.089 C 
ATOM     96  C3  NAG d1181       7.078 -18.440  -7.880  0.00  0.00     0.086 C 
ATOM     97  C6  NAG d1181       5.020 -20.298  -5.142  0.00  0.00     0.043 C 
ATOM     98  C5  NAG d1181       5.662 -19.113  -5.868  0.00  0.00     0.089 C 
ATOM     99  C7  NAG d1181      10.016 -16.667  -7.686  0.00  0.00     0.214 C 
ATOM    100  C8  NAG d1181      10.965 -16.791  -6.525  0.00  0.00    -0.003 C 
ATOM    101  N2  NAG d1181       8.713 -16.658  -7.403  0.00  0.00    -0.349 N 
ATOM    102  O3  NAG d1181       7.804 -18.963  -8.983  0.00  0.00    -0.391 OA
ATOM    103  C1  NAG d1181       7.323 -17.452  -5.566  0.00  0.00     0.154 C 
ATOM    104  O6  NAG d1181       4.139 -19.832  -4.141  0.00  0.00    -0.398 OA
ATOM    105  O5  NAG d1181       6.677 -18.583  -5.033  0.00  0.00    -0.349 OA
ATOM    106  O7  NAG d1181      10.436 -16.582  -8.843  0.00  0.00    -0.274 OA
ATOM    107  O4  NAG d1181       5.168 -19.874  -8.098  0.00  0.00    -0.390 OA
ATOM    108  C2  NAG d1181       8.042 -17.829  -6.859  0.00  0.00     0.087 C 
ATOM    109  H   NAG d1181       6.862 -20.382  -7.064  0.00  0.00     0.091 H 
ATOM    110  H   NAG d1181       6.422 -17.671  -8.231  0.00  0.00     0.090 H 
ATOM    111  H   NAG d1181       5.785 -20.894  -4.691  0.00  0.00     0.078 H 
ATOM    112  H   NAG d1181       4.469 -20.884  -5.848  0.00  0.00     0.078 H 
ATOM    113  H   NAG d1181       4.924 -18.363  -6.064  0.00  0.00     0.090 H 
ATOM    114  H   NAG d1181      10.408 -16.852  -5.614  0.00  0.00     0.040 H 
ATOM    115  H   NAG d1181      11.605 -15.934  -6.496  0.00  0.00     0.040 H 
ATOM    116  H   NAG d1181      11.557 -17.675  -6.641  0.00  0.00     0.040 H 
ATOM    117  H   NAG d1181       8.192 -15.839  -7.567  0.00  0.00     0.163 HD
ATOM    118  H   NAG d1181       8.402 -19.661  -8.674  0.00  0.00     0.210 HD
ATOM    119  H   NAG d1181       6.571 -16.711  -5.744  0.00  0.00     0.132 H 
ATOM    120  H   NAG d1181       4.633 -19.299  -3.499  0.00  0.00     0.209 HD
ATOM    121  H   NAG d1181       4.605 -19.097  -8.237  0.00  0.00     0.210 HD
ATOM    122  H   NAG d1181       8.774 -18.577  -6.636  0.00  0.00     0.084 H 
ATOM    123  C7  NAG d1179       9.518 -15.517   2.827  0.00  0.00     0.214 C 
ATOM    124  C1  NAG d1179       9.842 -12.110   2.504  0.00  0.00     0.154 C 
ATOM    125  C2  NAG d1179       9.148 -13.317   1.887  0.00  0.00     0.087 C 
ATOM    126  O5  NAG d1179       9.094 -10.941   2.245  0.00  0.00    -0.349 OA
ATOM    127  O7  NAG d1179       8.328 -15.803   2.944  0.00  0.00    -0.274 OA
ATOM    128  O4  NAG d1179       7.869 -11.534  -1.144  0.00  0.00    -0.390 OA
ATOM    129  N2  NAG d1179       9.953 -14.516   2.063  0.00  0.00    -0.349 N 
ATOM    130  C8  NAG d1179      10.546 -16.316   3.567  0.00  0.00    -0.003 C 
ATOM    131  O3  NAG d1179       7.849 -14.154   0.069  0.00  0.00    -0.348 OA
ATOM    132  C4  NAG d1179       8.076 -11.774   0.232  0.00  0.00     0.089 C 
ATOM    133  C5  NAG d1179       8.928 -10.671   0.864  0.00  0.00     0.089 C 
ATOM    134  O6  NAG d1179       7.006  -9.246   1.255  0.00  0.00    -0.398 OA
ATOM    135  C3  NAG d1179       8.755 -13.126   0.424  0.00  0.00     0.093 C 
ATOM    136  C6  NAG d1179       8.306  -9.284   0.696  0.00  0.00     0.043 C 
ATOM    137  H   NAG d1179      10.814 -11.923   2.099  0.00  0.00     0.132 H 
ATOM    138  H   NAG d1179       8.226 -13.432   2.417  0.00  0.00     0.084 H 
ATOM    139  H   NAG d1179       7.327 -12.247  -1.518  0.00  0.00     0.210 HD
ATOM    140  H   NAG d1179      10.826 -14.589   1.613  0.00  0.00     0.163 HD
ATOM    141  H   NAG d1179      11.521 -15.931   3.351  0.00  0.00     0.040 H 
ATOM    142  H   NAG d1179      10.490 -17.340   3.261  0.00  0.00     0.040 H 
ATOM    143  H   NAG d1179      10.362 -16.248   4.619  0.00  0.00     0.040 H 
ATOM    144  H   NAG d1179       7.123 -11.778   0.718  0.00  0.00     0.091 H 
ATOM    145  H   NAG d1179       9.872 -10.666   0.360  0.00  0.00     0.090 H 
ATOM    146  H   NAG d1179       6.630  -8.359   1.139  0.00  0.00     0.209 HD
ATOM    147  H   NAG d1179       9.629 -13.163  -0.191  0.00  0.00     0.091 H 
ATOM    148  H   NAG d1179       8.248  -9.050  -0.346  0.00  0.00     0.078 H 
ATOM    149  H   NAG d1179       8.920  -8.570   1.205  0.00  0.00     0.078 H 
ATOM    150  C6  BDP d1180       8.513 -14.016  -4.609  0.00  0.00     0.206 C 
ATOM    151  O3  BDP d1180       6.708 -18.032  -2.370  0.00  0.00    -0.390 OA
ATOM    152  C1  BDP d1180       8.300 -14.918  -1.059  0.00  0.00     0.160 C 
ATOM    153  O2  BDP d1180       8.312 -17.044  -0.002  0.00  0.00    -0.388 OA
ATOM    154  C3  BDP d1180       7.765 -17.096  -2.324  0.00  0.00     0.092 C 
ATOM    155  O4  BDP d1180       8.302 -16.926  -4.655  0.00  0.00    -0.348 OA
ATOM    156  O5  BDP d1180       7.977 -14.256  -2.262  0.00  0.00    -0.340 OA
ATOM    157  C5  BDP d1180       8.511 -14.931  -3.382  0.00  0.00     0.152 C 
ATOM    158  O6B BDP d1180       7.444 -13.437  -4.921  0.00  0.00    -0.646 OA
ATOM    159  O6A BDP d1180       9.596 -13.884  -5.228  0.00  0.00    -0.646 OA
ATOM    160  C2  BDP d1180       7.659 -16.305  -1.013  0.00  0.00     0.110 C 
ATOM    161  C4  BDP d1180       7.720 -16.222  -3.581  0.00  0.00     0.103 C 
ATOM    162  H   BDP d1180       6.732 -18.587  -1.575  0.00  0.00     0.210 HD
ATOM    163  H   BDP d1180       9.364 -15.021  -1.019  0.00  0.00     0.133 H 
ATOM    164  H   BDP d1180       8.257 -16.561   0.838  0.00  0.00     0.210 HD
ATOM    165  H   BDP d1180       8.722 -17.575  -2.325  0.00  0.00     0.091 H 
ATOM    166  H   BDP d1180       9.535 -15.194  -3.223  0.00  0.00     0.104 H 
ATOM    167  H   BDP d1180       6.616 -16.161  -0.829  0.00  0.00     0.094 H 
ATOM    168  H   BDP d1180       6.697 -15.983  -3.783  0.00  0.00     0.092 H 
ENDROOT
TORSDOF 43
ENDMDL
MODEL 18
REMARK VINA RESULT:      -7.3      4.015     19.325
REMARK  0 active torsions:
REMARK  status: ('A' for Active; 'I' for Inactive)
REMARK       I    between atoms: C1_1  and  O3_15 
REMARK       I    between atoms: C1_2  and  O3_93 
REMARK       I    between atoms: C6_3  and  C5_89 
REMARK       I    between atoms: C6_3  and  O6_76 
REMARK       I    between atoms: O3_4  and  C3_22 
REMARK       I    between atoms: C6_5  and  C5_48 
REMARK       I    between atoms: C6_5  and  O6_31 
REMARK       I    between atoms: C4_6  and  O4_74 
REMARK       I    between atoms: C7_7  and  C8_62 
REMARK       I    between atoms: C7_7  and  N2_60 
REMARK       I    between atoms: C6_8  and  C5_52 
REMARK       I    between atoms: C3_9  and  O3_38 
REMARK       I    between atoms: C1_10  and  O4_75 
REMARK       I    between atoms: C6_12  and  C5_51 
REMARK       I    between atoms: O3_13  and  C3_42 
REMARK       I    between atoms: O4_14  and  C4_84 
REMARK       I    between atoms: O3_15  and  C3_86 
REMARK       I    between atoms: C6_16  and  C5_23 
REMARK       I    between atoms: C6_16  and  O6_58 
REMARK       I    between atoms: C1_17  and  O3_63 
REMARK       I    between atoms: C2_18  and  N2_60 
REMARK       I    between atoms: C2_19  and  N2_53 
REMARK       I    between atoms: O2_20  and  C2_66 
REMARK       I    between atoms: C3_25  and  O3_93 
REMARK       I    between atoms: C7_26  and  C8_32 
REMARK       I    between atoms: C7_26  and  N2_37 
REMARK       I    between atoms: C2_28  and  N2_44 
REMARK       I    between atoms: C7_29  and  C8_54 
REMARK       I    between atoms: C7_29  and  N2_53 
REMARK       I    between atoms: O1_33  and  C1_80 
REMARK       I    between atoms: O4_34  and  C4_40 
REMARK       I    between atoms: O4_34  and  C1_92 
REMARK       I    between atoms: C7_36  and  C8_81 
REMARK       I    between atoms: C7_36  and  N2_44 
REMARK       I    between atoms: N2_37  and  C2_83 
REMARK       I    between atoms: O3_39  and  C3_61 
REMARK       I    between atoms: C1_41  and  O4_46 
REMARK       I    between atoms: O2_43  and  C2_73 
REMARK       I    between atoms: C6_45  and  C5_87 
REMARK       I    between atoms: O4_46  and  C4_67 
REMARK       I    between atoms: C4_50  and  O4_65 
REMARK       I    between atoms: C2_55  and  O2_82 
REMARK       I    between atoms: O4_57  and  C4_71 
REMARK       I    between atoms: O3_63  and  C3_85 
REMARK       I    between atoms: O4_75  and  C4_91 
REMARK       I    between atoms: C5_77  and  C6_90 
REMARK       I    between atoms: O6_79  and  C6_90 
ROOT
ATOM      1  C1  BDP d1176      13.910 -15.377   2.422  0.00  0.00     0.160 C 
ATOM      2  O3  BDP d1176      12.452 -12.053   3.422  0.00  0.00    -0.390 OA
ATOM      3  O5  BDP d1176      13.175 -15.990   3.444  0.00  0.00    -0.340 OA
ATOM      4  O6A BDP d1176      11.567 -16.661   5.520  0.00  0.00    -0.646 OA
ATOM      5  C3  BDP d1176      13.296 -13.171   3.613  0.00  0.00     0.092 C 
ATOM      6  O4  BDP d1176      13.062 -13.407   5.978  0.00  0.00    -0.348 OA
ATOM      7  C4  BDP d1176      12.744 -14.025   4.745  0.00  0.00     0.103 C 
ATOM      8  C6  BDP d1176      12.758 -16.348   5.714  0.00  0.00     0.206 C 
ATOM      9  C2  BDP d1176      13.492 -13.907   2.290  0.00  0.00     0.110 C 
ATOM     10  O6B BDP d1176      13.475 -16.740   6.658  0.00  0.00    -0.646 OA
ATOM     11  O2  BDP d1176      14.507 -13.212   1.608  0.00  0.00    -0.388 OA
ATOM     12  C5  BDP d1176      13.376 -15.410   4.699  0.00  0.00     0.152 C 
ATOM     13  H   BDP d1176      14.956 -15.402   2.644  0.00  0.00     0.133 H 
ATOM     14  H   BDP d1176      12.800 -11.505   2.701  0.00  0.00     0.210 HD
ATOM     15  H   BDP d1176      14.277 -12.871   3.919  0.00  0.00     0.091 H 
ATOM     16  H   BDP d1176      11.683 -14.119   4.642  0.00  0.00     0.092 H 
ATOM     17  H   BDP d1176      12.551 -13.928   1.782  0.00  0.00     0.094 H 
ATOM     18  H   BDP d1176      15.324 -13.238   2.131  0.00  0.00     0.210 HD
ATOM     19  H   BDP d1176      14.416 -15.275   4.913  0.00  0.00     0.104 H 
ATOM     20  C1  BDP d1178      10.829 -11.937  11.126  0.00  0.00     0.160 C 
ATOM     21  C6  BDP d1178       7.357 -11.620  12.443  0.00  0.00     0.206 C 
ATOM     22  O6B BDP d1178       6.497 -12.457  12.808  0.00  0.00    -0.646 OA
ATOM     23  O6A BDP d1178       7.115 -10.409  12.216  0.00  0.00    -0.646 OA
ATOM     24  O3  BDP d1178      11.611 -11.943  14.772  0.00  0.00    -0.390 OA
ATOM     25  O2  BDP d1178      12.934 -11.890  12.300  0.00  0.00    -0.388 OA
ATOM     26  C5  BDP d1178       8.787 -12.143  12.301  0.00  0.00     0.152 C 
ATOM     27  C3  BDP d1178      10.973 -12.302  13.567  0.00  0.00     0.092 C 
ATOM     28  C2  BDP d1178      11.573 -11.556  12.402  0.00  0.00     0.110 C 
ATOM     29  O4  BDP d1178       8.949 -12.975  14.504  0.00  0.00    -0.348 OA
ATOM     30  O5  BDP d1178       9.489 -11.513  11.235  0.00  0.00    -0.340 OA
ATOM     31  C4  BDP d1178       9.485 -12.006  13.650  0.00  0.00     0.103 C 
ATOM     32  H   BDP d1178      10.797 -12.995  10.964  0.00  0.00     0.133 H 
ATOM     33  H   BDP d1178      12.559 -12.137  14.706  0.00  0.00     0.210 HD
ATOM     34  H   BDP d1178      13.329 -11.414  11.553  0.00  0.00     0.210 HD
ATOM     35  H   BDP d1178       8.769 -13.178  12.030  0.00  0.00     0.104 H 
ATOM     36  H   BDP d1178      11.116 -13.351  13.415  0.00  0.00     0.091 H 
ATOM     37  H   BDP d1178      11.484 -10.499  12.548  0.00  0.00     0.094 H 
ATOM     38  H   BDP d1178       9.343 -11.001  13.987  0.00  0.00     0.092 H 
ATOM     39  C6  NAG d1177       9.839  -9.922   5.637  0.00  0.00     0.043 C 
ATOM     40  O4  NAG d1177       9.481 -10.112   8.596  0.00  0.00    -0.390 OA
ATOM     41  C2  NAG d1177      12.281 -12.522   8.074  0.00  0.00     0.087 C 
ATOM     42  C3  NAG d1177      11.123 -11.814   8.765  0.00  0.00     0.093 C 
ATOM     43  C7  NAG d1177      13.783 -14.076   9.257  0.00  0.00     0.214 C 
ATOM     44  N2  NAG d1177      12.575 -13.743   8.810  0.00  0.00    -0.349 N 
ATOM     45  C8  NAG d1177      13.937 -15.516   9.645  0.00  0.00    -0.003 C 
ATOM     46  O7  NAG d1177      14.728 -13.289   9.377  0.00  0.00    -0.274 OA
ATOM     47  O6  NAG d1177      10.869  -9.520   4.752  0.00  0.00    -0.398 OA
ATOM     48  C4  NAG d1177      10.627 -10.630   7.949  0.00  0.00     0.089 C 
ATOM     49  O5  NAG d1177      11.464 -11.661   5.943  0.00  0.00    -0.349 OA
ATOM     50  C5  NAG d1177      10.317 -11.074   6.520  0.00  0.00     0.089 C 
ATOM     51  C1  NAG d1177      11.919 -12.822   6.619  0.00  0.00     0.154 C 
ATOM     52  O3  NAG d1177      11.537 -11.340  10.026  0.00  0.00    -0.348 OA
ATOM     53  H   NAG d1177       9.561  -9.095   6.255  0.00  0.00     0.078 H 
ATOM     54  H   NAG d1177       8.997 -10.251   5.063  0.00  0.00     0.078 H 
ATOM     55  H   NAG d1177       9.714  -9.841   9.498  0.00  0.00     0.210 HD
ATOM     56  H   NAG d1177      13.150 -11.898   8.066  0.00  0.00     0.084 H 
ATOM     57  H   NAG d1177      10.329 -12.524   8.869  0.00  0.00     0.091 H 
ATOM     58  H   NAG d1177      11.832 -14.362   8.989  0.00  0.00     0.163 HD
ATOM     59  H   NAG d1177      13.017 -16.033   9.470  0.00  0.00     0.040 H 
ATOM     60  H   NAG d1177      14.191 -15.581  10.682  0.00  0.00     0.040 H 
ATOM     61  H   NAG d1177      14.714 -15.962   9.059  0.00  0.00     0.040 H 
ATOM     62  H   NAG d1177      11.637  -9.221   5.264  0.00  0.00     0.209 HD
ATOM     63  H   NAG d1177      11.374  -9.867   7.886  0.00  0.00     0.091 H 
ATOM     64  H   NAG d1177       9.520 -11.785   6.579  0.00  0.00     0.090 H 
ATOM     65  H   NAG d1177      11.105 -13.516   6.587  0.00  0.00     0.132 H 
ATOM     66  C6  NAG d1175      14.023 -20.990   0.988  0.00  0.00     0.043 C 
ATOM     67  O3  NAG d1175      13.660 -16.097   1.194  0.00  0.00    -0.348 OA
ATOM     68  C2  NAG d1175      14.947 -17.097  -0.562  0.00  0.00     0.087 C 
ATOM     69  O6  NAG d1175      14.818 -22.062   0.538  0.00  0.00    -0.398 OA
ATOM     70  O1  NAG d1175      15.901 -18.323  -2.423  0.00  0.00    -0.369 OA
ATOM     71  C7  NAG d1175      15.533 -15.152  -1.922  0.00  0.00     0.214 C 
ATOM     72  N2  NAG d1175      15.742 -15.905  -0.841  0.00  0.00    -0.349 N 
ATOM     73  C5  NAG d1175      14.766 -19.693   0.694  0.00  0.00     0.089 C 
ATOM     74  O5  NAG d1175      14.859 -19.494  -0.709  0.00  0.00    -0.349 OA
ATOM     75  C4  NAG d1175      14.071 -18.520   1.390  0.00  0.00     0.089 C 
ATOM     76  O4  NAG d1175      14.244 -18.698   2.783  0.00  0.00    -0.390 OA
ATOM     77  O7  NAG d1175      14.433 -14.656  -2.194  0.00  0.00    -0.274 OA
ATOM     78  C1  NAG d1175      15.663 -18.370  -1.030  0.00  0.00     0.151 C 
ATOM     79  C8  NAG d1175      16.731 -14.921  -2.802  0.00  0.00    -0.003 C 
ATOM     80  C3  NAG d1175      14.595 -17.145   0.935  0.00  0.00     0.093 C 
ATOM     81  H   NAG d1175      13.084 -20.994   0.475  0.00  0.00     0.078 H 
ATOM     82  H   NAG d1175      13.838 -21.080   2.038  0.00  0.00     0.078 H 
ATOM     83  H   NAG d1175      14.034 -17.045  -1.118  0.00  0.00     0.084 H 
ATOM     84  H   NAG d1175      14.979 -21.969  -0.414  0.00  0.00     0.209 HD
ATOM     85  H   NAG d1175      16.452 -17.552  -2.631  0.00  0.00     0.212 HD
ATOM     86  H   NAG d1175      16.455 -15.650  -0.211  0.00  0.00     0.163 HD
ATOM     87  H   NAG d1175      15.762 -19.755   1.080  0.00  0.00     0.090 H 
ATOM     88  H   NAG d1175      13.035 -18.520   1.124  0.00  0.00     0.091 H 
ATOM     89  H   NAG d1175      15.191 -18.694   2.995  0.00  0.00     0.210 HD
ATOM     90  H   NAG d1175      16.609 -18.448  -0.533  0.00  0.00     0.132 H 
ATOM     91  H   NAG d1175      17.578 -15.432  -2.395  0.00  0.00     0.040 H 
ATOM     92  H   NAG d1175      16.939 -13.873  -2.853  0.00  0.00     0.040 H 
ATOM     93  H   NAG d1175      16.529 -15.293  -3.785  0.00  0.00     0.040 H 
ATOM     94  H   NAG d1175      15.485 -16.996   1.511  0.00  0.00     0.091 H 
ATOM     95  C4  NAG d1181      -1.475 -18.006  21.886  0.00  0.00     0.089 C 
ATOM     96  C3  NAG d1181      -1.697 -16.504  22.088  0.00  0.00     0.086 C 
ATOM     97  C6  NAG d1181       0.125 -19.805  21.105  0.00  0.00     0.043 C 
ATOM     98  C5  NAG d1181      -0.019 -18.341  21.530  0.00  0.00     0.089 C 
ATOM     99  C7  NAG d1181      -1.813 -13.437  20.542  0.00  0.00     0.214 C 
ATOM    100  C8  NAG d1181      -1.437 -13.241  19.098  0.00  0.00    -0.003 C 
ATOM    101  N2  NAG d1181      -1.058 -14.275  21.253  0.00  0.00    -0.349 N 
ATOM    102  O3  NAG d1181      -3.086 -16.211  22.132  0.00  0.00    -0.391 OA
ATOM    103  C1  NAG d1181       0.418 -16.148  20.750  0.00  0.00     0.154 C 
ATOM    104  O6  NAG d1181       1.474 -20.210  21.214  0.00  0.00    -0.398 OA
ATOM    105  O5  NAG d1181       0.452 -17.527  20.470  0.00  0.00    -0.349 OA
ATOM    106  O7  NAG d1181      -2.779 -12.848  21.032  0.00  0.00    -0.274 OA
ATOM    107  O4  NAG d1181      -1.843 -18.692  23.061  0.00  0.00    -0.390 OA
ATOM    108  C2  NAG d1181      -1.026 -15.702  20.970  0.00  0.00     0.087 C 
ATOM    109  H   NAG d1181      -2.083 -18.315  21.061  0.00  0.00     0.091 H 
ATOM    110  H   NAG d1181      -1.255 -16.223  23.021  0.00  0.00     0.090 H 
ATOM    111  H   NAG d1181      -0.196 -19.912  20.090  0.00  0.00     0.078 H 
ATOM    112  H   NAG d1181      -0.477 -20.416  21.744  0.00  0.00     0.078 H 
ATOM    113  H   NAG d1181       0.560 -18.160  22.412  0.00  0.00     0.090 H 
ATOM    114  H   NAG d1181      -0.578 -13.835  18.869  0.00  0.00     0.040 H 
ATOM    115  H   NAG d1181      -1.214 -12.208  18.925  0.00  0.00     0.040 H 
ATOM    116  H   NAG d1181      -2.254 -13.538  18.473  0.00  0.00     0.040 H 
ATOM    117  H   NAG d1181      -0.509 -13.919  21.989  0.00  0.00     0.163 HD
ATOM    118  H   NAG d1181      -3.496 -16.462  21.290  0.00  0.00     0.210 HD
ATOM    119  H   NAG d1181       1.009 -15.986  21.627  0.00  0.00     0.132 H 
ATOM    120  H   NAG d1181       2.024 -19.659  20.637  0.00  0.00     0.209 HD
ATOM    121  H   NAG d1181      -1.282 -18.400  23.795  0.00  0.00     0.210 HD
ATOM    122  H   NAG d1181      -1.582 -15.891  20.075  0.00  0.00     0.084 H 
ATOM    123  C7  NAG d1179       6.635 -15.340  14.450  0.00  0.00     0.214 C 
ATOM    124  C1  NAG d1179       8.137 -12.458  15.572  0.00  0.00     0.154 C 
ATOM    125  C2  NAG d1179       7.317 -13.652  16.045  0.00  0.00     0.087 C 
ATOM    126  O5  NAG d1179       8.904 -11.947  16.641  0.00  0.00    -0.349 OA
ATOM    127  O7  NAG d1179       7.061 -16.297  15.094  0.00  0.00    -0.274 OA
ATOM    128  O4  NAG d1179       6.637 -12.331  19.480  0.00  0.00    -0.390 OA
ATOM    129  N2  NAG d1179       6.450 -14.133  14.981  0.00  0.00    -0.349 N 
ATOM    130  C8  NAG d1179       6.303 -15.514  13.000  0.00  0.00    -0.003 C 
ATOM    131  O3  NAG d1179       6.086 -14.639  17.835  0.00  0.00    -0.348 OA
ATOM    132  C4  NAG d1179       7.415 -12.717  18.366  0.00  0.00     0.089 C 
ATOM    133  C5  NAG d1179       8.121 -11.513  17.740  0.00  0.00     0.089 C 
ATOM    134  O6  NAG d1179       9.991 -11.660  19.277  0.00  0.00    -0.398 OA
ATOM    135  C3  NAG d1179       6.528 -13.394  17.327  0.00  0.00     0.093 C 
ATOM    136  C6  NAG d1179       9.021 -10.781  18.736  0.00  0.00     0.043 C 
ATOM    137  H   NAG d1179       7.539 -11.639  15.231  0.00  0.00     0.132 H 
ATOM    138  H   NAG d1179       8.024 -14.416  16.295  0.00  0.00     0.084 H 
ATOM    139  H   NAG d1179       6.202 -13.112  19.856  0.00  0.00     0.210 HD
ATOM    140  H   NAG d1179       5.719 -13.561  14.651  0.00  0.00     0.163 HD
ATOM    141  H   NAG d1179       5.950 -14.587  12.601  0.00  0.00     0.040 H 
ATOM    142  H   NAG d1179       5.542 -16.260  12.896  0.00  0.00     0.040 H 
ATOM    143  H   NAG d1179       7.178 -15.821  12.467  0.00  0.00     0.040 H 
ATOM    144  H   NAG d1179       8.163 -13.404  18.702  0.00  0.00     0.091 H 
ATOM    145  H   NAG d1179       7.364 -10.826  17.422  0.00  0.00     0.090 H 
ATOM    146  H   NAG d1179      10.551 -11.177  19.905  0.00  0.00     0.209 HD
ATOM    147  H   NAG d1179       5.697 -12.755  17.114  0.00  0.00     0.091 H 
ATOM    148  H   NAG d1179       8.420 -10.389  19.530  0.00  0.00     0.078 H 
ATOM    149  H   NAG d1179       9.525  -9.987  18.224  0.00  0.00     0.078 H 
ATOM    150  C6  BDP d1180       2.498 -13.030  20.458  0.00  0.00     0.206 C 
ATOM    151  O3  BDP d1180       2.669 -17.716  18.906  0.00  0.00    -0.390 OA
ATOM    152  C1  BDP d1180       4.661 -14.688  18.003  0.00  0.00     0.160 C 
ATOM    153  O2  BDP d1180       4.255 -16.561  16.602  0.00  0.00    -0.388 OA
ATOM    154  C3  BDP d1180       2.774 -16.378  18.464  0.00  0.00     0.092 C 
ATOM    155  O4  BDP d1180       0.956 -15.376  19.664  0.00  0.00    -0.348 OA
ATOM    156  O5  BDP d1180       4.289 -14.089  19.224  0.00  0.00    -0.340 OA
ATOM    157  C5  BDP d1180       2.885 -14.023  19.360  0.00  0.00     0.152 C 
ATOM    158  O6B BDP d1180       3.037 -13.150  21.586  0.00  0.00    -0.646 OA
ATOM    159  O6A BDP d1180       1.669 -12.135  20.162  0.00  0.00    -0.646 OA
ATOM    160  C2  BDP d1180       4.201 -16.145  17.950  0.00  0.00     0.110 C 
ATOM    161  C4  BDP d1180       2.363 -15.437  19.601  0.00  0.00     0.103 C 
ATOM    162  H   BDP d1180       2.930 -18.315  18.189  0.00  0.00     0.210 HD
ATOM    163  H   BDP d1180       4.189 -14.142  17.213  0.00  0.00     0.133 H 
ATOM    164  H   BDP d1180       5.150 -16.422  16.256  0.00  0.00     0.210 HD
ATOM    165  H   BDP d1180       2.110 -16.174  17.650  0.00  0.00     0.091 H 
ATOM    166  H   BDP d1180       2.427 -13.651  18.468  0.00  0.00     0.104 H 
ATOM    167  H   BDP d1180       4.850 -16.701  18.593  0.00  0.00     0.094 H 
ATOM    168  H   BDP d1180       2.776 -15.817  20.512  0.00  0.00     0.092 H 
ENDROOT
TORSDOF 43
ENDMDL
MODEL 19
REMARK VINA RESULT:      -7.2      7.063     17.616
REMARK  0 active torsions:
REMARK  status: ('A' for Active; 'I' for Inactive)
REMARK       I    between atoms: C1_1  and  O3_15 
REMARK       I    between atoms: C1_2  and  O3_93 
REMARK       I    between atoms: C6_3  and  C5_89 
REMARK       I    between atoms: C6_3  and  O6_76 
REMARK       I    between atoms: O3_4  and  C3_22 
REMARK       I    between atoms: C6_5  and  C5_48 
REMARK       I    between atoms: C6_5  and  O6_31 
REMARK       I    between atoms: C4_6  and  O4_74 
REMARK       I    between atoms: C7_7  and  C8_62 
REMARK       I    between atoms: C7_7  and  N2_60 
REMARK       I    between atoms: C6_8  and  C5_52 
REMARK       I    between atoms: C3_9  and  O3_38 
REMARK       I    between atoms: C1_10  and  O4_75 
REMARK       I    between atoms: C6_12  and  C5_51 
REMARK       I    between atoms: O3_13  and  C3_42 
REMARK       I    between atoms: O4_14  and  C4_84 
REMARK       I    between atoms: O3_15  and  C3_86 
REMARK       I    between atoms: C6_16  and  C5_23 
REMARK       I    between atoms: C6_16  and  O6_58 
REMARK       I    between atoms: C1_17  and  O3_63 
REMARK       I    between atoms: C2_18  and  N2_60 
REMARK       I    between atoms: C2_19  and  N2_53 
REMARK       I    between atoms: O2_20  and  C2_66 
REMARK       I    between atoms: C3_25  and  O3_93 
REMARK       I    between atoms: C7_26  and  C8_32 
REMARK       I    between atoms: C7_26  and  N2_37 
REMARK       I    between atoms: C2_28  and  N2_44 
REMARK       I    between atoms: C7_29  and  C8_54 
REMARK       I    between atoms: C7_29  and  N2_53 
REMARK       I    between atoms: O1_33  and  C1_80 
REMARK       I    between atoms: O4_34  and  C4_40 
REMARK       I    between atoms: O4_34  and  C1_92 
REMARK       I    between atoms: C7_36  and  C8_81 
REMARK       I    between atoms: C7_36  and  N2_44 
REMARK       I    between atoms: N2_37  and  C2_83 
REMARK       I    between atoms: O3_39  and  C3_61 
REMARK       I    between atoms: C1_41  and  O4_46 
REMARK       I    between atoms: O2_43  and  C2_73 
REMARK       I    between atoms: C6_45  and  C5_87 
REMARK       I    between atoms: O4_46  and  C4_67 
REMARK       I    between atoms: C4_50  and  O4_65 
REMARK       I    between atoms: C2_55  and  O2_82 
REMARK       I    between atoms: O4_57  and  C4_71 
REMARK       I    between atoms: O3_63  and  C3_85 
REMARK       I    between atoms: O4_75  and  C4_91 
REMARK       I    between atoms: C5_77  and  C6_90 
REMARK       I    between atoms: O6_79  and  C6_90 
ROOT
ATOM      1  C1  BDP d1176       2.909 -14.969  -6.101  0.00  0.00     0.160 C 
ATOM      2  O3  BDP d1176       3.917 -11.776  -4.381  0.00  0.00    -0.390 OA
ATOM      3  O5  BDP d1176       3.539 -15.697  -5.085  0.00  0.00    -0.340 OA
ATOM      4  O6A BDP d1176       4.875 -16.606  -2.910  0.00  0.00    -0.646 OA
ATOM      5  C3  BDP d1176       4.183 -12.945  -5.128  0.00  0.00     0.092 C 
ATOM      6  O4  BDP d1176       6.287 -13.529  -4.162  0.00  0.00    -0.348 OA
ATOM      7  C4  BDP d1176       4.935 -13.937  -4.253  0.00  0.00     0.103 C 
ATOM      8  C6  BDP d1176       5.479 -16.379  -3.977  0.00  0.00     0.206 C 
ATOM      9  C2  BDP d1176       2.888 -13.479  -5.736  0.00  0.00     0.110 C 
ATOM     10  O6B BDP d1176       6.525 -16.942  -4.362  0.00  0.00    -0.646 OA
ATOM     11  O2  BDP d1176       2.676 -12.733  -6.910  0.00  0.00    -0.388 OA
ATOM     12  C5  BDP d1176       4.870 -15.325  -4.877  0.00  0.00     0.152 C 
ATOM     13  H   BDP d1176       3.439 -15.073  -7.024  0.00  0.00     0.133 H 
ATOM     14  H   BDP d1176       3.437 -11.140  -4.935  0.00  0.00     0.210 HD
ATOM     15  H   BDP d1176       4.823 -12.739  -5.961  0.00  0.00     0.091 H 
ATOM     16  H   BDP d1176       4.492 -13.968  -3.280  0.00  0.00     0.092 H 
ATOM     17  H   BDP d1176       2.114 -13.381  -5.004  0.00  0.00     0.094 H 
ATOM     18  H   BDP d1176       3.417 -12.875  -7.521  0.00  0.00     0.210 HD
ATOM     19  H   BDP d1176       5.416 -15.270  -5.795  0.00  0.00     0.104 H 
ATOM     20  C1  BDP d1178      10.645 -12.765  -0.411  0.00  0.00     0.160 C 
ATOM     21  C6  BDP d1178      10.845 -12.501   3.302  0.00  0.00     0.206 C 
ATOM     22  O6B BDP d1178      10.785 -13.345   4.228  0.00  0.00    -0.646 OA
ATOM     23  O6A BDP d1178      10.749 -11.259   3.468  0.00  0.00    -0.646 OA
ATOM     24  O3  BDP d1178      14.303 -13.361  -0.003  0.00  0.00    -0.390 OA
ATOM     25  O2  BDP d1178      12.410 -12.989  -2.038  0.00  0.00    -0.388 OA
ATOM     26  C5  BDP d1178      11.075 -13.058   1.896  0.00  0.00     0.152 C 
ATOM     27  C3  BDP d1178      12.918 -13.504   0.220  0.00  0.00     0.092 C 
ATOM     28  C2  BDP d1178      12.132 -12.615  -0.712  0.00  0.00     0.110 C 
ATOM     29  O4  BDP d1178      13.057 -14.222   2.432  0.00  0.00    -0.348 OA
ATOM     30  O5  BDP d1178      10.396 -12.304   0.899  0.00  0.00    -0.340 OA
ATOM     31  C4  BDP d1178      12.578 -13.159   1.660  0.00  0.00     0.103 C 
ATOM     32  H   BDP d1178      10.316 -13.783  -0.438  0.00  0.00     0.133 H 
ATOM     33  H   BDP d1178      14.507 -13.584  -0.924  0.00  0.00     0.210 HD
ATOM     34  H   BDP d1178      11.909 -12.423  -2.645  0.00  0.00     0.210 HD
ATOM     35  H   BDP d1178      10.652 -14.038   1.821  0.00  0.00     0.104 H 
ATOM     36  H   BDP d1178      12.654 -14.522   0.029  0.00  0.00     0.091 H 
ATOM     37  H   BDP d1178      12.409 -11.591  -0.575  0.00  0.00     0.094 H 
ATOM     38  H   BDP d1178      13.010 -12.211   1.908  0.00  0.00     0.092 H 
ATOM     39  C6  NAG d1177       5.513  -9.895  -1.188  0.00  0.00     0.043 C 
ATOM     40  O4  NAG d1177       8.144 -10.518   0.083  0.00  0.00    -0.390 OA
ATOM     41  C2  NAG d1177       8.147 -12.940  -2.754  0.00  0.00     0.087 C 
ATOM     42  C3  NAG d1177       8.545 -12.297  -1.433  0.00  0.00     0.093 C 
ATOM     43  C7  NAG d1177       9.478 -14.721  -3.817  0.00  0.00     0.214 C 
ATOM     44  N2  NAG d1177       8.735 -14.271  -2.810  0.00  0.00    -0.349 N 
ATOM     45  C8  NAG d1177       9.661 -16.209  -3.851  0.00  0.00    -0.003 C 
ATOM     46  O7  NAG d1177      10.010 -14.004  -4.671  0.00  0.00    -0.274 OA
ATOM     47  O6  NAG d1177       5.071  -9.408  -2.442  0.00  0.00    -0.398 OA
ATOM     48  C4  NAG d1177       7.814 -10.981  -1.212  0.00  0.00     0.089 C 
ATOM     49  O5  NAG d1177       6.032 -11.730  -2.645  0.00  0.00    -0.349 OA
ATOM     50  C5  NAG d1177       6.308 -11.188  -1.371  0.00  0.00     0.089 C 
ATOM     51  C1  NAG d1177       6.623 -12.999  -2.871  0.00  0.00     0.154 C 
ATOM     52  O3  NAG d1177       9.930 -12.039  -1.425  0.00  0.00    -0.348 OA
ATOM     53  H   NAG d1177       6.137  -9.160  -0.725  0.00  0.00     0.078 H 
ATOM     54  H   NAG d1177       4.661 -10.095  -0.572  0.00  0.00     0.078 H 
ATOM     55  H   NAG d1177       9.104 -10.398   0.148  0.00  0.00     0.210 HD
ATOM     56  H   NAG d1177       8.509 -12.361  -3.578  0.00  0.00     0.084 H 
ATOM     57  H   NAG d1177       8.282 -12.978  -0.651  0.00  0.00     0.091 H 
ATOM     58  H   NAG d1177       8.572 -14.878  -2.052  0.00  0.00     0.163 HD
ATOM     59  H   NAG d1177       9.128 -16.652  -3.036  0.00  0.00     0.040 H 
ATOM     60  H   NAG d1177      10.702 -16.442  -3.765  0.00  0.00     0.040 H 
ATOM     61  H   NAG d1177       9.284 -16.594  -4.775  0.00  0.00     0.040 H 
ATOM     62  H   NAG d1177       5.837  -9.225  -3.007  0.00  0.00     0.209 HD
ATOM     63  H   NAG d1177       8.109 -10.251  -1.936  0.00  0.00     0.091 H 
ATOM     64  H   NAG d1177       6.001 -11.864  -0.601  0.00  0.00     0.090 H 
ATOM     65  H   NAG d1177       6.229 -13.644  -2.114  0.00  0.00     0.132 H 
ATOM     66  C6  NAG d1175       0.711 -20.297  -6.697  0.00  0.00     0.043 C 
ATOM     67  O3  NAG d1175       1.567 -15.482  -6.256  0.00  0.00    -0.348 OA
ATOM     68  C2  NAG d1175       0.165 -16.257  -8.037  0.00  0.00     0.087 C 
ATOM     69  O6  NAG d1175       0.368 -21.322  -7.601  0.00  0.00    -0.398 OA
ATOM     70  O1  NAG d1175      -1.474 -17.226  -9.538  0.00  0.00    -0.369 OA
ATOM     71  C7  NAG d1175      -0.617 -14.155  -9.010  0.00  0.00     0.214 C 
ATOM     72  N2  NAG d1175       0.341 -15.073  -8.872  0.00  0.00    -0.349 N 
ATOM     73  C5  NAG d1175       0.873 -19.003  -7.486  0.00  0.00     0.089 C 
ATOM     74  O5  NAG d1175      -0.381 -18.597  -8.016  0.00  0.00    -0.349 OA
ATOM     75  C4  NAG d1175       1.494 -17.922  -6.600  0.00  0.00     0.089 C 
ATOM     76  O4  NAG d1175       2.825 -18.318  -6.326  0.00  0.00    -0.390 OA
ATOM     77  O7  NAG d1175      -1.137 -13.576  -8.048  0.00  0.00    -0.274 OA
ATOM     78  C1  NAG d1175      -0.251 -17.475  -8.873  0.00  0.00     0.151 C 
ATOM     79  C8  NAG d1175      -1.031 -13.845 -10.422  0.00  0.00    -0.003 C 
ATOM     80  C3  NAG d1175       1.450 -16.517  -7.231  0.00  0.00     0.093 C 
ATOM     81  H   NAG d1175      -0.063 -20.182  -5.967  0.00  0.00     0.078 H 
ATOM     82  H   NAG d1175       1.623 -20.538  -6.191  0.00  0.00     0.078 H 
ATOM     83  H   NAG d1175      -0.633 -16.081  -7.345  0.00  0.00     0.084 H 
ATOM     84  H   NAG d1175      -0.459 -21.091  -8.053  0.00  0.00     0.209 HD
ATOM     85  H   NAG d1175      -1.375 -16.456 -10.120  0.00  0.00     0.212 HD
ATOM     86  H   NAG d1175       1.194 -14.948  -9.348  0.00  0.00     0.163 HD
ATOM     87  H   NAG d1175       1.536 -19.167  -8.310  0.00  0.00     0.090 H 
ATOM     88  H   NAG d1175       0.921 -17.836  -5.700  0.00  0.00     0.091 H 
ATOM     89  H   NAG d1175       3.320 -18.387  -7.158  0.00  0.00     0.210 HD
ATOM     90  H   NAG d1175       0.497 -17.669  -9.614  0.00  0.00     0.132 H 
ATOM     91  H   NAG d1175      -0.467 -14.450 -11.101  0.00  0.00     0.040 H 
ATOM     92  H   NAG d1175      -0.848 -12.812 -10.629  0.00  0.00     0.040 H 
ATOM     93  H   NAG d1175      -2.074 -14.054 -10.542  0.00  0.00     0.040 H 
ATOM     94  H   NAG d1175       2.290 -16.497  -7.893  0.00  0.00     0.091 H 
ATOM     95  C4  NAG d1181      15.919 -19.858  14.618  0.00  0.00     0.089 C 
ATOM     96  C3  NAG d1181      16.277 -18.397  14.903  0.00  0.00     0.086 C 
ATOM     97  C6  NAG d1181      15.402 -21.586  12.842  0.00  0.00     0.043 C 
ATOM     98  C5  NAG d1181      15.987 -20.199  13.122  0.00  0.00     0.089 C 
ATOM     99  C7  NAG d1181      15.279 -15.128  14.545  0.00  0.00     0.214 C 
ATOM    100  C8  NAG d1181      14.075 -14.730  13.735  0.00  0.00    -0.003 C 
ATOM    101  N2  NAG d1181      16.048 -16.097  14.048  0.00  0.00    -0.349 N 
ATOM    102  O3  NAG d1181      15.931 -18.053  16.236  0.00  0.00    -0.391 OA
ATOM    103  C1  NAG d1181      15.740 -17.934  12.476  0.00  0.00     0.154 C 
ATOM    104  O6  NAG d1181      15.861 -22.062  11.593  0.00  0.00    -0.398 OA
ATOM    105  O5  NAG d1181      15.270 -19.254  12.346  0.00  0.00    -0.349 OA
ATOM    106  O7  NAG d1181      15.530 -14.578  15.620  0.00  0.00    -0.274 OA
ATOM    107  O4  NAG d1181      16.795 -20.699  15.334  0.00  0.00    -0.390 OA
ATOM    108  C2  NAG d1181      15.566 -17.464  13.919  0.00  0.00     0.087 C 
ATOM    109  H   NAG d1181      14.907 -20.011  14.933  0.00  0.00     0.091 H 
ATOM    110  H   NAG d1181      17.333 -18.281  14.779  0.00  0.00     0.090 H 
ATOM    111  H   NAG d1181      14.334 -21.523  12.826  0.00  0.00     0.078 H 
ATOM    112  H   NAG d1181      15.715 -22.260  13.611  0.00  0.00     0.078 H 
ATOM    113  H   NAG d1181      17.022 -20.180  12.852  0.00  0.00     0.090 H 
ATOM    114  H   NAG d1181      14.034 -15.320  12.843  0.00  0.00     0.040 H 
ATOM    115  H   NAG d1181      14.147 -13.695  13.475  0.00  0.00     0.040 H 
ATOM    116  H   NAG d1181      13.187 -14.893  14.311  0.00  0.00     0.040 H 
ATOM    117  H   NAG d1181      16.965 -15.882  13.761  0.00  0.00     0.163 HD
ATOM    118  H   NAG d1181      14.974 -18.155  16.359  0.00  0.00     0.210 HD
ATOM    119  H   NAG d1181      16.772 -17.934  12.192  0.00  0.00     0.132 H 
ATOM    120  H   NAG d1181      15.579 -21.453  10.893  0.00  0.00     0.209 HD
ATOM    121  H   NAG d1181      17.705 -20.547  15.035  0.00  0.00     0.210 HD
ATOM    122  H   NAG d1181      14.524 -17.490  14.163  0.00  0.00     0.084 H 
ATOM    123  C7  NAG d1179      11.909 -16.448   4.595  0.00  0.00     0.214 C 
ATOM    124  C1  NAG d1179      13.886 -13.840   3.543  0.00  0.00     0.154 C 
ATOM    125  C2  NAG d1179      13.884 -15.054   4.462  0.00  0.00     0.087 C 
ATOM    126  O5  NAG d1179      15.208 -13.532   3.155  0.00  0.00    -0.349 OA
ATOM    127  O7  NAG d1179      12.494 -17.510   4.388  0.00  0.00    -0.274 OA
ATOM    128  O4  NAG d1179      17.099 -14.244   6.198  0.00  0.00    -0.390 OA
ATOM    129  N2  NAG d1179      12.540 -15.329   4.946  0.00  0.00    -0.349 N 
ATOM    130  C8  NAG d1179      10.420 -16.384   4.452  0.00  0.00    -0.003 C 
ATOM    131  O3  NAG d1179      15.019 -16.248   6.188  0.00  0.00    -0.348 OA
ATOM    132  C4  NAG d1179      16.237 -14.490   5.107  0.00  0.00     0.089 C 
ATOM    133  C5  NAG d1179      16.062 -13.236   4.247  0.00  0.00     0.089 C 
ATOM    134  O6  NAG d1179      18.062 -13.697   2.957  0.00  0.00    -0.398 OA
ATOM    135  C3  NAG d1179      14.879 -14.961   5.616  0.00  0.00     0.093 C 
ATOM    136  C6  NAG d1179      17.392 -12.704   3.712  0.00  0.00     0.043 C 
ATOM    137  H   NAG d1179      13.510 -12.953   4.008  0.00  0.00     0.132 H 
ATOM    138  H   NAG d1179      14.217 -15.878   3.865  0.00  0.00     0.084 H 
ATOM    139  H   NAG d1179      17.191 -15.054   6.725  0.00  0.00     0.210 HD
ATOM    140  H   NAG d1179      12.093 -14.682   5.539  0.00  0.00     0.163 HD
ATOM    141  H   NAG d1179      10.083 -15.392   4.667  0.00  0.00     0.040 H 
ATOM    142  H   NAG d1179       9.966 -17.072   5.136  0.00  0.00     0.040 H 
ATOM    143  H   NAG d1179      10.145 -16.644   3.452  0.00  0.00     0.040 H 
ATOM    144  H   NAG d1179      16.676 -15.252   4.498  0.00  0.00     0.091 H 
ATOM    145  H   NAG d1179      15.636 -12.477   4.870  0.00  0.00     0.090 H 
ATOM    146  H   NAG d1179      18.902 -13.341   2.627  0.00  0.00     0.209 HD
ATOM    147  H   NAG d1179      14.522 -14.261   6.342  0.00  0.00     0.091 H 
ATOM    148  H   NAG d1179      18.010 -12.413   4.535  0.00  0.00     0.078 H 
ATOM    149  H   NAG d1179      17.195 -11.865   3.078  0.00  0.00     0.078 H 
ATOM    150  C6  BDP d1180      16.611 -14.902  10.430  0.00  0.00     0.206 C 
ATOM    151  O3  BDP d1180      14.468 -19.299   9.748  0.00  0.00    -0.390 OA
ATOM    152  C1  BDP d1180      14.724 -16.259   7.593  0.00  0.00     0.160 C 
ATOM    153  O2  BDP d1180      12.988 -17.878   7.524  0.00  0.00    -0.388 OA
ATOM    154  C3  BDP d1180      14.299 -17.916   9.518  0.00  0.00     0.092 C 
ATOM    155  O4  BDP d1180      15.014 -17.029  11.628  0.00  0.00    -0.348 OA
ATOM    156  O5  BDP d1180      15.847 -15.838   8.334  0.00  0.00    -0.340 OA
ATOM    157  C5  BDP d1180      15.546 -15.732   9.711  0.00  0.00     0.152 C 
ATOM    158  O6B BDP d1180      17.817 -15.216  10.274  0.00  0.00    -0.646 OA
ATOM    159  O6A BDP d1180      16.217 -13.937  11.129  0.00  0.00    -0.646 OA
ATOM    160  C2  BDP d1180      14.300 -17.670   8.003  0.00  0.00     0.110 C 
ATOM    161  C4  BDP d1180      15.384 -17.142  10.272  0.00  0.00     0.103 C 
ATOM    162  H   BDP d1180      13.783 -19.793   9.271  0.00  0.00     0.210 HD
ATOM    163  H   BDP d1180      13.924 -15.579   7.796  0.00  0.00     0.133 H 
ATOM    164  H   BDP d1180      12.965 -17.727   6.566  0.00  0.00     0.210 HD
ATOM    165  H   BDP d1180      13.362 -17.561   9.892  0.00  0.00     0.091 H 
ATOM    166  H   BDP d1180      14.626 -15.209   9.867  0.00  0.00     0.104 H 
ATOM    167  H   BDP d1180      15.017 -18.345   7.586  0.00  0.00     0.094 H 
ATOM    168  H   BDP d1180      16.306 -17.674  10.165  0.00  0.00     0.092 H 
ENDROOT
TORSDOF 43
ENDMDL
MODEL 20
REMARK VINA RESULT:      -7.2      3.922      4.952
REMARK  0 active torsions:
REMARK  status: ('A' for Active; 'I' for Inactive)
REMARK       I    between atoms: C1_1  and  O3_15 
REMARK       I    between atoms: C1_2  and  O3_93 
REMARK       I    between atoms: C6_3  and  C5_89 
REMARK       I    between atoms: C6_3  and  O6_76 
REMARK       I    between atoms: O3_4  and  C3_22 
REMARK       I    between atoms: C6_5  and  C5_48 
REMARK       I    between atoms: C6_5  and  O6_31 
REMARK       I    between atoms: C4_6  and  O4_74 
REMARK       I    between atoms: C7_7  and  C8_62 
REMARK       I    between atoms: C7_7  and  N2_60 
REMARK       I    between atoms: C6_8  and  C5_52 
REMARK       I    between atoms: C3_9  and  O3_38 
REMARK       I    between atoms: C1_10  and  O4_75 
REMARK       I    between atoms: C6_12  and  C5_51 
REMARK       I    between atoms: O3_13  and  C3_42 
REMARK       I    between atoms: O4_14  and  C4_84 
REMARK       I    between atoms: O3_15  and  C3_86 
REMARK       I    between atoms: C6_16  and  C5_23 
REMARK       I    between atoms: C6_16  and  O6_58 
REMARK       I    between atoms: C1_17  and  O3_63 
REMARK       I    between atoms: C2_18  and  N2_60 
REMARK       I    between atoms: C2_19  and  N2_53 
REMARK       I    between atoms: O2_20  and  C2_66 
REMARK       I    between atoms: C3_25  and  O3_93 
REMARK       I    between atoms: C7_26  and  C8_32 
REMARK       I    between atoms: C7_26  and  N2_37 
REMARK       I    between atoms: C2_28  and  N2_44 
REMARK       I    between atoms: C7_29  and  C8_54 
REMARK       I    between atoms: C7_29  and  N2_53 
REMARK       I    between atoms: O1_33  and  C1_80 
REMARK       I    between atoms: O4_34  and  C4_40 
REMARK       I    between atoms: O4_34  and  C1_92 
REMARK       I    between atoms: C7_36  and  C8_81 
REMARK       I    between atoms: C7_36  and  N2_44 
REMARK       I    between atoms: N2_37  and  C2_83 
REMARK       I    between atoms: O3_39  and  C3_61 
REMARK       I    between atoms: C1_41  and  O4_46 
REMARK       I    between atoms: O2_43  and  C2_73 
REMARK       I    between atoms: C6_45  and  C5_87 
REMARK       I    between atoms: O4_46  and  C4_67 
REMARK       I    between atoms: C4_50  and  O4_65 
REMARK       I    between atoms: C2_55  and  O2_82 
REMARK       I    between atoms: O4_57  and  C4_71 
REMARK       I    between atoms: O3_63  and  C3_85 
REMARK       I    between atoms: O4_75  and  C4_91 
REMARK       I    between atoms: C5_77  and  C6_90 
REMARK       I    between atoms: O6_79  and  C6_90 
ROOT
ATOM      1  C1  BDP d1176      12.359 -15.242  18.136  0.00  0.00     0.160 C 
ATOM      2  O3  BDP d1176      14.767 -13.253  16.034  0.00  0.00    -0.390 OA
ATOM      3  O5  BDP d1176      11.854 -15.833  16.971  0.00  0.00    -0.340 OA
ATOM      4  O6A BDP d1176      11.254 -16.659  14.461  0.00  0.00    -0.646 OA
ATOM      5  C3  BDP d1176      13.479 -13.563  16.526  0.00  0.00     0.092 C 
ATOM      6  O4  BDP d1176      12.221 -13.182  14.533  0.00  0.00    -0.348 OA
ATOM      7  C4  BDP d1176      12.658 -14.199  15.414  0.00  0.00     0.103 C 
ATOM      8  C6  BDP d1176      10.672 -15.678  14.962  0.00  0.00     0.206 C 
ATOM      9  C2  BDP d1176      13.596 -14.401  17.797  0.00  0.00     0.110 C 
ATOM     10  O6B BDP d1176       9.520 -15.286  14.682  0.00  0.00    -0.646 OA
ATOM     11  O2  BDP d1176      13.817 -13.486  18.843  0.00  0.00    -0.388 OA
ATOM     12  C5  BDP d1176      11.446 -14.904  16.008  0.00  0.00     0.152 C 
ATOM     13  H   BDP d1176      11.631 -14.594  18.576  0.00  0.00     0.133 H 
ATOM     14  H   BDP d1176      15.294 -12.847  16.740  0.00  0.00     0.210 HD
ATOM     15  H   BDP d1176      12.949 -12.680  16.818  0.00  0.00     0.091 H 
ATOM     16  H   BDP d1176      13.257 -14.912  14.887  0.00  0.00     0.092 H 
ATOM     17  H   BDP d1176      14.386 -15.108  17.654  0.00  0.00     0.094 H 
ATOM     18  H   BDP d1176      13.060 -12.882  18.909  0.00  0.00     0.210 HD
ATOM     19  H   BDP d1176      10.828 -14.140  16.430  0.00  0.00     0.104 H 
ATOM     20  C1  BDP d1178      11.718 -11.832   8.914  0.00  0.00     0.160 C 
ATOM     21  C6  BDP d1178      13.204 -13.203   5.782  0.00  0.00     0.206 C 
ATOM     22  O6B BDP d1178      12.972 -14.229   5.099  0.00  0.00    -0.646 OA
ATOM     23  O6A BDP d1178      14.227 -12.485   5.658  0.00  0.00    -0.646 OA
ATOM     24  O3  BDP d1178       9.355 -10.313   6.462  0.00  0.00    -0.390 OA
ATOM     25  O2  BDP d1178       9.933 -10.238   9.205  0.00  0.00    -0.388 OA
ATOM     26  C5  BDP d1178      12.133 -12.819   6.805  0.00  0.00     0.152 C 
ATOM     27  C3  BDP d1178      10.124 -11.309   7.099  0.00  0.00     0.092 C 
ATOM     28  C2  BDP d1178      10.866 -10.737   8.280  0.00  0.00     0.110 C 
ATOM     29  O4  BDP d1178      10.358 -12.712   5.253  0.00  0.00    -0.348 OA
ATOM     30  O5  BDP d1178      12.692 -12.248   7.983  0.00  0.00    -0.340 OA
ATOM     31  C4  BDP d1178      11.114 -11.916   6.119  0.00  0.00     0.103 C 
ATOM     32  H   BDP d1178      11.152 -12.705   9.167  0.00  0.00     0.133 H 
ATOM     33  H   BDP d1178       8.727  -9.934   7.096  0.00  0.00     0.210 HD
ATOM     34  H   BDP d1178      10.401  -9.868   9.969  0.00  0.00     0.210 HD
ATOM     35  H   BDP d1178      11.631 -13.699   7.151  0.00  0.00     0.104 H 
ATOM     36  H   BDP d1178       9.458 -12.071   7.446  0.00  0.00     0.091 H 
ATOM     37  H   BDP d1178      11.508  -9.940   7.969  0.00  0.00     0.094 H 
ATOM     38  H   BDP d1178      11.654 -11.131   5.631  0.00  0.00     0.092 H 
ATOM     39  C6  NAG d1177      16.439 -12.481  12.444  0.00  0.00     0.043 C 
ATOM     40  O4  NAG d1177      14.969 -11.961   9.897  0.00  0.00    -0.390 OA
ATOM     41  C2  NAG d1177      12.125 -12.340  12.281  0.00  0.00     0.087 C 
ATOM     42  C3  NAG d1177      12.868 -12.264  10.955  0.00  0.00     0.093 C 
ATOM     43  C7  NAG d1177       9.665 -12.312  12.428  0.00  0.00     0.214 C 
ATOM     44  N2  NAG d1177      10.798 -12.885  12.031  0.00  0.00    -0.349 N 
ATOM     45  C8  NAG d1177       8.463 -13.207  12.403  0.00  0.00    -0.003 C 
ATOM     46  O7  NAG d1177       9.562 -11.132  12.781  0.00  0.00    -0.274 OA
ATOM     47  O6  NAG d1177      16.572 -11.841  13.700  0.00  0.00    -0.398 OA
ATOM     48  C4  NAG d1177      14.328 -11.886  11.155  0.00  0.00     0.089 C 
ATOM     49  O5  NAG d1177      14.253 -12.781  13.388  0.00  0.00    -0.349 OA
ATOM     50  C5  NAG d1177      14.975 -12.824  12.174  0.00  0.00     0.089 C 
ATOM     51  C1  NAG d1177      12.905 -13.206  13.271  0.00  0.00     0.154 C 
ATOM     52  O3  NAG d1177      12.270 -11.293  10.127  0.00  0.00    -0.348 OA
ATOM     53  H   NAG d1177      16.796 -11.828  11.676  0.00  0.00     0.078 H 
ATOM     54  H   NAG d1177      17.012 -13.386  12.452  0.00  0.00     0.078 H 
ATOM     55  H   NAG d1177      14.534 -11.355   9.277  0.00  0.00     0.210 HD
ATOM     56  H   NAG d1177      12.029 -11.366  12.714  0.00  0.00     0.084 H 
ATOM     57  H   NAG d1177      12.816 -13.232  10.501  0.00  0.00     0.091 H 
ATOM     58  H   NAG d1177      10.735 -13.733  11.535  0.00  0.00     0.163 HD
ATOM     59  H   NAG d1177       8.751 -14.183  12.073  0.00  0.00     0.040 H 
ATOM     60  H   NAG d1177       7.732 -12.805  11.732  0.00  0.00     0.040 H 
ATOM     61  H   NAG d1177       8.046 -13.273  13.386  0.00  0.00     0.040 H 
ATOM     62  H   NAG d1177      16.055 -11.020  13.701  0.00  0.00     0.209 HD
ATOM     63  H   NAG d1177      14.419 -10.893  11.541  0.00  0.00     0.091 H 
ATOM     64  H   NAG d1177      14.948 -13.808  11.756  0.00  0.00     0.090 H 
ATOM     65  H   NAG d1177      12.946 -14.213  12.913  0.00  0.00     0.132 H 
ATOM     66  C6  NAG d1175       9.498 -19.880  20.104  0.00  0.00     0.043 C 
ATOM     67  O3  NAG d1175      12.691 -16.297  19.067  0.00  0.00    -0.348 OA
ATOM     68  C2  NAG d1175      12.248 -16.835  21.359  0.00  0.00     0.087 C 
ATOM     69  O6  NAG d1175       8.603 -20.372  21.075  0.00  0.00    -0.398 OA
ATOM     70  O1  NAG d1175      11.907 -17.768  23.570  0.00  0.00    -0.369 OA
ATOM     71  C7  NAG d1175      13.859 -15.414  22.526  0.00  0.00     0.214 C 
ATOM     72  N2  NAG d1175      12.695 -15.550  21.887  0.00  0.00    -0.349 N 
ATOM     73  C5  NAG d1175      10.050 -18.549  20.600  0.00  0.00     0.089 C 
ATOM     74  O5  NAG d1175      10.859 -18.757  21.748  0.00  0.00    -0.349 OA
ATOM     75  C4  NAG d1175      10.822 -17.850  19.479  0.00  0.00     0.089 C 
ATOM     76  O4  NAG d1175       9.879 -17.477  18.491  0.00  0.00    -0.390 OA
ATOM     77  O7  NAG d1175      14.942 -15.749  22.031  0.00  0.00    -0.274 OA
ATOM     78  C1  NAG d1175      11.280 -17.531  22.324  0.00  0.00     0.151 C 
ATOM     79  C8  NAG d1175      13.786 -14.807  23.901  0.00  0.00    -0.003 C 
ATOM     80  C3  NAG d1175      11.632 -16.634  19.963  0.00  0.00     0.093 C 
ATOM     81  H   NAG d1175      10.299 -20.575  19.963  0.00  0.00     0.078 H 
ATOM     82  H   NAG d1175       8.994 -19.746  19.169  0.00  0.00     0.078 H 
ATOM     83  H   NAG d1175      13.093 -17.485  21.260  0.00  0.00     0.084 H 
ATOM     84  H   NAG d1175       9.070 -20.489  21.917  0.00  0.00     0.209 HD
ATOM     85  H   NAG d1175      12.191 -16.924  23.955  0.00  0.00     0.212 HD
ATOM     86  H   NAG d1175      12.121 -14.760  21.768  0.00  0.00     0.163 HD
ATOM     87  H   NAG d1175       9.241 -17.909  20.884  0.00  0.00     0.090 H 
ATOM     88  H   NAG d1175      11.551 -18.526  19.083  0.00  0.00     0.091 H 
ATOM     89  H   NAG d1175       9.231 -16.866  18.877  0.00  0.00     0.210 HD
ATOM     90  H   NAG d1175      10.432 -16.900  22.493  0.00  0.00     0.132 H 
ATOM     91  H   NAG d1175      12.766 -14.590  24.141  0.00  0.00     0.040 H 
ATOM     92  H   NAG d1175      14.357 -13.903  23.922  0.00  0.00     0.040 H 
ATOM     93  H   NAG d1175      14.182 -15.496  24.617  0.00  0.00     0.040 H 
ATOM     94  H   NAG d1175      10.917 -15.838  20.005  0.00  0.00     0.091 H 
ATOM     95  C4  NAG d1181       9.233 -20.381  -6.077  0.00  0.00     0.089 C 
ATOM     96  C3  NAG d1181      10.203 -19.304  -6.572  0.00  0.00     0.086 C 
ATOM     97  C6  NAG d1181       7.595 -21.061  -4.273  0.00  0.00     0.043 C 
ATOM     98  C5  NAG d1181       8.379 -19.903  -4.894  0.00  0.00     0.089 C 
ATOM     99  C7  NAG d1181      13.021 -17.487  -5.819  0.00  0.00     0.214 C 
ATOM    100  C8  NAG d1181      13.690 -17.546  -4.472  0.00  0.00    -0.003 C 
ATOM    101  N2  NAG d1181      11.688 -17.482  -5.832  0.00  0.00    -0.349 N 
ATOM    102  O3  NAG d1181      11.156 -19.867  -7.462  0.00  0.00    -0.391 OA
ATOM    103  C1  NAG d1181       9.927 -18.208  -4.311  0.00  0.00     0.154 C 
ATOM    104  O6  NAG d1181       6.513 -20.562  -3.513  0.00  0.00    -0.398 OA
ATOM    105  O5  NAG d1181       9.183 -19.322  -3.881  0.00  0.00    -0.349 OA
ATOM    106  O7  NAG d1181      13.687 -17.449  -6.857  0.00  0.00    -0.274 OA
ATOM    107  O4  NAG d1181       8.392 -20.771  -7.139  0.00  0.00    -0.390 OA
ATOM    108  C2  NAG d1181      10.916 -18.635  -5.394  0.00  0.00     0.087 C 
ATOM    109  H   NAG d1181       9.817 -21.209  -5.734  0.00  0.00     0.091 H 
ATOM    110  H   NAG d1181       9.639 -18.561  -7.095  0.00  0.00     0.090 H 
ATOM    111  H   NAG d1181       8.242 -21.627  -3.636  0.00  0.00     0.078 H 
ATOM    112  H   NAG d1181       7.215 -21.686  -5.053  0.00  0.00     0.078 H 
ATOM    113  H   NAG d1181       7.701 -19.172  -5.283  0.00  0.00     0.090 H 
ATOM    114  H   NAG d1181      12.945 -17.572  -3.705  0.00  0.00     0.040 H 
ATOM    115  H   NAG d1181      14.306 -16.680  -4.343  0.00  0.00     0.040 H 
ATOM    116  H   NAG d1181      14.295 -18.427  -4.412  0.00  0.00     0.040 H 
ATOM    117  H   NAG d1181      11.214 -16.677  -6.145  0.00  0.00     0.163 HD
ATOM    118  H   NAG d1181      11.673 -20.543  -6.996  0.00  0.00     0.210 HD
ATOM    119  H   NAG d1181       9.233 -17.486  -4.686  0.00  0.00     0.132 H 
ATOM    120  H   NAG d1181       6.852 -19.994  -2.804  0.00  0.00     0.209 HD
ATOM    121  H   NAG d1181       7.872 -20.008  -7.436  0.00  0.00     0.210 HD
ATOM    122  H   NAG d1181      11.583 -19.363  -4.980  0.00  0.00     0.084 H 
ATOM    123  C7  NAG d1179      10.207 -15.864   4.258  0.00  0.00     0.214 C 
ATOM    124  C1  NAG d1179      10.586 -12.472   3.854  0.00  0.00     0.154 C 
ATOM    125  C2  NAG d1179      10.049 -13.715   3.157  0.00  0.00     0.087 C 
ATOM    126  O5  NAG d1179       9.912 -11.326   3.381  0.00  0.00    -0.349 OA
ATOM    127  O7  NAG d1179       9.022 -16.160   4.123  0.00  0.00    -0.274 OA
ATOM    128  O4  NAG d1179       9.468 -12.088  -0.163  0.00  0.00    -0.390 OA
ATOM    129  N2  NAG d1179      10.798 -14.894   3.562  0.00  0.00    -0.349 N 
ATOM    130  C8  NAG d1179      11.048 -16.616   5.244  0.00  0.00    -0.003 C 
ATOM    131  O3  NAG d1179       9.186 -14.651   1.139  0.00  0.00    -0.348 OA
ATOM    132  C4  NAG d1179       9.366 -12.263   1.235  0.00  0.00     0.089 C 
ATOM    133  C5  NAG d1179      10.055 -11.122   1.986  0.00  0.00     0.089 C 
ATOM    134  O6  NAG d1179       8.090  -9.705   1.875  0.00  0.00    -0.398 OA
ATOM    135  C3  NAG d1179       9.989 -13.596   1.636  0.00  0.00     0.093 C 
ATOM    136  C6  NAG d1179       9.482  -9.752   1.620  0.00  0.00     0.043 C 
ATOM    137  H   NAG d1179      11.624 -12.292   3.665  0.00  0.00     0.132 H 
ATOM    138  H   NAG d1179       9.033 -13.817   3.475  0.00  0.00     0.084 H 
ATOM    139  H   NAG d1179       9.024 -12.824  -0.613  0.00  0.00     0.210 HD
ATOM    140  H   NAG d1179      11.749 -14.976   3.321  0.00  0.00     0.163 HD
ATOM    141  H   NAG d1179      12.045 -16.229   5.231  0.00  0.00     0.040 H 
ATOM    142  H   NAG d1179      11.064 -17.653   4.982  0.00  0.00     0.040 H 
ATOM    143  H   NAG d1179      10.635 -16.502   6.225  0.00  0.00     0.040 H 
ATOM    144  H   NAG d1179       8.329 -12.257   1.498  0.00  0.00     0.091 H 
ATOM    145  H   NAG d1179      11.087 -11.128   1.704  0.00  0.00     0.090 H 
ATOM    146  H   NAG d1179       7.747  -8.829   1.637  0.00  0.00     0.209 HD
ATOM    147  H   NAG d1179      10.977 -13.650   1.231  0.00  0.00     0.091 H 
ATOM    148  H   NAG d1179       9.655  -9.566   0.581  0.00  0.00     0.078 H 
ATOM    149  H   NAG d1179       9.967  -9.007   2.217  0.00  0.00     0.078 H 
ATOM    150  C6  BDP d1180      10.869 -14.717  -3.278  0.00  0.00     0.206 C 
ATOM    151  O3  BDP d1180       8.622 -18.649  -1.306  0.00  0.00    -0.390 OA
ATOM    152  C1  BDP d1180       9.878 -15.459   0.175  0.00  0.00     0.160 C 
ATOM    153  O2  BDP d1180       9.660 -17.534   1.308  0.00  0.00    -0.388 OA
ATOM    154  C3  BDP d1180       9.641 -17.699  -1.072  0.00  0.00     0.092 C 
ATOM    155  O4  BDP d1180      10.680 -17.629  -3.232  0.00  0.00    -0.348 OA
ATOM    156  O5  BDP d1180       9.827 -14.857  -1.099  0.00  0.00    -0.340 OA
ATOM    157  C5  BDP d1180      10.597 -15.575  -2.041  0.00  0.00     0.152 C 
ATOM    158  O6B BDP d1180       9.894 -14.167  -3.846  0.00  0.00    -0.646 OA
ATOM    159  O6A BDP d1180      12.062 -14.600  -3.649  0.00  0.00    -0.646 OA
ATOM    160  C2  BDP d1180       9.246 -16.851   0.144  0.00  0.00     0.110 C 
ATOM    161  C4  BDP d1180       9.873 -16.884  -2.348  0.00  0.00     0.103 C 
ATOM    162  H   BDP d1180       8.471 -19.168  -0.500  0.00  0.00     0.210 HD
ATOM    163  H   BDP d1180      10.907 -15.547   0.455  0.00  0.00     0.133 H 
ATOM    164  H   BDP d1180       9.420 -17.014   2.091  0.00  0.00     0.210 HD
ATOM    165  H   BDP d1180      10.575 -18.165  -0.839  0.00  0.00     0.091 H 
ATOM    166  H   BDP d1180      11.561 -15.818  -1.647  0.00  0.00     0.104 H 
ATOM    167  H   BDP d1180       8.187 -16.712   0.086  0.00  0.00     0.094 H 
ATOM    168  H   BDP d1180       8.919 -16.667  -2.782  0.00  0.00     0.092 H 
ENDROOT
TORSDOF 43
ENDMDL
MODEL 21
REMARK VINA RESULT:      -7.1      6.441      7.912
REMARK  0 active torsions:
REMARK  status: ('A' for Active; 'I' for Inactive)
REMARK       I    between atoms: C1_1  and  O3_15 
REMARK       I    between atoms: C1_2  and  O3_93 
REMARK       I    between atoms: C6_3  and  C5_89 
REMARK       I    between atoms: C6_3  and  O6_76 
REMARK       I    between atoms: O3_4  and  C3_22 
REMARK       I    between atoms: C6_5  and  C5_48 
REMARK       I    between atoms: C6_5  and  O6_31 
REMARK       I    between atoms: C4_6  and  O4_74 
REMARK       I    between atoms: C7_7  and  C8_62 
REMARK       I    between atoms: C7_7  and  N2_60 
REMARK       I    between atoms: C6_8  and  C5_52 
REMARK       I    between atoms: C3_9  and  O3_38 
REMARK       I    between atoms: C1_10  and  O4_75 
REMARK       I    between atoms: C6_12  and  C5_51 
REMARK       I    between atoms: O3_13  and  C3_42 
REMARK       I    between atoms: O4_14  and  C4_84 
REMARK       I    between atoms: O3_15  and  C3_86 
REMARK       I    between atoms: C6_16  and  C5_23 
REMARK       I    between atoms: C6_16  and  O6_58 
REMARK       I    between atoms: C1_17  and  O3_63 
REMARK       I    between atoms: C2_18  and  N2_60 
REMARK       I    between atoms: C2_19  and  N2_53 
REMARK       I    between atoms: O2_20  and  C2_66 
REMARK       I    between atoms: C3_25  and  O3_93 
REMARK       I    between atoms: C7_26  and  C8_32 
REMARK       I    between atoms: C7_26  and  N2_37 
REMARK       I    between atoms: C2_28  and  N2_44 
REMARK       I    between atoms: C7_29  and  C8_54 
REMARK       I    between atoms: C7_29  and  N2_53 
REMARK       I    between atoms: O1_33  and  C1_80 
REMARK       I    between atoms: O4_34  and  C4_40 
REMARK       I    between atoms: O4_34  and  C1_92 
REMARK       I    between atoms: C7_36  and  C8_81 
REMARK       I    between atoms: C7_36  and  N2_44 
REMARK       I    between atoms: N2_37  and  C2_83 
REMARK       I    between atoms: O3_39  and  C3_61 
REMARK       I    between atoms: C1_41  and  O4_46 
REMARK       I    between atoms: O2_43  and  C2_73 
REMARK       I    between atoms: C6_45  and  C5_87 
REMARK       I    between atoms: O4_46  and  C4_67 
REMARK       I    between atoms: C4_50  and  O4_65 
REMARK       I    between atoms: C2_55  and  O2_82 
REMARK       I    between atoms: O4_57  and  C4_71 
REMARK       I    between atoms: O3_63  and  C3_85 
REMARK       I    between atoms: O4_75  and  C4_91 
REMARK       I    between atoms: C5_77  and  C6_90 
REMARK       I    between atoms: O6_79  and  C6_90 
ROOT
ATOM      1  C1  BDP d1176      14.978 -14.574  15.537  0.00  0.00     0.160 C 
ATOM      2  O3  BDP d1176      15.802 -11.095  14.356  0.00  0.00    -0.390 OA
ATOM      3  O5  BDP d1176      14.952 -15.003  14.205  0.00  0.00    -0.340 OA
ATOM      4  O6A BDP d1176      15.029 -15.307  11.513  0.00  0.00    -0.646 OA
ATOM      5  C3  BDP d1176      14.933 -12.196  14.532  0.00  0.00     0.092 C 
ATOM      6  O4  BDP d1176      13.751 -12.067  12.462  0.00  0.00    -0.348 OA
ATOM      7  C4  BDP d1176      14.680 -12.853  13.184  0.00  0.00     0.103 C 
ATOM      8  C6  BDP d1176      13.965 -15.004  12.088  0.00  0.00     0.206 C 
ATOM      9  C2  BDP d1176      15.487 -13.128  15.607  0.00  0.00     0.110 C 
ATOM     10  O6B BDP d1176      12.813 -15.271  11.687  0.00  0.00    -0.646 OA
ATOM     11  O2  BDP d1176      15.095 -12.573  16.839  0.00  0.00    -0.388 OA
ATOM     12  C5  BDP d1176      14.103 -14.247  13.392  0.00  0.00     0.152 C 
ATOM     13  H   BDP d1176      13.995 -14.596  15.959  0.00  0.00     0.133 H 
ATOM     14  H   BDP d1176      15.967 -10.672  15.213  0.00  0.00     0.210 HD
ATOM     15  H   BDP d1176      13.976 -11.883  14.895  0.00  0.00     0.091 H 
ATOM     16  H   BDP d1176      15.599 -12.930  12.641  0.00  0.00     0.092 H 
ATOM     17  H   BDP d1176      16.546 -13.197  15.470  0.00  0.00     0.094 H 
ATOM     18  H   BDP d1176      14.126 -12.545  16.886  0.00  0.00     0.210 HD
ATOM     19  H   BDP d1176      13.140 -14.113  13.839  0.00  0.00     0.104 H 
ATOM     20  C1  BDP d1178      12.706  -9.774   7.236  0.00  0.00     0.160 C 
ATOM     21  C6  BDP d1178      14.803  -9.159   4.217  0.00  0.00     0.206 C 
ATOM     22  O6B BDP d1178      15.242  -9.906   3.310  0.00  0.00    -0.646 OA
ATOM     23  O6A BDP d1178      15.207  -7.989   4.429  0.00  0.00    -0.646 OA
ATOM     24  O3  BDP d1178       9.974  -9.255   4.754  0.00  0.00    -0.390 OA
ATOM     25  O2  BDP d1178      10.317  -9.613   7.514  0.00  0.00    -0.388 OA
ATOM     26  C5  BDP d1178      13.685  -9.740   5.084  0.00  0.00     0.152 C 
ATOM     27  C3  BDP d1178      11.164  -9.772   5.305  0.00  0.00     0.092 C 
ATOM     28  C2  BDP d1178      11.391  -9.227   6.693  0.00  0.00     0.110 C 
ATOM     29  O4  BDP d1178      12.235 -10.236   3.288  0.00  0.00    -0.348 OA
ATOM     30  O5  BDP d1178      13.764  -9.298   6.434  0.00  0.00    -0.340 OA
ATOM     31  C4  BDP d1178      12.349  -9.423   4.421  0.00  0.00     0.103 C 
ATOM     32  H   BDP d1178      12.759 -10.842   7.200  0.00  0.00     0.133 H 
ATOM     33  H   BDP d1178       9.226  -9.484   5.327  0.00  0.00     0.210 HD
ATOM     34  H   BDP d1178      10.454  -9.267   8.409  0.00  0.00     0.210 HD
ATOM     35  H   BDP d1178      13.790 -10.803   5.146  0.00  0.00     0.104 H 
ATOM     36  H   BDP d1178      11.068 -10.836   5.364  0.00  0.00     0.091 H 
ATOM     37  H   BDP d1178      11.446  -8.159   6.672  0.00  0.00     0.094 H 
ATOM     38  H   BDP d1178      12.334  -8.374   4.208  0.00  0.00     0.092 H 
ATOM     39  C6  NAG d1177      16.796  -8.579  11.363  0.00  0.00     0.043 C 
ATOM     40  O4  NAG d1177      15.375  -8.310   8.749  0.00  0.00    -0.390 OA
ATOM     41  C2  NAG d1177      13.239 -10.854  10.448  0.00  0.00     0.087 C 
ATOM     42  C3  NAG d1177      13.831 -10.016   9.323  0.00  0.00     0.093 C 
ATOM     43  C7  NAG d1177      11.235 -12.256  10.147  0.00  0.00     0.214 C 
ATOM     44  N2  NAG d1177      12.499 -11.958   9.855  0.00  0.00    -0.349 N 
ATOM     45  C8  NAG d1177      10.796 -13.625   9.722  0.00  0.00    -0.003 C 
ATOM     46  O7  NAG d1177      10.445 -11.489  10.706  0.00  0.00    -0.274 OA
ATOM     47  O6  NAG d1177      16.489  -8.345  12.725  0.00  0.00    -0.398 OA
ATOM     48  C4  NAG d1177      14.779  -8.954   9.858  0.00  0.00     0.089 C 
ATOM     49  O5  NAG d1177      15.184 -10.300  11.812  0.00  0.00    -0.349 OA
ATOM     50  C5  NAG d1177      15.826  -9.598  10.767  0.00  0.00     0.089 C 
ATOM     51  C1  NAG d1177      14.352 -11.359  11.368  0.00  0.00     0.154 C 
ATOM     52  O3  NAG d1177      12.799  -9.371   8.613  0.00  0.00    -0.348 OA
ATOM     53  H   NAG d1177      16.719  -7.660  10.821  0.00  0.00     0.078 H 
ATOM     54  H   NAG d1177      17.792  -8.964  11.292  0.00  0.00     0.078 H 
ATOM     55  H   NAG d1177      14.684  -7.914   8.196  0.00  0.00     0.210 HD
ATOM     56  H   NAG d1177      12.574 -10.264  11.044  0.00  0.00     0.084 H 
ATOM     57  H   NAG d1177      14.374 -10.678   8.681  0.00  0.00     0.091 H 
ATOM     58  H   NAG d1177      12.964 -12.522   9.196  0.00  0.00     0.163 HD
ATOM     59  H   NAG d1177      11.615 -14.135   9.260  0.00  0.00     0.040 H 
ATOM     60  H   NAG d1177       9.989 -13.541   9.025  0.00  0.00     0.040 H 
ATOM     61  H   NAG d1177      10.471 -14.178  10.580  0.00  0.00     0.040 H 
ATOM     62  H   NAG d1177      15.587  -7.995  12.798  0.00  0.00     0.209 HD
ATOM     63  H   NAG d1177      14.254  -8.231  10.447  0.00  0.00     0.091 H 
ATOM     64  H   NAG d1177      16.397 -10.268  10.160  0.00  0.00     0.090 H 
ATOM     65  H   NAG d1177      14.990 -12.025  10.826  0.00  0.00     0.132 H 
ATOM     66  C6  NAG d1175      15.357 -20.339  15.971  0.00  0.00     0.043 C 
ATOM     67  O3  NAG d1175      15.842 -15.462  16.280  0.00  0.00    -0.348 OA
ATOM     68  C2  NAG d1175      15.739 -16.752  18.296  0.00  0.00     0.087 C 
ATOM     69  O6  NAG d1175      14.899 -21.490  16.642  0.00  0.00    -0.398 OA
ATOM     70  O1  NAG d1175      15.952 -18.272  20.172  0.00  0.00    -0.369 OA
ATOM     71  C7  NAG d1175      16.164 -15.052  20.000  0.00  0.00     0.214 C 
ATOM     72  N2  NAG d1175      15.324 -15.640  19.145  0.00  0.00    -0.349 N 
ATOM     73  C5  NAG d1175      15.001 -19.123  16.818  0.00  0.00     0.089 C 
ATOM     74  O5  NAG d1175      15.744 -19.140  18.029  0.00  0.00    -0.349 OA
ATOM     75  C4  NAG d1175      15.242 -17.839  16.021  0.00  0.00     0.089 C 
ATOM     76  O4  NAG d1175      14.289 -17.811  14.975  0.00  0.00    -0.390 OA
ATOM     77  O7  NAG d1175      17.249 -14.570  19.653  0.00  0.00    -0.274 OA
ATOM     78  C1  NAG d1175      15.342 -18.102  18.907  0.00  0.00     0.151 C 
ATOM     79  C8  NAG d1175      15.707 -14.992  21.432  0.00  0.00    -0.003 C 
ATOM     80  C3  NAG d1175      15.163 -16.564  16.881  0.00  0.00     0.093 C 
ATOM     81  H   NAG d1175      16.418 -20.392  15.841  0.00  0.00     0.078 H 
ATOM     82  H   NAG d1175      14.899 -20.265  15.007  0.00  0.00     0.078 H 
ATOM     83  H   NAG d1175      16.807 -16.757  18.223  0.00  0.00     0.084 H 
ATOM     84  H   NAG d1175      15.321 -21.545  17.514  0.00  0.00     0.209 HD
ATOM     85  H   NAG d1175      15.671 -17.557  20.765  0.00  0.00     0.212 HD
ATOM     86  H   NAG d1175      14.398 -15.315  19.086  0.00  0.00     0.163 HD
ATOM     87  H   NAG d1175      13.963 -19.156  17.074  0.00  0.00     0.090 H 
ATOM     88  H   NAG d1175      16.241 -17.849  15.637  0.00  0.00     0.091 H 
ATOM     89  H   NAG d1175      13.395 -17.803  15.352  0.00  0.00     0.210 HD
ATOM     90  H   NAG d1175      14.281 -18.133  19.043  0.00  0.00     0.132 H 
ATOM     91  H   NAG d1175      14.750 -15.461  21.522  0.00  0.00     0.040 H 
ATOM     92  H   NAG d1175      15.632 -13.970  21.739  0.00  0.00     0.040 H 
ATOM     93  H   NAG d1175      16.413 -15.501  22.054  0.00  0.00     0.040 H 
ATOM     94  H   NAG d1175      14.115 -16.357  16.953  0.00  0.00     0.091 H 
ATOM     95  C4  NAG d1181      16.182 -13.788  -9.370  0.00  0.00     0.089 C 
ATOM     96  C3  NAG d1181      16.342 -12.267  -9.452  0.00  0.00     0.086 C 
ATOM     97  C6  NAG d1181      15.212 -15.730  -8.070  0.00  0.00     0.043 C 
ATOM     98  C5  NAG d1181      15.178 -14.216  -8.291  0.00  0.00     0.089 C 
ATOM     99  C7  NAG d1181      17.517  -9.466  -7.846  0.00  0.00     0.214 C 
ATOM    100  C8  NAG d1181      18.053  -9.499  -6.440  0.00  0.00    -0.003 C 
ATOM    101  N2  NAG d1181      16.440 -10.209  -8.100  0.00  0.00    -0.349 N 
ATOM    102  O3  NAG d1181      17.468 -11.929 -10.248  0.00  0.00    -0.391 OA
ATOM    103  C1  NAG d1181      15.407 -12.179  -7.105  0.00  0.00     0.154 C 
ATOM    104  O6  NAG d1181      14.024 -16.155  -7.436  0.00  0.00    -0.398 OA
ATOM    105  O5  NAG d1181      15.454 -13.585  -7.052  0.00  0.00    -0.349 OA
ATOM    106  O7  NAG d1181      18.061  -8.780  -8.716  0.00  0.00    -0.274 OA
ATOM    107  O4  NAG d1181      15.765 -14.279 -10.624  0.00  0.00    -0.390 OA
ATOM    108  C2  NAG d1181      16.487 -11.663  -8.053  0.00  0.00     0.087 C 
ATOM    109  H   NAG d1181      17.133 -14.199  -9.101  0.00  0.00     0.091 H 
ATOM    110  H   NAG d1181      15.463 -11.862  -9.908  0.00  0.00     0.090 H 
ATOM    111  H   NAG d1181      16.051 -15.980  -7.454  0.00  0.00     0.078 H 
ATOM    112  H   NAG d1181      15.298 -16.221  -9.017  0.00  0.00     0.078 H 
ATOM    113  H   NAG d1181      14.210 -13.922  -8.641  0.00  0.00     0.090 H 
ATOM    114  H   NAG d1181      17.447 -10.147  -5.843  0.00  0.00     0.040 H 
ATOM    115  H   NAG d1181      18.035  -8.512  -6.028  0.00  0.00     0.040 H 
ATOM    116  H   NAG d1181      19.060  -9.863  -6.451  0.00  0.00     0.040 H 
ATOM    117  H   NAG d1181      15.592  -9.762  -8.325  0.00  0.00     0.163 HD
ATOM    118  H   NAG d1181      18.271 -12.292  -9.842  0.00  0.00     0.210 HD
ATOM    119  H   NAG d1181      14.431 -11.905  -7.446  0.00  0.00     0.132 H 
ATOM    120  H   NAG d1181      13.941 -15.713  -6.577  0.00  0.00     0.209 HD
ATOM    121  H   NAG d1181      14.903 -13.896 -10.851  0.00  0.00     0.210 HD
ATOM    122  H   NAG d1181      17.443 -11.967  -7.680  0.00  0.00     0.084 H 
ATOM    123  C7  NAG d1179      14.005 -12.512   1.666  0.00  0.00     0.214 C 
ATOM    124  C1  NAG d1179      12.316  -9.541   2.033  0.00  0.00     0.154 C 
ATOM    125  C2  NAG d1179      12.638 -10.625   1.012  0.00  0.00     0.087 C 
ATOM    126  O5  NAG d1179      11.108  -8.898   1.687  0.00  0.00    -0.349 OA
ATOM    127  O7  NAG d1179      13.228 -13.374   1.260  0.00  0.00    -0.274 OA
ATOM    128  O4  NAG d1179      11.302  -8.783  -1.959  0.00  0.00    -0.390 OA
ATOM    129  N2  NAG d1179      13.927 -11.234   1.300  0.00  0.00    -0.349 N 
ATOM    130  C8  NAG d1179      15.099 -12.893   2.616  0.00  0.00    -0.003 C 
ATOM    131  O3  NAG d1179      12.553 -11.295  -1.276  0.00  0.00    -0.348 OA
ATOM    132  C4  NAG d1179      11.283  -9.355  -0.668  0.00  0.00     0.089 C 
ATOM    133  C5  NAG d1179      11.142  -8.280   0.412  0.00  0.00     0.089 C 
ATOM    134  O6  NAG d1179       8.724  -8.249   0.234  0.00  0.00    -0.398 OA
ATOM    135  C3  NAG d1179      12.562 -10.154  -0.438  0.00  0.00     0.093 C 
ATOM    136  C6  NAG d1179       9.882  -7.433   0.232  0.00  0.00     0.043 C 
ATOM    137  H   NAG d1179      13.052  -8.765   2.076  0.00  0.00     0.132 H 
ATOM    138  H   NAG d1179      11.870 -11.363   1.113  0.00  0.00     0.084 H 
ATOM    139  H   NAG d1179      11.392  -9.485  -2.622  0.00  0.00     0.210 HD
ATOM    140  H   NAG d1179      14.749 -10.697   1.224  0.00  0.00     0.163 HD
ATOM    141  H   NAG d1179      15.674 -12.026   2.863  0.00  0.00     0.040 H 
ATOM    142  H   NAG d1179      15.732 -13.623   2.156  0.00  0.00     0.040 H 
ATOM    143  H   NAG d1179      14.671 -13.302   3.507  0.00  0.00     0.040 H 
ATOM    144  H   NAG d1179      10.436 -10.006  -0.603  0.00  0.00     0.091 H 
ATOM    145  H   NAG d1179      11.986  -7.627   0.327  0.00  0.00     0.090 H 
ATOM    146  H   NAG d1179       7.937  -7.695   0.119  0.00  0.00     0.209 HD
ATOM    147  H   NAG d1179      13.402  -9.530  -0.658  0.00  0.00     0.091 H 
ATOM    148  H   NAG d1179       9.940  -6.909  -0.699  0.00  0.00     0.078 H 
ATOM    149  H   NAG d1179       9.815  -6.741   1.046  0.00  0.00     0.078 H 
ATOM    150  C6  BDP d1180      14.073  -9.203  -5.233  0.00  0.00     0.206 C 
ATOM    151  O3  BDP d1180      14.531 -14.072  -4.541  0.00  0.00    -0.390 OA
ATOM    152  C1  BDP d1180      13.615 -11.275  -2.241  0.00  0.00     0.160 C 
ATOM    153  O2  BDP d1180      14.634 -13.325  -1.610  0.00  0.00    -0.388 OA
ATOM    154  C3  BDP d1180      14.784 -12.820  -3.937  0.00  0.00     0.092 C 
ATOM    155  O4  BDP d1180      15.641 -11.595  -5.812  0.00  0.00    -0.348 OA
ATOM    156  O5  BDP d1180      13.254 -10.488  -3.354  0.00  0.00    -0.340 OA
ATOM    157  C5  BDP d1180      14.326 -10.361  -4.265  0.00  0.00     0.152 C 
ATOM    158  O6B BDP d1180      12.978  -9.168  -5.846  0.00  0.00    -0.646 OA
ATOM    159  O6A BDP d1180      14.976  -8.339  -5.349  0.00  0.00    -0.646 OA
ATOM    160  C2  BDP d1180      13.929 -12.709  -2.667  0.00  0.00     0.110 C 
ATOM    161  C4  BDP d1180      14.525 -11.707  -4.958  0.00  0.00     0.103 C 
ATOM    162  H   BDP d1180      14.693 -14.780  -3.897  0.00  0.00     0.210 HD
ATOM    163  H   BDP d1180      14.489 -10.840  -1.802  0.00  0.00     0.133 H 
ATOM    164  H   BDP d1180      14.111 -13.266  -0.795  0.00  0.00     0.210 HD
ATOM    165  H   BDP d1180      15.806 -12.721  -3.638  0.00  0.00     0.091 H 
ATOM    166  H   BDP d1180      15.236 -10.115  -3.760  0.00  0.00     0.104 H 
ATOM    167  H   BDP d1180      12.995 -13.181  -2.888  0.00  0.00     0.094 H 
ATOM    168  H   BDP d1180      13.640 -11.958  -5.505  0.00  0.00     0.092 H 
ENDROOT
TORSDOF 43
ENDMDL
MODEL 22
REMARK VINA RESULT:      -7.0      6.083     18.088
REMARK  0 active torsions:
REMARK  status: ('A' for Active; 'I' for Inactive)
REMARK       I    between atoms: C1_1  and  O3_15 
REMARK       I    between atoms: C1_2  and  O3_93 
REMARK       I    between atoms: C6_3  and  C5_89 
REMARK       I    between atoms: C6_3  and  O6_76 
REMARK       I    between atoms: O3_4  and  C3_22 
REMARK       I    between atoms: C6_5  and  C5_48 
REMARK       I    between atoms: C6_5  and  O6_31 
REMARK       I    between atoms: C4_6  and  O4_74 
REMARK       I    between atoms: C7_7  and  C8_62 
REMARK       I    between atoms: C7_7  and  N2_60 
REMARK       I    between atoms: C6_8  and  C5_52 
REMARK       I    between atoms: C3_9  and  O3_38 
REMARK       I    between atoms: C1_10  and  O4_75 
REMARK       I    between atoms: C6_12  and  C5_51 
REMARK       I    between atoms: O3_13  and  C3_42 
REMARK       I    between atoms: O4_14  and  C4_84 
REMARK       I    between atoms: O3_15  and  C3_86 
REMARK       I    between atoms: C6_16  and  C5_23 
REMARK       I    between atoms: C6_16  and  O6_58 
REMARK       I    between atoms: C1_17  and  O3_63 
REMARK       I    between atoms: C2_18  and  N2_60 
REMARK       I    between atoms: C2_19  and  N2_53 
REMARK       I    between atoms: O2_20  and  C2_66 
REMARK       I    between atoms: C3_25  and  O3_93 
REMARK       I    between atoms: C7_26  and  C8_32 
REMARK       I    between atoms: C7_26  and  N2_37 
REMARK       I    between atoms: C2_28  and  N2_44 
REMARK       I    between atoms: C7_29  and  C8_54 
REMARK       I    between atoms: C7_29  and  N2_53 
REMARK       I    between atoms: O1_33  and  C1_80 
REMARK       I    between atoms: O4_34  and  C4_40 
REMARK       I    between atoms: O4_34  and  C1_92 
REMARK       I    between atoms: C7_36  and  C8_81 
REMARK       I    between atoms: C7_36  and  N2_44 
REMARK       I    between atoms: N2_37  and  C2_83 
REMARK       I    between atoms: O3_39  and  C3_61 
REMARK       I    between atoms: C1_41  and  O4_46 
REMARK       I    between atoms: O2_43  and  C2_73 
REMARK       I    between atoms: C6_45  and  C5_87 
REMARK       I    between atoms: O4_46  and  C4_67 
REMARK       I    between atoms: C4_50  and  O4_65 
REMARK       I    between atoms: C2_55  and  O2_82 
REMARK       I    between atoms: O4_57  and  C4_71 
REMARK       I    between atoms: O3_63  and  C3_85 
REMARK       I    between atoms: O4_75  and  C4_91 
REMARK       I    between atoms: C5_77  and  C6_90 
REMARK       I    between atoms: O6_79  and  C6_90 
ROOT
ATOM      1  C1  BDP d1176       5.460 -15.278  -5.026  0.00  0.00     0.160 C 
ATOM      2  O3  BDP d1176       5.823 -11.698  -3.919  0.00  0.00    -0.390 OA
ATOM      3  O5  BDP d1176       5.896 -15.696  -3.763  0.00  0.00    -0.340 OA
ATOM      4  O6A BDP d1176       6.773 -15.962  -1.213  0.00  0.00    -0.646 OA
ATOM      5  C3  BDP d1176       6.333 -12.957  -4.308  0.00  0.00     0.092 C 
ATOM      6  O4  BDP d1176       8.203 -13.068  -2.827  0.00  0.00    -0.348 OA
ATOM      7  C4  BDP d1176       6.939 -13.646  -3.094  0.00  0.00     0.103 C 
ATOM      8  C6  BDP d1176       7.582 -15.892  -2.158  0.00  0.00     0.206 C 
ATOM      9  C2  BDP d1176       5.250 -13.758  -5.026  0.00  0.00     0.110 C 
ATOM     10  O6B BDP d1176       8.726 -16.393  -2.183  0.00  0.00    -0.646 OA
ATOM     11  O2  BDP d1176       5.253 -13.305  -6.358  0.00  0.00    -0.388 OA
ATOM     12  C5  BDP d1176       7.117 -15.131  -3.381  0.00  0.00     0.152 C 
ATOM     13  H   BDP d1176       6.190 -15.508  -5.773  0.00  0.00     0.133 H 
ATOM     14  H   BDP d1176       5.435 -11.254  -4.690  0.00  0.00     0.210 HD
ATOM     15  H   BDP d1176       7.127 -12.854  -5.018  0.00  0.00     0.091 H 
ATOM     16  H   BDP d1176       6.293 -13.525  -2.250  0.00  0.00     0.092 H 
ATOM     17  H   BDP d1176       4.326 -13.602  -4.508  0.00  0.00     0.094 H 
ATOM     18  H   BDP d1176       6.120 -13.481  -6.756  0.00  0.00     0.210 HD
ATOM     19  H   BDP d1176       7.849 -15.204  -4.157  0.00  0.00     0.104 H 
ATOM     20  C1  BDP d1178      11.542 -11.017   1.450  0.00  0.00     0.160 C 
ATOM     21  C6  BDP d1178      10.884  -9.960   4.963  0.00  0.00     0.206 C 
ATOM     22  O6B BDP d1178      10.680 -10.593   6.027  0.00  0.00    -0.646 OA
ATOM     23  O6A BDP d1178      10.664  -8.732   4.816  0.00  0.00    -0.646 OA
ATOM     24  O3  BDP d1178      15.048 -11.069   2.716  0.00  0.00    -0.390 OA
ATOM     25  O2  BDP d1178      13.638 -11.362   0.310  0.00  0.00    -0.388 OA
ATOM     26  C5  BDP d1178      11.464 -10.767   3.800  0.00  0.00     0.152 C 
ATOM     27  C3  BDP d1178      13.663 -11.328   2.681  0.00  0.00     0.092 C 
ATOM     28  C2  BDP d1178      13.044 -10.756   1.430  0.00  0.00     0.110 C 
ATOM     29  O4  BDP d1178      13.354 -11.546   4.980  0.00  0.00    -0.348 OA
ATOM     30  O5  BDP d1178      10.973 -10.326   2.540  0.00  0.00    -0.340 OA
ATOM     31  C4  BDP d1178      12.985 -10.733   3.903  0.00  0.00     0.103 C 
ATOM     32  H   BDP d1178      11.302 -12.050   1.592  0.00  0.00     0.133 H 
ATOM     33  H   BDP d1178      15.469 -11.454   1.932  0.00  0.00     0.210 HD
ATOM     34  H   BDP d1178      13.247 -11.001  -0.499  0.00  0.00     0.210 HD
ATOM     35  H   BDP d1178      11.140 -11.785   3.869  0.00  0.00     0.104 H 
ATOM     36  H   BDP d1178      13.523 -12.388   2.680  0.00  0.00     0.091 H 
ATOM     37  H   BDP d1178      13.208  -9.700   1.381  0.00  0.00     0.094 H 
ATOM     38  H   BDP d1178      13.280  -9.710   4.008  0.00  0.00     0.092 H 
ATOM     39  C6  NAG d1177       6.522  -9.012  -0.990  0.00  0.00     0.043 C 
ATOM     40  O4  NAG d1177       8.838  -9.034   0.896  0.00  0.00    -0.390 OA
ATOM     41  C2  NAG d1177       9.653 -11.978  -1.246  0.00  0.00     0.087 C 
ATOM     42  C3  NAG d1177       9.697 -11.029  -0.056  0.00  0.00     0.093 C 
ATOM     43  C7  NAG d1177      11.313 -13.768  -1.578  0.00  0.00     0.214 C 
ATOM     44  N2  NAG d1177      10.333 -13.210  -0.873  0.00  0.00    -0.349 N 
ATOM     45  C8  NAG d1177      11.606 -15.197  -1.231  0.00  0.00    -0.003 C 
ATOM     46  O7  NAG d1177      11.970 -13.187  -2.449  0.00  0.00    -0.274 OA
ATOM     47  O6  NAG d1177       6.338  -8.855  -2.386  0.00  0.00    -0.398 OA
ATOM     48  C4  NAG d1177       8.841  -9.794  -0.297  0.00  0.00     0.089 C 
ATOM     49  O5  NAG d1177       7.485 -11.036  -1.850  0.00  0.00    -0.349 OA
ATOM     50  C5  NAG d1177       7.428 -10.209  -0.706  0.00  0.00     0.089 C 
ATOM     51  C1  NAG d1177       8.202 -12.243  -1.653  0.00  0.00     0.154 C 
ATOM     52  O3  NAG d1177      11.023 -10.611   0.172  0.00  0.00    -0.348 OA
ATOM     53  H   NAG d1177       6.971  -8.127  -0.592  0.00  0.00     0.078 H 
ATOM     54  H   NAG d1177       5.570  -9.180  -0.531  0.00  0.00     0.078 H 
ATOM     55  H   NAG d1177       9.748  -8.788   1.125  0.00  0.00     0.210 HD
ATOM     56  H   NAG d1177      10.148 -11.545  -2.090  0.00  0.00     0.084 H 
ATOM     57  H   NAG d1177       9.315 -11.559   0.791  0.00  0.00     0.091 H 
ATOM     58  H   NAG d1177      10.048 -13.660  -0.045  0.00  0.00     0.163 HD
ATOM     59  H   NAG d1177      10.937 -15.521  -0.461  0.00  0.00     0.040 H 
ATOM     60  H   NAG d1177      12.615 -15.280  -0.884  0.00  0.00     0.040 H 
ATOM     61  H   NAG d1177      11.475 -15.810  -2.098  0.00  0.00     0.040 H 
ATOM     62  H   NAG d1177       7.197  -8.704  -2.810  0.00  0.00     0.209 HD
ATOM     63  H   NAG d1177       9.238  -9.201  -1.094  0.00  0.00     0.091 H 
ATOM     64  H   NAG d1177       7.006 -10.741   0.121  0.00  0.00     0.090 H 
ATOM     65  H   NAG d1177       7.696 -12.758  -0.863  0.00  0.00     0.132 H 
ATOM     66  C6  NAG d1175       3.842 -20.837  -4.811  0.00  0.00     0.043 C 
ATOM     67  O3  NAG d1175       4.227 -15.969  -5.327  0.00  0.00    -0.348 OA
ATOM     68  C2  NAG d1175       3.320 -17.263  -7.127  0.00  0.00     0.087 C 
ATOM     69  O6  NAG d1175       3.785 -22.062  -5.504  0.00  0.00    -0.398 OA
ATOM     70  O1  NAG d1175       2.134 -18.714  -8.665  0.00  0.00    -0.369 OA
ATOM     71  C7  NAG d1175       2.626 -15.521  -8.696  0.00  0.00     0.214 C 
ATOM     72  N2  NAG d1175       3.593 -16.268  -8.159  0.00  0.00    -0.349 N 
ATOM     73  C5  NAG d1175       4.083 -19.728  -5.827  0.00  0.00     0.089 C 
ATOM     74  O5  NAG d1175       2.954 -19.595  -6.679  0.00  0.00    -0.349 OA
ATOM     75  C4  NAG d1175       4.409 -18.418  -5.107  0.00  0.00     0.089 C 
ATOM     76  O4  NAG d1175       5.670 -18.584  -4.485  0.00  0.00    -0.390 OA
ATOM     77  O7  NAG d1175       1.864 -14.820  -8.019  0.00  0.00    -0.274 OA
ATOM     78  C1  NAG d1175       3.191 -18.669  -7.727  0.00  0.00     0.151 C 
ATOM     79  C8  NAG d1175       2.518 -15.565 -10.195  0.00  0.00    -0.003 C 
ATOM     80  C3  NAG d1175       4.407 -17.192  -6.040  0.00  0.00     0.093 C 
ATOM     81  H   NAG d1175       2.917 -20.666  -4.300  0.00  0.00     0.078 H 
ATOM     82  H   NAG d1175       4.632 -20.856  -4.089  0.00  0.00     0.078 H 
ATOM     83  H   NAG d1175       2.377 -17.043  -6.671  0.00  0.00     0.084 H 
ATOM     84  H   NAG d1175       3.066 -22.033  -6.155  0.00  0.00     0.209 HD
ATOM     85  H   NAG d1175       2.305 -18.078  -9.376  0.00  0.00     0.212 HD
ATOM     86  H   NAG d1175       4.519 -16.143  -8.468  0.00  0.00     0.163 HD
ATOM     87  H   NAG d1175       4.924 -19.979  -6.439  0.00  0.00     0.090 H 
ATOM     88  H   NAG d1175       3.645 -18.215  -4.386  0.00  0.00     0.091 H 
ATOM     89  H   NAG d1175       6.342 -18.766  -5.161  0.00  0.00     0.210 HD
ATOM     90  H   NAG d1175       4.098 -18.923  -8.236  0.00  0.00     0.132 H 
ATOM     91  H   NAG d1175       3.263 -16.226 -10.588  0.00  0.00     0.040 H 
ATOM     92  H   NAG d1175       2.668 -14.584 -10.593  0.00  0.00     0.040 H 
ATOM     93  H   NAG d1175       1.547 -15.918 -10.473  0.00  0.00     0.040 H 
ATOM     94  H   NAG d1175       5.371 -17.210  -6.505  0.00  0.00     0.091 H 
ATOM     95  C4  NAG d1181      13.808 -14.122  18.456  0.00  0.00     0.089 C 
ATOM     96  C3  NAG d1181      13.987 -12.600  18.463  0.00  0.00     0.086 C 
ATOM     97  C6  NAG d1181      13.829 -16.232  17.059  0.00  0.00     0.043 C 
ATOM     98  C5  NAG d1181      14.235 -14.757  17.125  0.00  0.00     0.089 C 
ATOM     99  C7  NAG d1181      12.861  -9.624  17.167  0.00  0.00     0.214 C 
ATOM    100  C8  NAG d1181      11.844  -9.552  16.061  0.00  0.00    -0.003 C 
ATOM    101  N2  NAG d1181      13.790 -10.575  17.073  0.00  0.00    -0.349 N 
ATOM    102  O3  NAG d1181      13.327 -12.029  19.583  0.00  0.00    -0.391 OA
ATOM    103  C1  NAG d1181      13.977 -12.724  15.938  0.00  0.00     0.154 C 
ATOM    104  O6  NAG d1181      14.589 -16.899  16.073  0.00  0.00    -0.398 OA
ATOM    105  O5  NAG d1181      13.644 -14.089  16.023  0.00  0.00    -0.349 OA
ATOM    106  O7  NAG d1181      12.824  -8.835  18.115  0.00  0.00    -0.274 OA
ATOM    107  O4  NAG d1181      14.561 -14.682  19.509  0.00  0.00    -0.390 OA
ATOM    108  C2  NAG d1181      13.450 -11.987  17.168  0.00  0.00     0.087 C 
ATOM    109  H   NAG d1181      12.766 -14.325  18.586  0.00  0.00     0.091 H 
ATOM    110  H   NAG d1181      15.033 -12.387  18.533  0.00  0.00     0.090 H 
ATOM    111  H   NAG d1181      12.791 -16.303  16.813  0.00  0.00     0.078 H 
ATOM    112  H   NAG d1181      14.010 -16.688  18.009  0.00  0.00     0.078 H 
ATOM    113  H   NAG d1181      15.300 -14.670  17.073  0.00  0.00     0.090 H 
ATOM    114  H   NAG d1181      12.047 -10.316  15.340  0.00  0.00     0.040 H 
ATOM    115  H   NAG d1181      11.897  -8.592  15.590  0.00  0.00     0.040 H 
ATOM    116  H   NAG d1181      10.864  -9.696  16.467  0.00  0.00     0.040 H 
ATOM    117  H   NAG d1181      14.730 -10.316  16.936  0.00  0.00     0.163 HD
ATOM    118  H   NAG d1181      12.377 -12.218  19.529  0.00  0.00     0.210 HD
ATOM    119  H   NAG d1181      15.043 -12.658  15.877  0.00  0.00     0.132 H 
ATOM    120  H   NAG d1181      14.429 -16.490  15.209  0.00  0.00     0.209 HD
ATOM    121  H   NAG d1181      15.501 -14.487  19.373  0.00  0.00     0.210 HD
ATOM    122  H   NAG d1181      12.384 -12.086  17.195  0.00  0.00     0.084 H 
ATOM    123  C7  NAG d1179      11.914 -13.391   7.319  0.00  0.00     0.214 C 
ATOM    124  C1  NAG d1179      13.882 -10.843   6.117  0.00  0.00     0.154 C 
ATOM    125  C2  NAG d1179      13.762 -11.829   7.271  0.00  0.00     0.087 C 
ATOM    126  O5  NAG d1179      15.232 -10.465   5.945  0.00  0.00    -0.349 OA
ATOM    127  O7  NAG d1179      12.605 -14.395   7.485  0.00  0.00    -0.274 OA
ATOM    128  O4  NAG d1179      16.438 -10.293   9.388  0.00  0.00    -0.390 OA
ATOM    129  N2  NAG d1179      12.368 -12.156   7.523  0.00  0.00    -0.349 N 
ATOM    130  C8  NAG d1179      10.493 -13.539   6.866  0.00  0.00    -0.003 C 
ATOM    131  O3  NAG d1179      14.564 -12.490   9.419  0.00  0.00    -0.348 OA
ATOM    132  C4  NAG d1179      15.863 -10.863   8.231  0.00  0.00     0.089 C 
ATOM    133  C5  NAG d1179      15.796  -9.847   7.089  0.00  0.00     0.089 C 
ATOM    134  O6  NAG d1179      18.062 -10.324   6.372  0.00  0.00    -0.398 OA
ATOM    135  C3  NAG d1179      14.463 -11.377   8.550  0.00  0.00     0.093 C 
ATOM    136  C6  NAG d1179      17.170  -9.283   6.727  0.00  0.00     0.043 C 
ATOM    137  H   NAG d1179      13.348  -9.930   6.279  0.00  0.00     0.132 H 
ATOM    138  H   NAG d1179      14.280 -12.713   6.960  0.00  0.00     0.084 H 
ATOM    139  H   NAG d1179      16.468 -10.957  10.095  0.00  0.00     0.210 HD
ATOM    140  H   NAG d1179      11.753 -11.458   7.848  0.00  0.00     0.163 HD
ATOM    141  H   NAG d1179      10.046 -12.572   6.774  0.00  0.00     0.040 H 
ATOM    142  H   NAG d1179       9.949 -14.117   7.584  0.00  0.00     0.040 H 
ATOM    143  H   NAG d1179      10.470 -14.034   5.918  0.00  0.00     0.040 H 
ATOM    144  H   NAG d1179      16.482 -11.677   7.917  0.00  0.00     0.091 H 
ATOM    145  H   NAG d1179      15.187  -9.031   7.420  0.00  0.00     0.090 H 
ATOM    146  H   NAG d1179      18.926  -9.946   6.146  0.00  0.00     0.209 HD
ATOM    147  H   NAG d1179      13.903 -10.589   9.007  0.00  0.00     0.091 H 
ATOM    148  H   NAG d1179      17.565  -8.754   7.568  0.00  0.00     0.078 H 
ATOM    149  H   NAG d1179      17.060  -8.625   5.890  0.00  0.00     0.078 H 
ATOM    150  C6  BDP d1180      15.063 -10.104  13.469  0.00  0.00     0.206 C 
ATOM    151  O3  BDP d1180      13.451 -14.773  13.398  0.00  0.00    -0.390 OA
ATOM    152  C1  BDP d1180      13.963 -12.242  10.699  0.00  0.00     0.160 C 
ATOM    153  O2  BDP d1180      12.408 -14.036  10.655  0.00  0.00    -0.388 OA
ATOM    154  C3  BDP d1180      13.238 -13.498  12.826  0.00  0.00     0.092 C 
ATOM    155  O4  BDP d1180      13.395 -12.110  14.776  0.00  0.00    -0.348 OA
ATOM    156  O5  BDP d1180      14.858 -11.543  11.535  0.00  0.00    -0.340 OA
ATOM    157  C5  BDP d1180      14.249 -11.188  12.760  0.00  0.00     0.152 C 
ATOM    158  O6B BDP d1180      16.292 -10.297  13.637  0.00  0.00    -0.646 OA
ATOM    159  O6A BDP d1180      14.453  -9.069  13.833  0.00  0.00    -0.646 OA
ATOM    160  C2  BDP d1180      13.561 -13.576  11.328  0.00  0.00     0.110 C 
ATOM    161  C4  BDP d1180      14.068 -12.459  13.586  0.00  0.00     0.103 C 
ATOM    162  H   BDP d1180      12.927 -15.434  12.919  0.00  0.00     0.210 HD
ATOM    163  H   BDP d1180      13.091 -11.636  10.573  0.00  0.00     0.133 H 
ATOM    164  H   BDP d1180      12.590 -14.093   9.703  0.00  0.00     0.210 HD
ATOM    165  H   BDP d1180      12.217 -13.189  12.911  0.00  0.00     0.091 H 
ATOM    166  H   BDP d1180      13.282 -10.759  12.601  0.00  0.00     0.104 H 
ATOM    167  H   BDP d1180      14.400 -14.233  11.232  0.00  0.00     0.094 H 
ATOM    168  H   BDP d1180      15.026 -12.887  13.793  0.00  0.00     0.092 H 
ENDROOT
TORSDOF 43
ENDMDL
MODEL 23
REMARK VINA RESULT:      -6.9      2.226      2.780
REMARK  0 active torsions:
REMARK  status: ('A' for Active; 'I' for Inactive)
REMARK       I    between atoms: C1_1  and  O3_15 
REMARK       I    between atoms: C1_2  and  O3_93 
REMARK       I    between atoms: C6_3  and  C5_89 
REMARK       I    between atoms: C6_3  and  O6_76 
REMARK       I    between atoms: O3_4  and  C3_22 
REMARK       I    between atoms: C6_5  and  C5_48 
REMARK       I    between atoms: C6_5  and  O6_31 
REMARK       I    between atoms: C4_6  and  O4_74 
REMARK       I    between atoms: C7_7  and  C8_62 
REMARK       I    between atoms: C7_7  and  N2_60 
REMARK       I    between atoms: C6_8  and  C5_52 
REMARK       I    between atoms: C3_9  and  O3_38 
REMARK       I    between atoms: C1_10  and  O4_75 
REMARK       I    between atoms: C6_12  and  C5_51 
REMARK       I    between atoms: O3_13  and  C3_42 
REMARK       I    between atoms: O4_14  and  C4_84 
REMARK       I    between atoms: O3_15  and  C3_86 
REMARK       I    between atoms: C6_16  and  C5_23 
REMARK       I    between atoms: C6_16  and  O6_58 
REMARK       I    between atoms: C1_17  and  O3_63 
REMARK       I    between atoms: C2_18  and  N2_60 
REMARK       I    between atoms: C2_19  and  N2_53 
REMARK       I    between atoms: O2_20  and  C2_66 
REMARK       I    between atoms: C3_25  and  O3_93 
REMARK       I    between atoms: C7_26  and  C8_32 
REMARK       I    between atoms: C7_26  and  N2_37 
REMARK       I    between atoms: C2_28  and  N2_44 
REMARK       I    between atoms: C7_29  and  C8_54 
REMARK       I    between atoms: C7_29  and  N2_53 
REMARK       I    between atoms: O1_33  and  C1_80 
REMARK       I    between atoms: O4_34  and  C4_40 
REMARK       I    between atoms: O4_34  and  C1_92 
REMARK       I    between atoms: C7_36  and  C8_81 
REMARK       I    between atoms: C7_36  and  N2_44 
REMARK       I    between atoms: N2_37  and  C2_83 
REMARK       I    between atoms: O3_39  and  C3_61 
REMARK       I    between atoms: C1_41  and  O4_46 
REMARK       I    between atoms: O2_43  and  C2_73 
REMARK       I    between atoms: C6_45  and  C5_87 
REMARK       I    between atoms: O4_46  and  C4_67 
REMARK       I    between atoms: C4_50  and  O4_65 
REMARK       I    between atoms: C2_55  and  O2_82 
REMARK       I    between atoms: O4_57  and  C4_71 
REMARK       I    between atoms: O3_63  and  C3_85 
REMARK       I    between atoms: O4_75  and  C4_91 
REMARK       I    between atoms: C5_77  and  C6_90 
REMARK       I    between atoms: O6_79  and  C6_90 
ROOT
ATOM      1  C1  BDP d1176       6.332 -15.746  17.450  0.00  0.00     0.160 C 
ATOM      2  O3  BDP d1176       9.990 -16.422  16.867  0.00  0.00    -0.390 OA
ATOM      3  O5  BDP d1176       6.144 -15.655  16.065  0.00  0.00    -0.340 OA
ATOM      4  O6A BDP d1176       6.325 -15.584  13.362  0.00  0.00    -0.646 OA
ATOM      5  C3  BDP d1176       8.848 -15.590  16.889  0.00  0.00     0.092 C 
ATOM      6  O4  BDP d1176       9.302 -14.289  14.939  0.00  0.00    -0.348 OA
ATOM      7  C4  BDP d1176       8.431 -15.275  15.460  0.00  0.00     0.103 C 
ATOM      8  C6  BDP d1176       6.486 -14.549  14.037  0.00  0.00     0.206 C 
ATOM      9  C2  BDP d1176       7.758 -16.226  17.750  0.00  0.00     0.110 C 
ATOM     10  O6B BDP d1176       6.257 -13.382  13.655  0.00  0.00    -0.646 OA
ATOM     11  O2  BDP d1176       8.073 -15.891  19.080  0.00  0.00    -0.388 OA
ATOM     12  C5  BDP d1176       7.004 -14.743  15.446  0.00  0.00     0.152 C 
ATOM     13  H   BDP d1176       6.204 -14.790  17.911  0.00  0.00     0.133 H 
ATOM     14  H   BDP d1176      10.260 -16.625  17.776  0.00  0.00     0.210 HD
ATOM     15  H   BDP d1176       9.060 -14.648  17.351  0.00  0.00     0.091 H 
ATOM     16  H   BDP d1176       8.481 -16.163  14.865  0.00  0.00     0.092 H 
ATOM     17  H   BDP d1176       7.750 -17.276  17.548  0.00  0.00     0.094 H 
ATOM     18  H   BDP d1176       8.061 -14.927  19.182  0.00  0.00     0.210 HD
ATOM     19  H   BDP d1176       7.026 -13.805  15.960  0.00  0.00     0.104 H 
ATOM     20  C1  BDP d1178      12.447 -12.895  10.268  0.00  0.00     0.160 C 
ATOM     21  C6  BDP d1178      13.655 -14.802   7.302  0.00  0.00     0.206 C 
ATOM     22  O6B BDP d1178      13.095 -15.205   6.254  0.00  0.00    -0.646 OA
ATOM     23  O6A BDP d1178      14.782 -15.190   7.698  0.00  0.00    -0.646 OA
ATOM     24  O3  BDP d1178      13.308 -10.014   8.064  0.00  0.00    -0.390 OA
ATOM     25  O2  BDP d1178      12.479 -10.523  10.694  0.00  0.00    -0.388 OA
ATOM     26  C5  BDP d1178      12.893 -13.748   8.108  0.00  0.00     0.152 C 
ATOM     27  C3  BDP d1178      12.741 -11.245   8.452  0.00  0.00     0.092 C 
ATOM     28  C2  BDP d1178      13.038 -11.539   9.901  0.00  0.00     0.110 C 
ATOM     29  O4  BDP d1178      12.676 -12.210   6.331  0.00  0.00    -0.348 OA
ATOM     30  O5  BDP d1178      13.092 -13.895   9.510  0.00  0.00    -0.340 OA
ATOM     31  C4  BDP d1178      13.280 -12.370   7.583  0.00  0.00     0.103 C 
ATOM     32  H   BDP d1178      11.405 -12.970  10.040  0.00  0.00     0.133 H 
ATOM     33  H   BDP d1178      12.956  -9.306   8.625  0.00  0.00     0.210 HD
ATOM     34  H   BDP d1178      12.665 -10.703  11.629  0.00  0.00     0.210 HD
ATOM     35  H   BDP d1178      11.840 -13.881   7.975  0.00  0.00     0.104 H 
ATOM     36  H   BDP d1178      11.681 -11.178   8.324  0.00  0.00     0.091 H 
ATOM     37  H   BDP d1178      14.095 -11.568  10.068  0.00  0.00     0.094 H 
ATOM     38  H   BDP d1178      14.348 -12.318   7.562  0.00  0.00     0.092 H 
ATOM     39  C6  NAG d1177      13.027 -17.185  14.323  0.00  0.00     0.043 C 
ATOM     40  O4  NAG d1177      13.707 -15.612  11.876  0.00  0.00    -0.390 OA
ATOM     41  C2  NAG d1177      10.835 -13.635  13.204  0.00  0.00     0.087 C 
ATOM     42  C3  NAG d1177      11.877 -14.142  12.216  0.00  0.00     0.093 C 
ATOM     43  C7  NAG d1177       9.443 -11.650  12.762  0.00  0.00     0.214 C 
ATOM     44  N2  NAG d1177       9.829 -12.888  12.463  0.00  0.00    -0.349 N 
ATOM     45  C8  NAG d1177       8.157 -11.219  12.124  0.00  0.00    -0.003 C 
ATOM     46  O7  NAG d1177      10.073 -10.876  13.489  0.00  0.00    -0.274 OA
ATOM     47  O6  NAG d1177      13.007 -16.951  15.719  0.00  0.00    -0.398 OA
ATOM     48  C4  NAG d1177      12.858 -15.095  12.883  0.00  0.00     0.089 C 
ATOM     49  O5  NAG d1177      11.202 -15.642  14.541  0.00  0.00    -0.349 OA
ATOM     50  C5  NAG d1177      12.098 -16.206  13.606  0.00  0.00     0.089 C 
ATOM     51  C1  NAG d1177      10.212 -14.810  13.960  0.00  0.00     0.154 C 
ATOM     52  O3  NAG d1177      12.604 -13.057  11.689  0.00  0.00    -0.348 OA
ATOM     53  H   NAG d1177      14.025 -17.057  13.959  0.00  0.00     0.078 H 
ATOM     54  H   NAG d1177      12.693 -18.184  14.133  0.00  0.00     0.078 H 
ATOM     55  H   NAG d1177      14.172 -14.882  11.440  0.00  0.00     0.210 HD
ATOM     56  H   NAG d1177      11.288 -12.992  13.929  0.00  0.00     0.084 H 
ATOM     57  H   NAG d1177      11.357 -14.663  11.440  0.00  0.00     0.091 H 
ATOM     58  H   NAG d1177       9.407 -13.327  11.690  0.00  0.00     0.163 HD
ATOM     59  H   NAG d1177       7.764 -12.022  11.535  0.00  0.00     0.040 H 
ATOM     60  H   NAG d1177       8.337 -10.372  11.496  0.00  0.00     0.040 H 
ATOM     61  H   NAG d1177       7.451 -10.956  12.884  0.00  0.00     0.040 H 
ATOM     62  H   NAG d1177      13.308 -16.047  15.900  0.00  0.00     0.209 HD
ATOM     63  H   NAG d1177      13.448 -14.588  13.618  0.00  0.00     0.091 H 
ATOM     64  H   NAG d1177      11.565 -16.758  12.861  0.00  0.00     0.090 H 
ATOM     65  H   NAG d1177       9.673 -15.432  13.275  0.00  0.00     0.132 H 
ATOM     66  C6  NAG d1175       0.597 -16.282  16.828  0.00  0.00     0.043 C 
ATOM     67  O3  NAG d1175       5.355 -16.672  17.976  0.00  0.00    -0.348 OA
ATOM     68  C2  NAG d1175       3.726 -16.713  19.732  0.00  0.00     0.087 C 
ATOM     69  O6  NAG d1175      -0.669 -15.889  17.306  0.00  0.00    -0.398 OA
ATOM     70  O1  NAG d1175       1.907 -17.068  21.294  0.00  0.00    -0.369 OA
ATOM     71  C7  NAG d1175       5.111 -17.196  21.688  0.00  0.00     0.214 C 
ATOM     72  N2  NAG d1175       4.656 -16.323  20.787  0.00  0.00    -0.349 N 
ATOM     73  C5  NAG d1175       1.631 -15.947  17.896  0.00  0.00     0.089 C 
ATOM     74  O5  NAG d1175       1.424 -16.758  19.043  0.00  0.00    -0.349 OA
ATOM     75  C4  NAG d1175       3.043 -16.113  17.329  0.00  0.00     0.089 C 
ATOM     76  O4  NAG d1175       3.225 -15.101  16.355  0.00  0.00    -0.390 OA
ATOM     77  O7  NAG d1175       5.682 -18.248  21.376  0.00  0.00    -0.274 OA
ATOM     78  C1  NAG d1175       2.277 -16.384  20.113  0.00  0.00     0.151 C 
ATOM     79  C8  NAG d1175       4.902 -16.820  23.129  0.00  0.00    -0.003 C 
ATOM     80  C3  NAG d1175       4.143 -16.053  18.406  0.00  0.00     0.093 C 
ATOM     81  H   NAG d1175       0.602 -17.335  16.635  0.00  0.00     0.078 H 
ATOM     82  H   NAG d1175       0.825 -15.768  15.918  0.00  0.00     0.078 H 
ATOM     83  H   NAG d1175       3.769 -17.775  19.604  0.00  0.00     0.084 H 
ATOM     84  H   NAG d1175      -0.864 -16.362  18.131  0.00  0.00     0.209 HD
ATOM     85  H   NAG d1175       2.495 -16.805  22.018  0.00  0.00     0.212 HD
ATOM     86  H   NAG d1175       4.957 -15.387  20.835  0.00  0.00     0.163 HD
ATOM     87  H   NAG d1175       1.520 -14.926  18.195  0.00  0.00     0.090 H 
ATOM     88  H   NAG d1175       3.135 -17.088  16.897  0.00  0.00     0.091 H 
ATOM     89  H   NAG d1175       3.137 -14.230  16.774  0.00  0.00     0.210 HD
ATOM     90  H   NAG d1175       2.188 -15.333  20.296  0.00  0.00     0.132 H 
ATOM     91  H   NAG d1175       4.393 -15.881  23.184  0.00  0.00     0.040 H 
ATOM     92  H   NAG d1175       5.851 -16.740  23.618  0.00  0.00     0.040 H 
ATOM     93  H   NAG d1175       4.315 -17.572  23.613  0.00  0.00     0.040 H 
ATOM     94  H   NAG d1175       4.299 -15.007  18.567  0.00  0.00     0.091 H 
ATOM     95  C4  NAG d1181      11.550 -15.509  -6.946  0.00  0.00     0.089 C 
ATOM     96  C3  NAG d1181      13.066 -15.628  -6.763  0.00  0.00     0.086 C 
ATOM     97  C6  NAG d1181       9.378 -14.660  -5.965  0.00  0.00     0.043 C 
ATOM     98  C5  NAG d1181      10.905 -14.578  -5.909  0.00  0.00     0.089 C 
ATOM     99  C7  NAG d1181      15.576 -16.829  -4.747  0.00  0.00     0.214 C 
ATOM    100  C8  NAG d1181      15.312 -17.445  -3.400  0.00  0.00    -0.003 C 
ATOM    101  N2  NAG d1181      14.855 -15.757  -5.073  0.00  0.00    -0.349 N 
ATOM    102  O3  NAG d1181      13.576 -16.699  -7.544  0.00  0.00    -0.391 OA
ATOM    103  C1  NAG d1181      12.706 -14.828  -4.393  0.00  0.00     0.154 C 
ATOM    104  O6  NAG d1181       8.809 -13.519  -5.355  0.00  0.00    -0.398 OA
ATOM    105  O5  NAG d1181      11.316 -14.909  -4.594  0.00  0.00    -0.349 OA
ATOM    106  O7  NAG d1181      16.422 -17.307  -5.507  0.00  0.00    -0.274 OA
ATOM    107  O4  NAG d1181      11.275 -15.032  -8.244  0.00  0.00    -0.390 OA
ATOM    108  C2  NAG d1181      13.418 -15.840  -5.288  0.00  0.00     0.087 C 
ATOM    109  H   NAG d1181      11.129 -16.482  -6.804  0.00  0.00     0.091 H 
ATOM    110  H   NAG d1181      13.516 -14.716  -7.093  0.00  0.00     0.090 H 
ATOM    111  H   NAG d1181       9.051 -15.537  -5.448  0.00  0.00     0.078 H 
ATOM    112  H   NAG d1181       9.066 -14.702  -6.987  0.00  0.00     0.078 H 
ATOM    113  H   NAG d1181      11.225 -13.585  -6.150  0.00  0.00     0.090 H 
ATOM    114  H   NAG d1181      14.549 -16.889  -2.897  0.00  0.00     0.040 H 
ATOM    115  H   NAG d1181      16.210 -17.428  -2.818  0.00  0.00     0.040 H 
ATOM    116  H   NAG d1181      14.989 -18.458  -3.527  0.00  0.00     0.040 H 
ATOM    117  H   NAG d1181      15.306 -14.887  -5.170  0.00  0.00     0.163 HD
ATOM    118  H   NAG d1181      13.174 -17.533  -7.252  0.00  0.00     0.210 HD
ATOM    119  H   NAG d1181      13.005 -13.828  -4.628  0.00  0.00     0.132 H 
ATOM    120  H   NAG d1181       9.089 -13.475  -4.428  0.00  0.00     0.209 HD
ATOM    121  H   NAG d1181      11.664 -14.150  -8.353  0.00  0.00     0.210 HD
ATOM    122  H   NAG d1181      13.083 -16.822  -5.026  0.00  0.00     0.084 H 
ATOM    123  C7  NAG d1179      10.782 -13.936   4.239  0.00  0.00     0.214 C 
ATOM    124  C1  NAG d1179      13.585 -12.203   5.217  0.00  0.00     0.154 C 
ATOM    125  C2  NAG d1179      12.709 -12.491   4.004  0.00  0.00     0.087 C 
ATOM    126  O5  NAG d1179      14.239 -10.963   5.055  0.00  0.00    -0.349 OA
ATOM    127  O7  NAG d1179       9.981 -13.157   3.726  0.00  0.00    -0.274 OA
ATOM    128  O4  NAG d1179      15.003 -10.946   1.483  0.00  0.00    -0.390 OA
ATOM    129  N2  NAG d1179      12.101 -13.808   4.111  0.00  0.00    -0.349 N 
ATOM    130  C8  NAG d1179      10.275 -15.091   5.047  0.00  0.00    -0.003 C 
ATOM    131  O3  NAG d1179      12.452 -12.291   1.641  0.00  0.00    -0.348 OA
ATOM    132  C4  NAG d1179      14.211 -11.014   2.651  0.00  0.00     0.089 C 
ATOM    133  C5  NAG d1179      15.073 -10.910   3.911  0.00  0.00     0.089 C 
ATOM    134  O6  NAG d1179      15.056  -8.486   3.867  0.00  0.00    -0.398 OA
ATOM    135  C3  NAG d1179      13.427 -12.322   2.667  0.00  0.00     0.093 C 
ATOM    136  C6  NAG d1179      15.896  -9.622   3.951  0.00  0.00     0.043 C 
ATOM    137  H   NAG d1179      14.364 -12.922   5.360  0.00  0.00     0.132 H 
ATOM    138  H   NAG d1179      11.940 -11.747   4.011  0.00  0.00     0.084 H 
ATOM    139  H   NAG d1179      14.432 -11.014   0.702  0.00  0.00     0.210 HD
ATOM    140  H   NAG d1179      12.670 -14.612   4.090  0.00  0.00     0.163 HD
ATOM    141  H   NAG d1179      11.103 -15.660   5.415  0.00  0.00     0.040 H 
ATOM    142  H   NAG d1179       9.659 -15.713   4.433  0.00  0.00     0.040 H 
ATOM    143  H   NAG d1179       9.701 -14.724   5.872  0.00  0.00     0.040 H 
ATOM    144  H   NAG d1179      13.532 -10.187   2.643  0.00  0.00     0.091 H 
ATOM    145  H   NAG d1179      15.758 -11.733   3.900  0.00  0.00     0.090 H 
ATOM    146  H   NAG d1179      15.596  -7.681   3.895  0.00  0.00     0.209 HD
ATOM    147  H   NAG d1179      14.107 -13.133   2.519  0.00  0.00     0.091 H 
ATOM    148  H   NAG d1179      16.578  -9.616   3.127  0.00  0.00     0.078 H 
ATOM    149  H   NAG d1179      16.432  -9.586   4.877  0.00  0.00     0.078 H 
ATOM    150  C6  BDP d1180      15.259 -13.535  -1.953  0.00  0.00     0.206 C 
ATOM    151  O3  BDP d1180      10.362 -14.143  -2.165  0.00  0.00    -0.390 OA
ATOM    152  C1  BDP d1180      12.677 -13.296   0.641  0.00  0.00     0.160 C 
ATOM    153  O2  BDP d1180      10.582 -14.396   0.842  0.00  0.00    -0.388 OA
ATOM    154  C3  BDP d1180      11.496 -14.401  -1.362  0.00  0.00     0.092 C 
ATOM    155  O4  BDP d1180      13.060 -15.121  -3.031  0.00  0.00    -0.348 OA
ATOM    156  O5  BDP d1180      13.636 -12.854  -0.294  0.00  0.00    -0.340 OA
ATOM    157  C5  BDP d1180      13.957 -13.869  -1.222  0.00  0.00     0.152 C 
ATOM    158  O6B BDP d1180      15.366 -12.406  -2.492  0.00  0.00    -0.646 OA
ATOM    159  O6A BDP d1180      16.159 -14.409  -1.960  0.00  0.00    -0.646 OA
ATOM    160  C2  BDP d1180      11.352 -13.618  -0.050  0.00  0.00     0.110 C 
ATOM    161  C4  BDP d1180      12.762 -14.059  -2.153  0.00  0.00     0.103 C 
ATOM    162  H   BDP d1180       9.557 -14.357  -1.668  0.00  0.00     0.210 HD
ATOM    163  H   BDP d1180      13.056 -14.183   1.104  0.00  0.00     0.133 H 
ATOM    164  H   BDP d1180      10.479 -13.919   1.680  0.00  0.00     0.210 HD
ATOM    165  H   BDP d1180      11.573 -15.436  -1.103  0.00  0.00     0.091 H 
ATOM    166  H   BDP d1180      14.140 -14.801  -0.729  0.00  0.00     0.104 H 
ATOM    167  H   BDP d1180      10.896 -12.684  -0.302  0.00  0.00     0.094 H 
ATOM    168  H   BDP d1180      12.583 -13.150  -2.689  0.00  0.00     0.092 H 
ENDROOT
TORSDOF 43
ENDMDL
MODEL 24
REMARK VINA RESULT:      -6.9      5.533     19.427
REMARK  0 active torsions:
REMARK  status: ('A' for Active; 'I' for Inactive)
REMARK       I    between atoms: C1_1  and  O3_15 
REMARK       I    between atoms: C1_2  and  O3_93 
REMARK       I    between atoms: C6_3  and  C5_89 
REMARK       I    between atoms: C6_3  and  O6_76 
REMARK       I    between atoms: O3_4  and  C3_22 
REMARK       I    between atoms: C6_5  and  C5_48 
REMARK       I    between atoms: C6_5  and  O6_31 
REMARK       I    between atoms: C4_6  and  O4_74 
REMARK       I    between atoms: C7_7  and  C8_62 
REMARK       I    between atoms: C7_7  and  N2_60 
REMARK       I    between atoms: C6_8  and  C5_52 
REMARK       I    between atoms: C3_9  and  O3_38 
REMARK       I    between atoms: C1_10  and  O4_75 
REMARK       I    between atoms: C6_12  and  C5_51 
REMARK       I    between atoms: O3_13  and  C3_42 
REMARK       I    between atoms: O4_14  and  C4_84 
REMARK       I    between atoms: O3_15  and  C3_86 
REMARK       I    between atoms: C6_16  and  C5_23 
REMARK       I    between atoms: C6_16  and  O6_58 
REMARK       I    between atoms: C1_17  and  O3_63 
REMARK       I    between atoms: C2_18  and  N2_60 
REMARK       I    between atoms: C2_19  and  N2_53 
REMARK       I    between atoms: O2_20  and  C2_66 
REMARK       I    between atoms: C3_25  and  O3_93 
REMARK       I    between atoms: C7_26  and  C8_32 
REMARK       I    between atoms: C7_26  and  N2_37 
REMARK       I    between atoms: C2_28  and  N2_44 
REMARK       I    between atoms: C7_29  and  C8_54 
REMARK       I    between atoms: C7_29  and  N2_53 
REMARK       I    between atoms: O1_33  and  C1_80 
REMARK       I    between atoms: O4_34  and  C4_40 
REMARK       I    between atoms: O4_34  and  C1_92 
REMARK       I    between atoms: C7_36  and  C8_81 
REMARK       I    between atoms: C7_36  and  N2_44 
REMARK       I    between atoms: N2_37  and  C2_83 
REMARK       I    between atoms: O3_39  and  C3_61 
REMARK       I    between atoms: C1_41  and  O4_46 
REMARK       I    between atoms: O2_43  and  C2_73 
REMARK       I    between atoms: C6_45  and  C5_87 
REMARK       I    between atoms: O4_46  and  C4_67 
REMARK       I    between atoms: C4_50  and  O4_65 
REMARK       I    between atoms: C2_55  and  O2_82 
REMARK       I    between atoms: O4_57  and  C4_71 
REMARK       I    between atoms: O3_63  and  C3_85 
REMARK       I    between atoms: O4_75  and  C4_91 
REMARK       I    between atoms: C5_77  and  C6_90 
REMARK       I    between atoms: O6_79  and  C6_90 
ROOT
ATOM      1  C1  BDP d1176      14.833  -9.608  -4.864  0.00  0.00     0.160 C 
ATOM      2  O3  BDP d1176      12.461  -7.608  -2.732  0.00  0.00    -0.390 OA
ATOM      3  O5  BDP d1176      14.945 -10.546  -3.832  0.00  0.00    -0.340 OA
ATOM      4  O6A BDP d1176      14.809 -12.029  -1.567  0.00  0.00    -0.646 OA
ATOM      5  C3  BDP d1176      13.738  -8.105  -3.072  0.00  0.00     0.092 C 
ATOM      6  O4  BDP d1176      14.580  -8.494  -0.872  0.00  0.00    -0.348 OA
ATOM      7  C4  BDP d1176      14.155  -9.153  -2.050  0.00  0.00     0.103 C 
ATOM      8  C6  BDP d1176      15.667 -11.133  -1.689  0.00  0.00     0.206 C 
ATOM      9  C2  BDP d1176      13.740  -8.587  -4.522  0.00  0.00     0.110 C 
ATOM     10  O6B BDP d1176      16.783 -11.106  -1.131  0.00  0.00    -0.646 OA
ATOM     11  O2  BDP d1176      13.937  -7.438  -5.309  0.00  0.00    -0.388 OA
ATOM     12  C5  BDP d1176      15.306  -9.982  -2.604  0.00  0.00     0.152 C 
ATOM     13  H   BDP d1176      15.751  -9.075  -4.992  0.00  0.00     0.133 H 
ATOM     14  H   BDP d1176      12.190  -6.939  -3.381  0.00  0.00     0.210 HD
ATOM     15  H   BDP d1176      14.481  -7.336  -3.029  0.00  0.00     0.091 H 
ATOM     16  H   BDP d1176      13.329  -9.797  -1.836  0.00  0.00     0.092 H 
ATOM     17  H   BDP d1176      12.816  -9.094  -4.702  0.00  0.00     0.094 H 
ATOM     18  H   BDP d1176      14.793  -7.037  -5.088  0.00  0.00     0.210 HD
ATOM     19  H   BDP d1176      16.139  -9.318  -2.701  0.00  0.00     0.104 H 
ATOM     20  C1  BDP d1178      14.097  -8.587   4.908  0.00  0.00     0.160 C 
ATOM     21  C6  BDP d1178      11.724 -10.212   7.279  0.00  0.00     0.206 C 
ATOM     22  O6B BDP d1178      11.596 -11.389   7.694  0.00  0.00    -0.646 OA
ATOM     23  O6A BDP d1178      10.860  -9.313   7.421  0.00  0.00    -0.646 OA
ATOM     24  O3  BDP d1178      16.117  -8.272   8.026  0.00  0.00    -0.390 OA
ATOM     25  O2  BDP d1178      16.179  -7.452   5.345  0.00  0.00    -0.388 OA
ATOM     26  C5  BDP d1178      13.046  -9.885   6.582  0.00  0.00     0.152 C 
ATOM     27  C3  BDP d1178      15.327  -8.884   7.032  0.00  0.00     0.092 C 
ATOM     28  C2  BDP d1178      14.987  -7.901   5.939  0.00  0.00     0.110 C 
ATOM     29  O4  BDP d1178      14.425 -10.560   8.375  0.00  0.00    -0.348 OA
ATOM     30  O5  BDP d1178      12.881  -8.948   5.524  0.00  0.00    -0.340 OA
ATOM     31  C4  BDP d1178      14.047  -9.432   7.640  0.00  0.00     0.103 C 
ATOM     32  H   BDP d1178      14.523  -9.492   4.529  0.00  0.00     0.133 H 
ATOM     33  H   BDP d1178      16.930  -7.927   7.625  0.00  0.00     0.210 HD
ATOM     34  H   BDP d1178      15.971  -6.819   4.641  0.00  0.00     0.210 HD
ATOM     35  H   BDP d1178      13.430 -10.761   6.103  0.00  0.00     0.104 H 
ATOM     36  H   BDP d1178      15.890  -9.689   6.608  0.00  0.00     0.091 H 
ATOM     37  H   BDP d1178      14.461  -7.061   6.342  0.00  0.00     0.094 H 
ATOM     38  H   BDP d1178      13.578  -8.668   8.224  0.00  0.00     0.092 H 
ATOM     39  C6  NAG d1177      10.228  -7.267   0.611  0.00  0.00     0.043 C 
ATOM     40  O4  NAG d1177      11.179  -7.698   3.410  0.00  0.00    -0.390 OA
ATOM     41  C2  NAG d1177      14.345  -8.221   1.507  0.00  0.00     0.087 C 
ATOM     42  C3  NAG d1177      13.359  -8.262   2.667  0.00  0.00     0.093 C 
ATOM     43  C7  NAG d1177      16.734  -8.762   1.776  0.00  0.00     0.214 C 
ATOM     44  N2  NAG d1177      15.452  -9.115   1.817  0.00  0.00    -0.349 N 
ATOM     45  C8  NAG d1177      17.703  -9.906   1.758  0.00  0.00    -0.003 C 
ATOM     46  O7  NAG d1177      17.140  -7.595   1.770  0.00  0.00    -0.274 OA
ATOM     47  O6  NAG d1177      10.501  -6.352  -0.434  0.00  0.00    -0.398 OA
ATOM     48  C4  NAG d1177      12.081  -7.505   2.338  0.00  0.00     0.089 C 
ATOM     49  O5  NAG d1177      12.466  -7.874  -0.009  0.00  0.00    -0.349 OA
ATOM     50  C5  NAG d1177      11.502  -8.007   1.016  0.00  0.00     0.089 C 
ATOM     51  C1  NAG d1177      13.646  -8.629   0.209  0.00  0.00     0.154 C 
ATOM     52  O3  NAG d1177      13.940  -7.674   3.808  0.00  0.00    -0.348 OA
ATOM     53  H   NAG d1177       9.847  -6.733   1.456  0.00  0.00     0.078 H 
ATOM     54  H   NAG d1177       9.505  -7.979   0.270  0.00  0.00     0.078 H 
ATOM     55  H   NAG d1177      11.577  -7.369   4.231  0.00  0.00     0.210 HD
ATOM     56  H   NAG d1177      14.721  -7.229   1.370  0.00  0.00     0.084 H 
ATOM     57  H   NAG d1177      13.120  -9.289   2.849  0.00  0.00     0.091 H 
ATOM     58  H   NAG d1177      15.237 -10.041   2.073  0.00  0.00     0.163 HD
ATOM     59  H   NAG d1177      17.164 -10.830   1.767  0.00  0.00     0.040 H 
ATOM     60  H   NAG d1177      18.333  -9.853   2.621  0.00  0.00     0.040 H 
ATOM     61  H   NAG d1177      18.303  -9.851   0.874  0.00  0.00     0.040 H 
ATOM     62  H   NAG d1177      11.156  -5.703  -0.134  0.00  0.00     0.209 HD
ATOM     63  H   NAG d1177      12.273  -6.459   2.220  0.00  0.00     0.091 H 
ATOM     64  H   NAG d1177      11.244  -9.036   1.157  0.00  0.00     0.090 H 
ATOM     65  H   NAG d1177      13.331  -9.650   0.276  0.00  0.00     0.132 H 
ATOM     66  C6  NAG d1175      17.091 -14.248  -7.498  0.00  0.00     0.043 C 
ATOM     67  O3  NAG d1175      14.512 -10.316  -6.083  0.00  0.00    -0.348 OA
ATOM     68  C2  NAG d1175      15.331 -10.425  -8.332  0.00  0.00     0.087 C 
ATOM     69  O6  NAG d1175      18.062 -14.716  -8.405  0.00  0.00    -0.398 OA
ATOM     70  O1  NAG d1175      15.958 -10.899 -10.624  0.00  0.00    -0.369 OA
ATOM     71  C7  NAG d1175      14.324  -8.432  -9.327  0.00  0.00     0.214 C 
ATOM     72  N2  NAG d1175      15.270  -8.985  -8.566  0.00  0.00    -0.349 N 
ATOM     73  C5  NAG d1175      16.931 -12.747  -7.707  0.00  0.00     0.089 C 
ATOM     74  O5  NAG d1175      16.368 -12.492  -8.985  0.00  0.00    -0.349 OA
ATOM     75  C4  NAG d1175      16.085 -12.148  -6.581  0.00  0.00     0.089 C 
ATOM     76  O4  NAG d1175      16.844 -12.244  -5.390  0.00  0.00    -0.390 OA
ATOM     77  O7  NAG d1175      13.115  -8.594  -9.122  0.00  0.00    -0.274 OA
ATOM     78  C1  NAG d1175      16.331 -11.104  -9.276  0.00  0.00     0.151 C 
ATOM     79  C8  NAG d1175      14.813  -7.572 -10.460  0.00  0.00    -0.003 C 
ATOM     80  C3  NAG d1175      15.654 -10.694  -6.852  0.00  0.00     0.093 C 
ATOM     81  H   NAG d1175      16.158 -14.741  -7.679  0.00  0.00     0.078 H 
ATOM     82  H   NAG d1175      17.394 -14.452  -6.492  0.00  0.00     0.078 H 
ATOM     83  H   NAG d1175      14.374 -10.854  -8.548  0.00  0.00     0.084 H 
ATOM     84  H   NAG d1175      17.776 -14.526  -9.312  0.00  0.00     0.209 HD
ATOM     85  H   NAG d1175      15.936  -9.947 -10.813  0.00  0.00     0.212 HD
ATOM     86  H   NAG d1175      15.948  -8.406  -8.150  0.00  0.00     0.163 HD
ATOM     87  H   NAG d1175      17.892 -12.277  -7.676  0.00  0.00     0.090 H 
ATOM     88  H   NAG d1175      15.169 -12.695  -6.503  0.00  0.00     0.091 H 
ATOM     89  H   NAG d1175      17.667 -11.739  -5.489  0.00  0.00     0.210 HD
ATOM     90  H   NAG d1175      17.302 -10.678  -9.131  0.00  0.00     0.132 H 
ATOM     91  H   NAG d1175      15.883  -7.562 -10.465  0.00  0.00     0.040 H 
ATOM     92  H   NAG d1175      14.449  -6.574 -10.334  0.00  0.00     0.040 H 
ATOM     93  H   NAG d1175      14.456  -7.968 -11.388  0.00  0.00     0.040 H 
ATOM     94  H   NAG d1175      16.503 -10.108  -6.564  0.00  0.00     0.091 H 
ATOM     95  C4  NAG d1181      11.524 -20.585  17.294  0.00  0.00     0.089 C 
ATOM     96  C3  NAG d1181      10.699 -19.441  17.892  0.00  0.00     0.086 C 
ATOM     97  C6  NAG d1181      13.352 -21.227  15.666  0.00  0.00     0.043 C 
ATOM     98  C5  NAG d1181      12.693 -20.080  16.435  0.00  0.00     0.089 C 
ATOM     99  C7  NAG d1181       8.526 -16.871  17.198  0.00  0.00     0.214 C 
ATOM    100  C8  NAG d1181       8.169 -16.466  15.794  0.00  0.00    -0.003 C 
ATOM    101  N2  NAG d1181       9.798 -17.194  17.429  0.00  0.00    -0.349 N 
ATOM    102  O3  NAG d1181       9.484 -19.938  18.432  0.00  0.00    -0.391 OA
ATOM    103  C1  NAG d1181      11.672 -17.973  16.078  0.00  0.00     0.154 C 
ATOM    104  O6  NAG d1181      14.650 -20.851  15.253  0.00  0.00    -0.398 OA
ATOM    105  O5  NAG d1181      12.260 -19.111  15.495  0.00  0.00    -0.349 OA
ATOM    106  O7  NAG d1181       7.670 -16.904  18.086  0.00  0.00    -0.274 OA
ATOM    107  O4  NAG d1181      12.021 -21.394  18.337  0.00  0.00    -0.390 OA
ATOM    108  C2  NAG d1181      10.406 -18.375  16.833  0.00  0.00     0.087 C 
ATOM    109  H   NAG d1181      10.879 -21.148  16.653  0.00  0.00     0.091 H 
ATOM    110  H   NAG d1181      11.270 -18.993  18.678  0.00  0.00     0.090 H 
ATOM    111  H   NAG d1181      12.762 -21.462  14.805  0.00  0.00     0.078 H 
ATOM    112  H   NAG d1181      13.422 -22.083  16.304  0.00  0.00     0.078 H 
ATOM    113  H   NAG d1181      13.399 -19.641  17.109  0.00  0.00     0.090 H 
ATOM    114  H   NAG d1181       9.044 -16.502  15.179  0.00  0.00     0.040 H 
ATOM    115  H   NAG d1181       7.777 -15.470  15.800  0.00  0.00     0.040 H 
ATOM    116  H   NAG d1181       7.431 -17.137  15.405  0.00  0.00     0.040 H 
ATOM    117  H   NAG d1181      10.340 -16.620  18.017  0.00  0.00     0.163 HD
ATOM    118  H   NAG d1181       8.959 -20.347  17.726  0.00  0.00     0.210 HD
ATOM    119  H   NAG d1181      12.395 -17.543  16.739  0.00  0.00     0.132 H 
ATOM    120  H   NAG d1181      14.592 -20.075  14.674  0.00  0.00     0.209 HD
ATOM    121  H   NAG d1181      12.602 -20.866  18.906  0.00  0.00     0.210 HD
ATOM    122  H   NAG d1181       9.717 -18.807  16.138  0.00  0.00     0.084 H 
ATOM    123  C7  NAG d1179      13.735 -13.794   8.510  0.00  0.00     0.214 C 
ATOM    124  C1  NAG d1179      13.948 -10.588   9.731  0.00  0.00     0.154 C 
ATOM    125  C2  NAG d1179      14.066 -12.047  10.152  0.00  0.00     0.087 C 
ATOM    126  O5  NAG d1179      14.714  -9.775  10.594  0.00  0.00    -0.349 OA
ATOM    127  O7  NAG d1179      14.781 -14.392   8.754  0.00  0.00    -0.274 OA
ATOM    128  O4  NAG d1179      14.215 -11.388  13.833  0.00  0.00    -0.390 OA
ATOM    129  N2  NAG d1179      13.209 -12.888   9.332  0.00  0.00    -0.349 N 
ATOM    130  C8  NAG d1179      13.000 -14.080   7.236  0.00  0.00    -0.003 C 
ATOM    131  O3  NAG d1179      14.267 -13.588  11.963  0.00  0.00    -0.348 OA
ATOM    132  C4  NAG d1179      14.583 -11.268  12.475  0.00  0.00     0.089 C 
ATOM    133  C5  NAG d1179      14.312  -9.856  11.951  0.00  0.00     0.089 C 
ATOM    134  O6  NAG d1179      16.443  -9.022  12.752  0.00  0.00    -0.398 OA
ATOM    135  C3  NAG d1179      13.815 -12.286  11.639  0.00  0.00     0.093 C 
ATOM    136  C6  NAG d1179      15.048  -8.783  12.755  0.00  0.00     0.043 C 
ATOM    137  H   NAG d1179      12.950 -10.206   9.789  0.00  0.00     0.132 H 
ATOM    138  H   NAG d1179      15.088 -12.320   9.988  0.00  0.00     0.084 H 
ATOM    139  H   NAG d1179      14.397 -12.291  14.138  0.00  0.00     0.210 HD
ATOM    140  H   NAG d1179      12.230 -12.787   9.385  0.00  0.00     0.163 HD
ATOM    141  H   NAG d1179      12.119 -13.474   7.189  0.00  0.00     0.040 H 
ATOM    142  H   NAG d1179      12.725 -15.114   7.208  0.00  0.00     0.040 H 
ATOM    143  H   NAG d1179      13.631 -13.856   6.402  0.00  0.00     0.040 H 
ATOM    144  H   NAG d1179      15.633 -11.457  12.396  0.00  0.00     0.091 H 
ATOM    145  H   NAG d1179      13.263  -9.673  12.050  0.00  0.00     0.090 H 
ATOM    146  H   NAG d1179      16.891  -8.331  13.266  0.00  0.00     0.209 HD
ATOM    147  H   NAG d1179      12.771 -12.185  11.848  0.00  0.00     0.091 H 
ATOM    148  H   NAG d1179      14.692  -8.796  13.764  0.00  0.00     0.078 H 
ATOM    149  H   NAG d1179      14.861  -7.830  12.306  0.00  0.00     0.078 H 
ATOM    150  C6  BDP d1180      11.680 -14.218  15.868  0.00  0.00     0.206 C 
ATOM    151  O3  BDP d1180      13.490 -18.042  13.318  0.00  0.00    -0.390 OA
ATOM    152  C1  BDP d1180      13.237 -14.395  12.552  0.00  0.00     0.160 C 
ATOM    153  O2  BDP d1180      13.287 -16.157  10.960  0.00  0.00    -0.388 OA
ATOM    154  C3  BDP d1180      12.753 -16.845  13.182  0.00  0.00     0.092 C 
ATOM    155  O4  BDP d1180      11.301 -17.003  15.084  0.00  0.00    -0.348 OA
ATOM    156  O5  BDP d1180      13.125 -14.121  13.930  0.00  0.00    -0.340 OA
ATOM    157  C5  BDP d1180      12.043 -14.821  14.509  0.00  0.00     0.152 C 
ATOM    158  O6B BDP d1180      12.596 -14.062  16.713  0.00  0.00    -0.646 OA
ATOM    159  O6A BDP d1180      10.482 -13.899  16.057  0.00  0.00    -0.646 OA
ATOM    160  C2  BDP d1180      13.562 -15.870  12.315  0.00  0.00     0.110 C 
ATOM    161  C4  BDP d1180      12.412 -16.301  14.573  0.00  0.00     0.103 C 
ATOM    162  H   BDP d1180      13.709 -18.390  12.439  0.00  0.00     0.210 HD
ATOM    163  H   BDP d1180      12.297 -14.166  12.095  0.00  0.00     0.133 H 
ATOM    164  H   BDP d1180      13.790 -15.551  10.393  0.00  0.00     0.210 HD
ATOM    165  H   BDP d1180      11.820 -17.006  12.685  0.00  0.00     0.091 H 
ATOM    166  H   BDP d1180      11.159 -14.728  13.913  0.00  0.00     0.104 H 
ATOM    167  H   BDP d1180      14.589 -16.010  12.579  0.00  0.00     0.094 H 
ATOM    168  H   BDP d1180      13.271 -16.425  15.197  0.00  0.00     0.092 H 
ENDROOT
TORSDOF 43
ENDMDL
MODEL 25
REMARK VINA RESULT:      -6.9      4.869      6.883
REMARK  0 active torsions:
REMARK  status: ('A' for Active; 'I' for Inactive)
REMARK       I    between atoms: C1_1  and  O3_15 
REMARK       I    between atoms: C1_2  and  O3_93 
REMARK       I    between atoms: C6_3  and  C5_89 
REMARK       I    between atoms: C6_3  and  O6_76 
REMARK       I    between atoms: O3_4  and  C3_22 
REMARK       I    between atoms: C6_5  and  C5_48 
REMARK       I    between atoms: C6_5  and  O6_31 
REMARK       I    between atoms: C4_6  and  O4_74 
REMARK       I    between atoms: C7_7  and  C8_62 
REMARK       I    between atoms: C7_7  and  N2_60 
REMARK       I    between atoms: C6_8  and  C5_52 
REMARK       I    between atoms: C3_9  and  O3_38 
REMARK       I    between atoms: C1_10  and  O4_75 
REMARK       I    between atoms: C6_12  and  C5_51 
REMARK       I    between atoms: O3_13  and  C3_42 
REMARK       I    between atoms: O4_14  and  C4_84 
REMARK       I    between atoms: O3_15  and  C3_86 
REMARK       I    between atoms: C6_16  and  C5_23 
REMARK       I    between atoms: C6_16  and  O6_58 
REMARK       I    between atoms: C1_17  and  O3_63 
REMARK       I    between atoms: C2_18  and  N2_60 
REMARK       I    between atoms: C2_19  and  N2_53 
REMARK       I    between atoms: O2_20  and  C2_66 
REMARK       I    between atoms: C3_25  and  O3_93 
REMARK       I    between atoms: C7_26  and  C8_32 
REMARK       I    between atoms: C7_26  and  N2_37 
REMARK       I    between atoms: C2_28  and  N2_44 
REMARK       I    between atoms: C7_29  and  C8_54 
REMARK       I    between atoms: C7_29  and  N2_53 
REMARK       I    between atoms: O1_33  and  C1_80 
REMARK       I    between atoms: O4_34  and  C4_40 
REMARK       I    between atoms: O4_34  and  C1_92 
REMARK       I    between atoms: C7_36  and  C8_81 
REMARK       I    between atoms: C7_36  and  N2_44 
REMARK       I    between atoms: N2_37  and  C2_83 
REMARK       I    between atoms: O3_39  and  C3_61 
REMARK       I    between atoms: C1_41  and  O4_46 
REMARK       I    between atoms: O2_43  and  C2_73 
REMARK       I    between atoms: C6_45  and  C5_87 
REMARK       I    between atoms: O4_46  and  C4_67 
REMARK       I    between atoms: C4_50  and  O4_65 
REMARK       I    between atoms: C2_55  and  O2_82 
REMARK       I    between atoms: O4_57  and  C4_71 
REMARK       I    between atoms: O3_63  and  C3_85 
REMARK       I    between atoms: O4_75  and  C4_91 
REMARK       I    between atoms: C5_77  and  C6_90 
REMARK       I    between atoms: O6_79  and  C6_90 
ROOT
ATOM      1  C1  BDP d1176      13.484 -16.335  16.489  0.00  0.00     0.160 C 
ATOM      2  O3  BDP d1176      15.056 -18.626  13.949  0.00  0.00    -0.390 OA
ATOM      3  O5  BDP d1176      12.611 -15.865  15.501  0.00  0.00    -0.340 OA
ATOM      4  O6A BDP d1176      11.188 -15.313  13.262  0.00  0.00    -0.646 OA
ATOM      5  C3  BDP d1176      14.799 -17.358  14.517  0.00  0.00     0.092 C 
ATOM      6  O4  BDP d1176      14.633 -16.081  12.507  0.00  0.00    -0.348 OA
ATOM      7  C4  BDP d1176      13.876 -16.575  13.595  0.00  0.00     0.103 C 
ATOM      8  C6  BDP d1176      12.226 -14.676  13.528  0.00  0.00     0.206 C 
ATOM      9  C2  BDP d1176      14.290 -17.523  15.947  0.00  0.00     0.110 C 
ATOM     10  O6B BDP d1176      12.477 -13.503  13.179  0.00  0.00    -0.646 OA
ATOM     11  O2  BDP d1176      15.434 -17.691  16.748  0.00  0.00    -0.388 OA
ATOM     12  C5  BDP d1176      13.264 -15.405  14.354  0.00  0.00     0.152 C 
ATOM     13  H   BDP d1176      14.176 -15.572  16.775  0.00  0.00     0.133 H 
ATOM     14  H   BDP d1176      15.645 -19.129  14.533  0.00  0.00     0.210 HD
ATOM     15  H   BDP d1176      15.696 -16.779  14.601  0.00  0.00     0.091 H 
ATOM     16  H   BDP d1176      13.094 -17.213  13.241  0.00  0.00     0.092 H 
ATOM     17  H   BDP d1176      13.613 -18.351  15.963  0.00  0.00     0.094 H 
ATOM     18  H   BDP d1176      15.994 -16.902  16.680  0.00  0.00     0.210 HD
ATOM     19  H   BDP d1176      14.070 -14.744  14.593  0.00  0.00     0.104 H 
ATOM     20  C1  BDP d1178      14.601 -15.501   6.735  0.00  0.00     0.160 C 
ATOM     21  C6  BDP d1178      12.620 -17.063   3.990  0.00  0.00     0.206 C 
ATOM     22  O6B BDP d1178      11.452 -16.889   3.569  0.00  0.00    -0.646 OA
ATOM     23  O6A BDP d1178      13.345 -18.043   3.688  0.00  0.00    -0.646 OA
ATOM     24  O3  BDP d1178      15.372 -13.056   4.028  0.00  0.00    -0.390 OA
ATOM     25  O2  BDP d1178      16.119 -13.629   6.669  0.00  0.00    -0.388 OA
ATOM     26  C5  BDP d1178      13.173 -15.972   4.910  0.00  0.00     0.152 C 
ATOM     27  C3  BDP d1178      14.597 -13.880   4.869  0.00  0.00     0.092 C 
ATOM     28  C2  BDP d1178      15.469 -14.589   5.875  0.00  0.00     0.110 C 
ATOM     29  O4  BDP d1178      12.816 -14.194   3.400  0.00  0.00    -0.348 OA
ATOM     30  O5  BDP d1178      14.033 -16.498   5.914  0.00  0.00    -0.340 OA
ATOM     31  C4  BDP d1178      13.833 -14.903   4.046  0.00  0.00     0.103 C 
ATOM     32  H   BDP d1178      13.783 -14.986   7.192  0.00  0.00     0.133 H 
ATOM     33  H   BDP d1178      15.853 -12.408   4.565  0.00  0.00     0.210 HD
ATOM     34  H   BDP d1178      16.683 -14.075   7.320  0.00  0.00     0.210 HD
ATOM     35  H   BDP d1178      12.372 -15.520   5.458  0.00  0.00     0.104 H 
ATOM     36  H   BDP d1178      13.901 -13.259   5.394  0.00  0.00     0.091 H 
ATOM     37  H   BDP d1178      16.206 -15.185   5.377  0.00  0.00     0.094 H 
ATOM     38  H   BDP d1178      14.510 -15.397   3.380  0.00  0.00     0.092 H 
ATOM     39  C6  NAG d1177      15.058 -20.252  10.256  0.00  0.00     0.043 C 
ATOM     40  O4  NAG d1177      14.886 -18.755   7.677  0.00  0.00    -0.390 OA
ATOM     41  C2  NAG d1177      14.919 -15.936  10.122  0.00  0.00     0.087 C 
ATOM     42  C3  NAG d1177      14.723 -16.674   8.805  0.00  0.00     0.093 C 
ATOM     43  C7  NAG d1177      14.845 -13.479  10.291  0.00  0.00     0.214 C 
ATOM     44  N2  NAG d1177      14.258 -14.643  10.024  0.00  0.00    -0.349 N 
ATOM     45  C8  NAG d1177      13.904 -12.330  10.492  0.00  0.00    -0.003 C 
ATOM     46  O7  NAG d1177      16.066 -13.309  10.360  0.00  0.00    -0.274 OA
ATOM     47  O6  NAG d1177      15.980 -20.348  11.326  0.00  0.00    -0.398 OA
ATOM     48  C4  NAG d1177      15.217 -18.111   8.892  0.00  0.00     0.089 C 
ATOM     49  O5  NAG d1177      14.867 -18.087  11.273  0.00  0.00    -0.349 OA
ATOM     50  C5  NAG d1177      14.581 -18.810  10.094  0.00  0.00     0.089 C 
ATOM     51  C1  NAG d1177      14.353 -16.765  11.277  0.00  0.00     0.154 C 
ATOM     52  O3  NAG d1177      15.439 -16.022   7.781  0.00  0.00    -0.348 OA
ATOM     53  H   NAG d1177      15.532 -20.571   9.352  0.00  0.00     0.078 H 
ATOM     54  H   NAG d1177      14.214 -20.876  10.468  0.00  0.00     0.078 H 
ATOM     55  H   NAG d1177      15.305 -18.286   6.939  0.00  0.00     0.210 HD
ATOM     56  H   NAG d1177      15.960 -15.786  10.317  0.00  0.00     0.084 H 
ATOM     57  H   NAG d1177      13.675 -16.678   8.591  0.00  0.00     0.091 H 
ATOM     58  H   NAG d1177      13.315 -14.629   9.741  0.00  0.00     0.163 HD
ATOM     59  H   NAG d1177      12.895 -12.673  10.395  0.00  0.00     0.040 H 
ATOM     60  H   NAG d1177      14.097 -11.578   9.755  0.00  0.00     0.040 H 
ATOM     61  H   NAG d1177      14.047 -11.917  11.469  0.00  0.00     0.040 H 
ATOM     62  H   NAG d1177      16.749 -19.785  11.143  0.00  0.00     0.209 HD
ATOM     63  H   NAG d1177      16.277 -18.145   9.034  0.00  0.00     0.091 H 
ATOM     64  H   NAG d1177      13.526 -18.838   9.917  0.00  0.00     0.090 H 
ATOM     65  H   NAG d1177      13.294 -16.863  11.163  0.00  0.00     0.132 H 
ATOM     66  C6  NAG d1175       9.284 -13.742  19.524  0.00  0.00     0.043 C 
ATOM     67  O3  NAG d1175      12.696 -16.727  17.636  0.00  0.00    -0.348 OA
ATOM     68  C2  NAG d1175      12.686 -16.316  19.996  0.00  0.00     0.087 C 
ATOM     69  O6  NAG d1175       8.984 -12.877  20.595  0.00  0.00    -0.398 OA
ATOM     70  O1  NAG d1175      12.279 -16.027  22.368  0.00  0.00    -0.369 OA
ATOM     71  C7  NAG d1175      14.427 -17.843  20.778  0.00  0.00     0.214 C 
ATOM     72  N2  NAG d1175      14.081 -16.689  20.204  0.00  0.00    -0.349 N 
ATOM     73  C5  NAG d1175      10.723 -14.218  19.688  0.00  0.00     0.089 C 
ATOM     74  O5  NAG d1175      10.835 -15.038  20.842  0.00  0.00    -0.349 OA
ATOM     75  C4  NAG d1175      11.182 -14.949  18.424  0.00  0.00     0.089 C 
ATOM     76  O4  NAG d1175      11.261 -13.986  17.389  0.00  0.00    -0.390 OA
ATOM     77  O7  NAG d1175      14.046 -18.943  20.360  0.00  0.00    -0.274 OA
ATOM     78  C1  NAG d1175      12.182 -15.389  21.110  0.00  0.00     0.151 C 
ATOM     79  C8  NAG d1175      15.334 -17.736  21.973  0.00  0.00    -0.003 C 
ATOM     80  C3  NAG d1175      12.521 -15.689  18.601  0.00  0.00     0.093 C 
ATOM     81  H   NAG d1175       8.621 -14.582  19.539  0.00  0.00     0.078 H 
ATOM     82  H   NAG d1175       9.168 -13.232  18.591  0.00  0.00     0.078 H 
ATOM     83  H   NAG d1175      12.079 -17.196  20.041  0.00  0.00     0.084 H 
ATOM     84  H   NAG d1175       9.094 -13.350  21.434  0.00  0.00     0.209 HD
ATOM     85  H   NAG d1175      13.204 -16.263  22.542  0.00  0.00     0.212 HD
ATOM     86  H   NAG d1175      14.789 -16.071  19.911  0.00  0.00     0.163 HD
ATOM     87  H   NAG d1175      11.366 -13.374  19.826  0.00  0.00     0.090 H 
ATOM     88  H   NAG d1175      10.473 -15.715  18.188  0.00  0.00     0.091 H 
ATOM     89  H   NAG d1175      11.909 -13.305  17.631  0.00  0.00     0.210 HD
ATOM     90  H   NAG d1175      12.788 -14.506  21.138  0.00  0.00     0.132 H 
ATOM     91  H   NAG d1175      15.545 -16.705  22.170  0.00  0.00     0.040 H 
ATOM     92  H   NAG d1175      16.248 -18.254  21.775  0.00  0.00     0.040 H 
ATOM     93  H   NAG d1175      14.854 -18.170  22.825  0.00  0.00     0.040 H 
ATOM     94  H   NAG d1175      13.263 -14.930  18.465  0.00  0.00     0.091 H 
ATOM     95  C4  NAG d1181       2.659 -13.506  -5.810  0.00  0.00     0.089 C 
ATOM     96  C3  NAG d1181       3.643 -14.413  -6.556  0.00  0.00     0.086 C 
ATOM     97  C6  NAG d1181       2.331 -11.908  -3.875  0.00  0.00     0.043 C 
ATOM     98  C5  NAG d1181       3.353 -12.626  -4.760  0.00  0.00     0.089 C 
ATOM     99  C7  NAG d1181       5.738 -17.123  -6.285  0.00  0.00     0.214 C 
ATOM    100  C8  NAG d1181       6.033 -17.794  -4.972  0.00  0.00    -0.003 C 
ATOM    101  N2  NAG d1181       5.667 -15.792  -6.281  0.00  0.00    -0.349 N 
ATOM    102  O3  NAG d1181       2.940 -15.396  -7.302  0.00  0.00    -0.391 OA
ATOM    103  C1  NAG d1181       5.220 -14.075  -4.609  0.00  0.00     0.154 C 
ATOM    104  O6  NAG d1181       2.934 -10.800  -3.239  0.00  0.00    -0.398 OA
ATOM    105  O5  NAG d1181       4.198 -13.395  -3.921  0.00  0.00    -0.349 OA
ATOM    106  O7  NAG d1181       5.568 -17.785  -7.312  0.00  0.00    -0.274 OA
ATOM    107  O4  NAG d1181       1.986 -12.688  -6.740  0.00  0.00    -0.390 OA
ATOM    108  C2  NAG d1181       4.607 -15.087  -5.576  0.00  0.00     0.087 C 
ATOM    109  H   NAG d1181       1.968 -14.135  -5.291  0.00  0.00     0.091 H 
ATOM    110  H   NAG d1181       4.210 -13.808  -7.231  0.00  0.00     0.090 H 
ATOM    111  H   NAG d1181       1.966 -12.587  -3.133  0.00  0.00     0.078 H 
ATOM    112  H   NAG d1181       1.520 -11.565  -4.483  0.00  0.00     0.078 H 
ATOM    113  H   NAG d1181       3.934 -11.907  -5.300  0.00  0.00     0.090 H 
ATOM    114  H   NAG d1181       6.146 -17.052  -4.209  0.00  0.00     0.040 H 
ATOM    115  H   NAG d1181       6.937 -18.360  -5.056  0.00  0.00     0.040 H 
ATOM    116  H   NAG d1181       5.225 -18.448  -4.716  0.00  0.00     0.040 H 
ATOM    117  H   NAG d1181       6.348 -15.273  -6.767  0.00  0.00     0.163 HD
ATOM    118  H   NAG d1181       2.422 -15.951  -6.698  0.00  0.00     0.210 HD
ATOM    119  H   NAG d1181       5.795 -13.341  -5.134  0.00  0.00     0.132 H 
ATOM    120  H   NAG d1181       3.669 -11.106  -2.687  0.00  0.00     0.209 HD
ATOM    121  H   NAG d1181       2.628 -12.125  -7.200  0.00  0.00     0.210 HD
ATOM    122  H   NAG d1181       4.034 -15.794  -5.012  0.00  0.00     0.084 H 
ATOM    123  C7  NAG d1179       9.515 -14.222   3.171  0.00  0.00     0.214 C 
ATOM    124  C1  NAG d1179      12.734 -14.408   1.981  0.00  0.00     0.154 C 
ATOM    125  C2  NAG d1179      11.335 -13.942   1.600  0.00  0.00     0.087 C 
ATOM    126  O5  NAG d1179      13.699 -13.669   1.262  0.00  0.00    -0.349 OA
ATOM    127  O7  NAG d1179       9.131 -13.055   3.124  0.00  0.00    -0.274 OA
ATOM    128  O4  NAG d1179      12.105 -13.269  -2.000  0.00  0.00    -0.390 OA
ATOM    129  N2  NAG d1179      10.326 -14.756   2.260  0.00  0.00    -0.349 N 
ATOM    130  C8  NAG d1179       9.063 -15.104   4.294  0.00  0.00    -0.003 C 
ATOM    131  O3  NAG d1179       9.907 -13.134  -0.132  0.00  0.00    -0.348 OA
ATOM    132  C4  NAG d1179      12.257 -13.177  -0.599  0.00  0.00     0.089 C 
ATOM    133  C5  NAG d1179      13.579 -13.800  -0.144  0.00  0.00     0.089 C 
ATOM    134  O6  NAG d1179      14.820 -11.759  -0.556  0.00  0.00    -0.398 OA
ATOM    135  C3  NAG d1179      11.091 -13.875   0.094  0.00  0.00     0.093 C 
ATOM    136  C6  NAG d1179      14.791 -13.151  -0.812  0.00  0.00     0.043 C 
ATOM    137  H   NAG d1179      12.922 -15.434   1.741  0.00  0.00     0.132 H 
ATOM    138  H   NAG d1179      11.254 -12.933   1.947  0.00  0.00     0.084 H 
ATOM    139  H   NAG d1179      11.261 -12.868  -2.260  0.00  0.00     0.210 HD
ATOM    140  H   NAG d1179      10.243 -15.710   2.031  0.00  0.00     0.163 HD
ATOM    141  H   NAG d1179       9.490 -16.078   4.177  0.00  0.00     0.040 H 
ATOM    142  H   NAG d1179       7.995 -15.179   4.281  0.00  0.00     0.040 H 
ATOM    143  H   NAG d1179       9.379 -14.686   5.226  0.00  0.00     0.040 H 
ATOM    144  H   NAG d1179      12.267 -12.142  -0.331  0.00  0.00     0.091 H 
ATOM    145  H   NAG d1179      13.564 -14.831  -0.431  0.00  0.00     0.090 H 
ATOM    146  H   NAG d1179      15.595 -11.366  -0.988  0.00  0.00     0.209 HD
ATOM    147  H   NAG d1179      10.999 -14.865  -0.300  0.00  0.00     0.091 H 
ATOM    148  H   NAG d1179      14.738 -13.313  -1.868  0.00  0.00     0.078 H 
ATOM    149  H   NAG d1179      15.680 -13.592  -0.412  0.00  0.00     0.078 H 
ATOM    150  C6  BDP d1180       8.902 -14.817  -4.433  0.00  0.00     0.206 C 
ATOM    151  O3  BDP d1180       5.422 -12.797  -1.568  0.00  0.00    -0.390 OA
ATOM    152  C1  BDP d1180       8.935 -13.870  -0.890  0.00  0.00     0.160 C 
ATOM    153  O2  BDP d1180       7.174 -13.770   0.700  0.00  0.00    -0.388 OA
ATOM    154  C3  BDP d1180       6.456 -13.761  -1.576  0.00  0.00     0.092 C 
ATOM    155  O4  BDP d1180       6.076 -14.794  -3.706  0.00  0.00    -0.348 OA
ATOM    156  O5  BDP d1180       9.219 -13.785  -2.268  0.00  0.00    -0.340 OA
ATOM    157  C5  BDP d1180       8.344 -14.594  -3.026  0.00  0.00     0.152 C 
ATOM    158  O6B BDP d1180       9.249 -13.813  -5.101  0.00  0.00    -0.646 OA
ATOM    159  O6A BDP d1180       8.995 -16.001  -4.837  0.00  0.00    -0.646 OA
ATOM    160  C2  BDP d1180       7.542 -13.318  -0.586  0.00  0.00     0.110 C 
ATOM    161  C4  BDP d1180       6.962 -13.946  -3.010  0.00  0.00     0.103 C 
ATOM    162  H   BDP d1180       5.100 -12.676  -0.661  0.00  0.00     0.210 HD
ATOM    163  H   BDP d1180       8.972 -14.902  -0.611  0.00  0.00     0.133 H 
ATOM    164  H   BDP d1180       7.849 -13.501   1.343  0.00  0.00     0.210 HD
ATOM    165  H   BDP d1180       6.109 -14.720  -1.253  0.00  0.00     0.091 H 
ATOM    166  H   BDP d1180       8.253 -15.571  -2.600  0.00  0.00     0.104 H 
ATOM    167  H   BDP d1180       7.605 -12.253  -0.661  0.00  0.00     0.094 H 
ATOM    168  H   BDP d1180       7.018 -12.981  -3.469  0.00  0.00     0.092 H 
ENDROOT
TORSDOF 43
ENDMDL
MODEL 26
REMARK VINA RESULT:      -6.9      5.312      7.235
REMARK  0 active torsions:
REMARK  status: ('A' for Active; 'I' for Inactive)
REMARK       I    between atoms: C1_1  and  O3_15 
REMARK       I    between atoms: C1_2  and  O3_93 
REMARK       I    between atoms: C6_3  and  C5_89 
REMARK       I    between atoms: C6_3  and  O6_76 
REMARK       I    between atoms: O3_4  and  C3_22 
REMARK       I    between atoms: C6_5  and  C5_48 
REMARK       I    between atoms: C6_5  and  O6_31 
REMARK       I    between atoms: C4_6  and  O4_74 
REMARK       I    between atoms: C7_7  and  C8_62 
REMARK       I    between atoms: C7_7  and  N2_60 
REMARK       I    between atoms: C6_8  and  C5_52 
REMARK       I    between atoms: C3_9  and  O3_38 
REMARK       I    between atoms: C1_10  and  O4_75 
REMARK       I    between atoms: C6_12  and  C5_51 
REMARK       I    between atoms: O3_13  and  C3_42 
REMARK       I    between atoms: O4_14  and  C4_84 
REMARK       I    between atoms: O3_15  and  C3_86 
REMARK       I    between atoms: C6_16  and  C5_23 
REMARK       I    between atoms: C6_16  and  O6_58 
REMARK       I    between atoms: C1_17  and  O3_63 
REMARK       I    between atoms: C2_18  and  N2_60 
REMARK       I    between atoms: C2_19  and  N2_53 
REMARK       I    between atoms: O2_20  and  C2_66 
REMARK       I    between atoms: C3_25  and  O3_93 
REMARK       I    between atoms: C7_26  and  C8_32 
REMARK       I    between atoms: C7_26  and  N2_37 
REMARK       I    between atoms: C2_28  and  N2_44 
REMARK       I    between atoms: C7_29  and  C8_54 
REMARK       I    between atoms: C7_29  and  N2_53 
REMARK       I    between atoms: O1_33  and  C1_80 
REMARK       I    between atoms: O4_34  and  C4_40 
REMARK       I    between atoms: O4_34  and  C1_92 
REMARK       I    between atoms: C7_36  and  C8_81 
REMARK       I    between atoms: C7_36  and  N2_44 
REMARK       I    between atoms: N2_37  and  C2_83 
REMARK       I    between atoms: O3_39  and  C3_61 
REMARK       I    between atoms: C1_41  and  O4_46 
REMARK       I    between atoms: O2_43  and  C2_73 
REMARK       I    between atoms: C6_45  and  C5_87 
REMARK       I    between atoms: O4_46  and  C4_67 
REMARK       I    between atoms: C4_50  and  O4_65 
REMARK       I    between atoms: C2_55  and  O2_82 
REMARK       I    between atoms: O4_57  and  C4_71 
REMARK       I    between atoms: O3_63  and  C3_85 
REMARK       I    between atoms: O4_75  and  C4_91 
REMARK       I    between atoms: C5_77  and  C6_90 
REMARK       I    between atoms: O6_79  and  C6_90 
ROOT
ATOM      1  C1  BDP d1176      14.415 -15.232  16.387  0.00  0.00     0.160 C 
ATOM      2  O3  BDP d1176      15.908 -17.641  13.908  0.00  0.00    -0.390 OA
ATOM      3  O5  BDP d1176      13.510 -14.808  15.406  0.00  0.00    -0.340 OA
ATOM      4  O6A BDP d1176      12.016 -14.362  13.190  0.00  0.00    -0.646 OA
ATOM      5  C3  BDP d1176      15.668 -16.347  14.424  0.00  0.00     0.092 C 
ATOM      6  O4  BDP d1176      15.436 -15.166  12.362  0.00  0.00    -0.348 OA
ATOM      7  C4  BDP d1176      14.715 -15.608  13.496  0.00  0.00     0.103 C 
ATOM      8  C6  BDP d1176      13.061 -13.714  13.392  0.00  0.00     0.206 C 
ATOM      9  C2  BDP d1176      15.205 -16.444  15.876  0.00  0.00     0.110 C 
ATOM     10  O6B BDP d1176      13.299 -12.559  12.980  0.00  0.00    -0.646 OA
ATOM     11  O2  BDP d1176      16.375 -16.574  16.646  0.00  0.00    -0.388 OA
ATOM     12  C5  BDP d1176      14.126 -14.404  14.218  0.00  0.00     0.152 C 
ATOM     13  H   BDP d1176      15.116 -14.456  16.614  0.00  0.00     0.133 H 
ATOM     14  H   BDP d1176      16.516 -18.116  14.497  0.00  0.00     0.210 HD
ATOM     15  H   BDP d1176      16.566 -15.765  14.452  0.00  0.00     0.091 H 
ATOM     16  H   BDP d1176      13.922 -16.262  13.198  0.00  0.00     0.092 H 
ATOM     17  H   BDP d1176      14.530 -17.271  15.952  0.00  0.00     0.094 H 
ATOM     18  H   BDP d1176      16.931 -15.789  16.524  0.00  0.00     0.210 HD
ATOM     19  H   BDP d1176      14.939 -13.732  14.400  0.00  0.00     0.104 H 
ATOM     20  C1  BDP d1178      15.218 -14.861   6.573  0.00  0.00     0.160 C 
ATOM     21  C6  BDP d1178      13.152 -16.550   3.971  0.00  0.00     0.206 C 
ATOM     22  O6B BDP d1178      11.970 -16.396   3.580  0.00  0.00    -0.646 OA
ATOM     23  O6A BDP d1178      13.867 -17.544   3.692  0.00  0.00    -0.646 OA
ATOM     24  O3  BDP d1178      15.898 -12.547   3.730  0.00  0.00    -0.390 OA
ATOM     25  O2  BDP d1178      16.730 -12.994   6.370  0.00  0.00    -0.388 OA
ATOM     26  C5  BDP d1178      13.732 -15.417   4.820  0.00  0.00     0.152 C 
ATOM     27  C3  BDP d1178      15.151 -13.330   4.634  0.00  0.00     0.092 C 
ATOM     28  C2  BDP d1178      16.056 -13.991   5.643  0.00  0.00     0.110 C 
ATOM     29  O4  BDP d1178      13.324 -13.712   3.239  0.00  0.00    -0.348 OA
ATOM     30  O5  BDP d1178      14.625 -15.895   5.819  0.00  0.00    -0.340 OA
ATOM     31  C4  BDP d1178      14.363 -14.391   3.885  0.00  0.00     0.103 C 
ATOM     32  H   BDP d1178      14.414 -14.325   7.032  0.00  0.00     0.133 H 
ATOM     33  H   BDP d1178      16.396 -11.874   4.220  0.00  0.00     0.210 HD
ATOM     34  H   BDP d1178      17.315 -13.410   7.022  0.00  0.00     0.210 HD
ATOM     35  H   BDP d1178      12.948 -14.940   5.371  0.00  0.00     0.104 H 
ATOM     36  H   BDP d1178      14.472 -12.685   5.150  0.00  0.00     0.091 H 
ATOM     37  H   BDP d1178      16.777 -14.609   5.151  0.00  0.00     0.094 H 
ATOM     38  H   BDP d1178      15.019 -14.916   3.222  0.00  0.00     0.092 H 
ATOM     39  C6  NAG d1177      15.793 -19.440  10.299  0.00  0.00     0.043 C 
ATOM     40  O4  NAG d1177      15.536 -18.066   7.659  0.00  0.00    -0.390 OA
ATOM     41  C2  NAG d1177      15.644 -15.135   9.965  0.00  0.00     0.087 C 
ATOM     42  C3  NAG d1177      15.408 -15.935   8.691  0.00  0.00     0.093 C 
ATOM     43  C7  NAG d1177      15.573 -12.673  10.020  0.00  0.00     0.214 C 
ATOM     44  N2  NAG d1177      14.979 -13.848   9.827  0.00  0.00    -0.349 N 
ATOM     45  C8  NAG d1177      14.637 -11.515  10.196  0.00  0.00    -0.003 C 
ATOM     46  O7  NAG d1177      16.796 -12.500  10.041  0.00  0.00    -0.274 OA
ATOM     47  O6  NAG d1177      16.750 -19.485  11.342  0.00  0.00    -0.398 OA
ATOM     48  C4  NAG d1177      15.906 -17.365   8.831  0.00  0.00     0.089 C 
ATOM     49  O5  NAG d1177      15.632 -17.229  11.218  0.00  0.00    -0.349 OA
ATOM     50  C5  NAG d1177      15.310 -18.006  10.083  0.00  0.00     0.089 C 
ATOM     51  C1  NAG d1177      15.117 -15.908  11.175  0.00  0.00     0.154 C 
ATOM     52  O3  NAG d1177      16.089 -15.332   7.615  0.00  0.00    -0.348 OA
ATOM     53  H   NAG d1177      16.238 -19.802   9.396  0.00  0.00     0.078 H 
ATOM     54  H   NAG d1177      14.957 -20.052  10.567  0.00  0.00     0.078 H 
ATOM     55  H   NAG d1177      15.931 -17.633   6.886  0.00  0.00     0.210 HD
ATOM     56  H   NAG d1177      16.691 -14.976  10.119  0.00  0.00     0.084 H 
ATOM     57  H   NAG d1177      14.353 -15.948   8.512  0.00  0.00     0.091 H 
ATOM     58  H   NAG d1177      14.028 -13.847   9.574  0.00  0.00     0.163 HD
ATOM     59  H   NAG d1177      13.627 -11.862  10.148  0.00  0.00     0.040 H 
ATOM     60  H   NAG d1177      14.806 -10.799   9.419  0.00  0.00     0.040 H 
ATOM     61  H   NAG d1177      14.811 -11.057  11.147  0.00  0.00     0.040 H 
ATOM     62  H   NAG d1177      17.511 -18.932  11.107  0.00  0.00     0.209 HD
ATOM     63  H   NAG d1177      16.970 -17.393   8.940  0.00  0.00     0.091 H 
ATOM     64  H   NAG d1177      14.250 -18.043   9.943  0.00  0.00     0.090 H 
ATOM     65  H   NAG d1177      14.055 -16.011  11.100  0.00  0.00     0.132 H 
ATOM     66  C6  NAG d1175      10.313 -12.497  19.429  0.00  0.00     0.043 C 
ATOM     67  O3  NAG d1175      13.666 -15.568  17.576  0.00  0.00    -0.348 OA
ATOM     68  C2  NAG d1175      13.730 -15.046  19.913  0.00  0.00     0.087 C 
ATOM     69  O6  NAG d1175      10.046 -11.581  20.466  0.00  0.00    -0.398 OA
ATOM     70  O1  NAG d1175      13.400 -14.645  22.280  0.00  0.00    -0.369 OA
ATOM     71  C7  NAG d1175      15.498 -16.535  20.710  0.00  0.00     0.214 C 
ATOM     72  N2  NAG d1175      15.132 -15.409  20.093  0.00  0.00    -0.349 N 
ATOM     73  C5  NAG d1175      11.756 -12.964  19.569  0.00  0.00     0.089 C 
ATOM     74  O5  NAG d1175      11.906 -13.729  20.757  0.00  0.00    -0.349 OA
ATOM     75  C4  NAG d1175      12.175 -13.754  18.327  0.00  0.00     0.089 C 
ATOM     76  O4  NAG d1175      12.220 -12.842  17.246  0.00  0.00    -0.390 OA
ATOM     77  O7  NAG d1175      15.105 -17.653  20.357  0.00  0.00    -0.274 OA
ATOM     78  C1  NAG d1175      13.262 -14.067  20.997  0.00  0.00     0.151 C 
ATOM     79  C8  NAG d1175      16.442 -16.371  21.869  0.00  0.00    -0.003 C 
ATOM     80  C3  NAG d1175      13.520 -14.486  18.495  0.00  0.00     0.093 C 
ATOM     81  H   NAG d1175       9.651 -13.334  19.505  0.00  0.00     0.078 H 
ATOM     82  H   NAG d1175      10.166 -12.031  18.477  0.00  0.00     0.078 H 
ATOM     83  H   NAG d1175      13.126 -15.923  20.018  0.00  0.00     0.084 H 
ATOM     84  H   NAG d1175      10.184 -12.015  21.323  0.00  0.00     0.209 HD
ATOM     85  H   NAG d1175      14.330 -14.873  22.435  0.00  0.00     0.212 HD
ATOM     86  H   NAG d1175      15.830 -14.805  19.749  0.00  0.00     0.163 HD
ATOM     87  H   NAG d1175      12.402 -12.115  19.646  0.00  0.00     0.090 H 
ATOM     88  H   NAG d1175      11.461 -14.531  18.150  0.00  0.00     0.091 H 
ATOM     89  H   NAG d1175      12.874 -12.150  17.433  0.00  0.00     0.210 HD
ATOM     90  H   NAG d1175      13.867 -13.184  20.964  0.00  0.00     0.132 H 
ATOM     91  H   NAG d1175      16.659 -15.333  22.010  0.00  0.00     0.040 H 
ATOM     92  H   NAG d1175      17.350 -16.899  21.666  0.00  0.00     0.040 H 
ATOM     93  H   NAG d1175      15.991 -16.765  22.755  0.00  0.00     0.040 H 
ATOM     94  H   NAG d1175      14.257 -13.734  18.300  0.00  0.00     0.091 H 
ATOM     95  C4  NAG d1181       2.876 -13.458  -5.662  0.00  0.00     0.089 C 
ATOM     96  C3  NAG d1181       3.836 -14.400  -6.395  0.00  0.00     0.086 C 
ATOM     97  C6  NAG d1181       2.608 -11.771  -3.795  0.00  0.00     0.043 C 
ATOM     98  C5  NAG d1181       3.602 -12.530  -4.677  0.00  0.00     0.089 C 
ATOM     99  C7  NAG d1181       5.943 -17.095  -6.064  0.00  0.00     0.214 C 
ATOM    100  C8  NAG d1181       6.280 -17.704  -4.730  0.00  0.00    -0.003 C 
ATOM    101  N2  NAG d1181       5.869 -15.765  -6.121  0.00  0.00    -0.349 N 
ATOM    102  O3  NAG d1181       3.111 -15.418  -7.071  0.00  0.00    -0.391 OA
ATOM    103  C1  NAG d1181       5.475 -13.971  -4.518  0.00  0.00     0.154 C 
ATOM    104  O6  NAG d1181       3.230 -10.634  -3.232  0.00  0.00    -0.398 OA
ATOM    105  O5  NAG d1181       4.474 -13.259  -3.831  0.00  0.00    -0.349 OA
ATOM    106  O7  NAG d1181       5.741 -17.805  -7.052  0.00  0.00    -0.274 OA
ATOM    107  O4  NAG d1181       2.172 -12.685  -6.607  0.00  0.00    -0.390 OA
ATOM    108  C2  NAG d1181       4.832 -15.027  -5.416  0.00  0.00     0.087 C 
ATOM    109  H   NAG d1181       2.203 -14.063  -5.091  0.00  0.00     0.091 H 
ATOM    110  H   NAG d1181       4.381 -13.828  -7.116  0.00  0.00     0.090 H 
ATOM    111  H   NAG d1181       2.269 -12.414  -3.010  0.00  0.00     0.078 H 
ATOM    112  H   NAG d1181       1.778 -11.457  -4.392  0.00  0.00     0.078 H 
ATOM    113  H   NAG d1181       4.165 -11.838  -5.269  0.00  0.00     0.090 H 
ATOM    114  H   NAG d1181       6.417 -16.926  -4.008  0.00  0.00     0.040 H 
ATOM    115  H   NAG d1181       7.182 -18.273  -4.816  0.00  0.00     0.040 H 
ATOM    116  H   NAG d1181       5.482 -18.344  -4.417  0.00  0.00     0.040 H 
ATOM    117  H   NAG d1181       6.534 -15.270  -6.652  0.00  0.00     0.163 HD
ATOM    118  H   NAG d1181       2.613 -15.943  -6.425  0.00  0.00     0.210 HD
ATOM    119  H   NAG d1181       6.032 -13.263  -5.095  0.00  0.00     0.132 H 
ATOM    120  H   NAG d1181       3.983 -10.914  -2.689  0.00  0.00     0.209 HD
ATOM    121  H   NAG d1181       2.798 -12.145  -7.114  0.00  0.00     0.210 HD
ATOM    122  H   NAG d1181       4.279 -15.706  -4.801  0.00  0.00     0.084 H 
ATOM    123  C7  NAG d1179      10.018 -13.751   3.118  0.00  0.00     0.214 C 
ATOM    124  C1  NAG d1179      13.198 -13.993   1.835  0.00  0.00     0.154 C 
ATOM    125  C2  NAG d1179      11.786 -13.546   1.478  0.00  0.00     0.087 C 
ATOM    126  O5  NAG d1179      14.138 -13.290   1.052  0.00  0.00    -0.349 OA
ATOM    127  O7  NAG d1179       9.631 -12.587   3.028  0.00  0.00    -0.274 OA
ATOM    128  O4  NAG d1179      12.439 -13.045  -2.173  0.00  0.00    -0.390 OA
ATOM    129  N2  NAG d1179      10.800 -14.328   2.207  0.00  0.00    -0.349 N 
ATOM    130  C8  NAG d1179       9.603 -14.578   4.295  0.00  0.00    -0.003 C 
ATOM    131  O3  NAG d1179      10.302 -12.820  -0.244  0.00  0.00    -0.348 OA
ATOM    132  C4  NAG d1179      12.636 -12.887  -0.783  0.00  0.00     0.089 C 
ATOM    133  C5  NAG d1179      13.973 -13.488  -0.342  0.00  0.00     0.089 C 
ATOM    134  O6  NAG d1179      15.197 -11.468  -0.891  0.00  0.00    -0.398 OA
ATOM    135  C3  NAG d1179      11.494 -13.550  -0.021  0.00  0.00     0.093 C 
ATOM    136  C6  NAG d1179      15.162 -12.871  -1.079  0.00  0.00     0.043 C 
ATOM    137  H   NAG d1179      13.379 -15.030   1.638  0.00  0.00     0.132 H 
ATOM    138  H   NAG d1179      11.715 -12.522   1.779  0.00  0.00     0.084 H 
ATOM    139  H   NAG d1179      11.587 -12.656  -2.425  0.00  0.00     0.210 HD
ATOM    140  H   NAG d1179      10.710 -15.292   2.027  0.00  0.00     0.163 HD
ATOM    141  H   NAG d1179      10.027 -15.557   4.211  0.00  0.00     0.040 H 
ATOM    142  H   NAG d1179       8.535 -14.653   4.320  0.00  0.00     0.040 H 
ATOM    143  H   NAG d1179       9.949 -14.116   5.196  0.00  0.00     0.040 H 
ATOM    144  H   NAG d1179      12.653 -11.839  -0.565  0.00  0.00     0.091 H 
ATOM    145  H   NAG d1179      13.949 -14.531  -0.580  0.00  0.00     0.090 H 
ATOM    146  H   NAG d1179      15.958 -11.097  -1.365  0.00  0.00     0.209 HD
ATOM    147  H   NAG d1179      11.390 -14.558  -0.364  0.00  0.00     0.091 H 
ATOM    148  H   NAG d1179      15.075 -13.083  -2.124  0.00  0.00     0.078 H 
ATOM    149  H   NAG d1179      16.064 -13.293  -0.687  0.00  0.00     0.078 H 
ATOM    150  C6  BDP d1180       9.161 -14.705  -4.426  0.00  0.00     0.206 C 
ATOM    151  O3  BDP d1180       5.773 -12.551  -1.549  0.00  0.00    -0.390 OA
ATOM    152  C1  BDP d1180       9.307 -13.591  -0.934  0.00  0.00     0.160 C 
ATOM    153  O2  BDP d1180       7.598 -13.416   0.705  0.00  0.00    -0.388 OA
ATOM    154  C3  BDP d1180       6.807 -13.514  -1.544  0.00  0.00     0.092 C 
ATOM    155  O4  BDP d1180       6.360 -14.647  -3.610  0.00  0.00    -0.348 OA
ATOM    156  O5  BDP d1180       9.547 -13.572  -2.324  0.00  0.00    -0.340 OA
ATOM    157  C5  BDP d1180       8.648 -14.416  -3.014  0.00  0.00     0.152 C 
ATOM    158  O6B BDP d1180       9.486 -13.733  -5.151  0.00  0.00    -0.646 OA
ATOM    159  O6A BDP d1180       9.243 -15.907  -4.776  0.00  0.00    -0.646 OA
ATOM    160  C2  BDP d1180       7.924 -13.025  -0.612  0.00  0.00     0.110 C 
ATOM    161  C4  BDP d1180       7.267 -13.767  -2.984  0.00  0.00     0.103 C 
ATOM    162  H   BDP d1180       5.480 -12.387  -0.638  0.00  0.00     0.210 HD
ATOM    163  H   BDP d1180       9.354 -14.609  -0.608  0.00  0.00     0.133 H 
ATOM    164  H   BDP d1180       8.293 -13.117   1.312  0.00  0.00     0.210 HD
ATOM    165  H   BDP d1180       6.472 -14.456  -1.166  0.00  0.00     0.091 H 
ATOM    166  H   BDP d1180       8.573 -15.371  -2.539  0.00  0.00     0.104 H 
ATOM    167  H   BDP d1180       7.984 -11.965  -0.739  0.00  0.00     0.094 H 
ATOM    168  H   BDP d1180       7.307 -12.825  -3.490  0.00  0.00     0.092 H 
ENDROOT
TORSDOF 43
ENDMDL
MODEL 27
REMARK VINA RESULT:      -6.8      4.172      6.250
REMARK  0 active torsions:
REMARK  status: ('A' for Active; 'I' for Inactive)
REMARK       I    between atoms: C1_1  and  O3_15 
REMARK       I    between atoms: C1_2  and  O3_93 
REMARK       I    between atoms: C6_3  and  C5_89 
REMARK       I    between atoms: C6_3  and  O6_76 
REMARK       I    between atoms: O3_4  and  C3_22 
REMARK       I    between atoms: C6_5  and  C5_48 
REMARK       I    between atoms: C6_5  and  O6_31 
REMARK       I    between atoms: C4_6  and  O4_74 
REMARK       I    between atoms: C7_7  and  C8_62 
REMARK       I    between atoms: C7_7  and  N2_60 
REMARK       I    between atoms: C6_8  and  C5_52 
REMARK       I    between atoms: C3_9  and  O3_38 
REMARK       I    between atoms: C1_10  and  O4_75 
REMARK       I    between atoms: C6_12  and  C5_51 
REMARK       I    between atoms: O3_13  and  C3_42 
REMARK       I    between atoms: O4_14  and  C4_84 
REMARK       I    between atoms: O3_15  and  C3_86 
REMARK       I    between atoms: C6_16  and  C5_23 
REMARK       I    between atoms: C6_16  and  O6_58 
REMARK       I    between atoms: C1_17  and  O3_63 
REMARK       I    between atoms: C2_18  and  N2_60 
REMARK       I    between atoms: C2_19  and  N2_53 
REMARK       I    between atoms: O2_20  and  C2_66 
REMARK       I    between atoms: C3_25  and  O3_93 
REMARK       I    between atoms: C7_26  and  C8_32 
REMARK       I    between atoms: C7_26  and  N2_37 
REMARK       I    between atoms: C2_28  and  N2_44 
REMARK       I    between atoms: C7_29  and  C8_54 
REMARK       I    between atoms: C7_29  and  N2_53 
REMARK       I    between atoms: O1_33  and  C1_80 
REMARK       I    between atoms: O4_34  and  C4_40 
REMARK       I    between atoms: O4_34  and  C1_92 
REMARK       I    between atoms: C7_36  and  C8_81 
REMARK       I    between atoms: C7_36  and  N2_44 
REMARK       I    between atoms: N2_37  and  C2_83 
REMARK       I    between atoms: O3_39  and  C3_61 
REMARK       I    between atoms: C1_41  and  O4_46 
REMARK       I    between atoms: O2_43  and  C2_73 
REMARK       I    between atoms: C6_45  and  C5_87 
REMARK       I    between atoms: O4_46  and  C4_67 
REMARK       I    between atoms: C4_50  and  O4_65 
REMARK       I    between atoms: C2_55  and  O2_82 
REMARK       I    between atoms: O4_57  and  C4_71 
REMARK       I    between atoms: O3_63  and  C3_85 
REMARK       I    between atoms: O4_75  and  C4_91 
REMARK       I    between atoms: C5_77  and  C6_90 
REMARK       I    between atoms: O6_79  and  C6_90 
ROOT
ATOM      1  C1  BDP d1176      12.475 -13.284  15.296  0.00  0.00     0.160 C 
ATOM      2  O3  BDP d1176      14.753 -15.428  13.201  0.00  0.00    -0.390 OA
ATOM      3  O5  BDP d1176      11.530 -13.307  14.264  0.00  0.00    -0.340 OA
ATOM      4  O6A BDP d1176      10.075 -13.666  12.006  0.00  0.00    -0.646 OA
ATOM      5  C3  BDP d1176      14.101 -14.216  13.521  0.00  0.00     0.092 C 
ATOM      6  O4  BDP d1176      13.611 -13.468  11.307  0.00  0.00    -0.348 OA
ATOM      7  C4  BDP d1176      13.010 -13.950  12.494  0.00  0.00     0.103 C 
ATOM      8  C6  BDP d1176      10.858 -12.701  12.110  0.00  0.00     0.206 C 
ATOM      9  C2  BDP d1176      13.623 -14.248  14.970  0.00  0.00     0.110 C 
ATOM     10  O6B BDP d1176      10.746 -11.600  11.533  0.00  0.00    -0.646 OA
ATOM     11  O2  BDP d1176      14.739 -13.897  15.752  0.00  0.00    -0.388 OA
ATOM     12  C5  BDP d1176      12.044 -12.901  13.029  0.00  0.00     0.152 C 
ATOM     13  H   BDP d1176      12.890 -12.305  15.407  0.00  0.00     0.133 H 
ATOM     14  H   BDP d1176      15.449 -15.602  13.854  0.00  0.00     0.210 HD
ATOM     15  H   BDP d1176      14.772 -13.384  13.462  0.00  0.00     0.091 H 
ATOM     16  H   BDP d1176      12.473 -14.853  12.295  0.00  0.00     0.092 H 
ATOM     17  H   BDP d1176      13.234 -15.225  15.168  0.00  0.00     0.094 H 
ATOM     18  H   BDP d1176      15.030 -13.002  15.515  0.00  0.00     0.210 HD
ATOM     19  H   BDP d1176      12.601 -11.990  13.110  0.00  0.00     0.104 H 
ATOM     20  C1  BDP d1178      13.579 -14.060   5.536  0.00  0.00     0.160 C 
ATOM     21  C6  BDP d1178      12.260 -16.657   3.210  0.00  0.00     0.206 C 
ATOM     22  O6B BDP d1178      11.108 -16.937   2.801  0.00  0.00    -0.646 OA
ATOM     23  O6A BDP d1178      13.259 -17.406   3.082  0.00  0.00    -0.646 OA
ATOM     24  O3  BDP d1178      13.642 -12.072   2.383  0.00  0.00    -0.390 OA
ATOM     25  O2  BDP d1178      14.447 -11.862   5.060  0.00  0.00    -0.388 OA
ATOM     26  C5  BDP d1178      12.421 -15.293   3.883  0.00  0.00     0.152 C 
ATOM     27  C3  BDP d1178      13.132 -12.914   3.392  0.00  0.00     0.092 C 
ATOM     28  C2  BDP d1178      14.149 -13.110   4.488  0.00  0.00     0.110 C 
ATOM     29  O4  BDP d1178      11.580 -14.040   2.068  0.00  0.00    -0.348 OA
ATOM     30  O5  BDP d1178      13.371 -15.323   4.943  0.00  0.00    -0.340 OA
ATOM     31  C4  BDP d1178      12.747 -14.262   2.807  0.00  0.00     0.103 C 
ATOM     32  H   BDP d1178      12.628 -13.743   5.910  0.00  0.00     0.133 H 
ATOM     33  H   BDP d1178      13.883 -11.215   2.768  0.00  0.00     0.210 HD
ATOM     34  H   BDP d1178      15.101 -11.978   5.767  0.00  0.00     0.210 HD
ATOM     35  H   BDP d1178      11.504 -15.012   4.358  0.00  0.00     0.104 H 
ATOM     36  H   BDP d1178      12.264 -12.448   3.807  0.00  0.00     0.091 H 
ATOM     37  H   BDP d1178      15.048 -13.535   4.093  0.00  0.00     0.094 H 
ATOM     38  H   BDP d1178      13.563 -14.644   2.230  0.00  0.00     0.092 H 
ATOM     39  C6  NAG d1177      15.368 -17.660   9.897  0.00  0.00     0.043 C 
ATOM     40  O4  NAG d1177      14.822 -16.819   7.083  0.00  0.00    -0.390 OA
ATOM     41  C2  NAG d1177      13.911 -13.709   8.932  0.00  0.00     0.087 C 
ATOM     42  C3  NAG d1177      13.993 -14.713   7.789  0.00  0.00     0.093 C 
ATOM     43  C7  NAG d1177      13.079 -11.410   8.622  0.00  0.00     0.214 C 
ATOM     44  N2  NAG d1177      12.887 -12.727   8.604  0.00  0.00    -0.349 N 
ATOM     45  C8  NAG d1177      11.824 -10.590   8.625  0.00  0.00    -0.003 C 
ATOM     46  O7  NAG d1177      14.186 -10.863   8.618  0.00  0.00    -0.274 OA
ATOM     47  O6  NAG d1177      16.242 -17.257  10.936  0.00  0.00    -0.398 OA
ATOM     48  C4  NAG d1177      14.902 -15.881   8.139  0.00  0.00     0.089 C 
ATOM     49  O5  NAG d1177      14.488 -15.504  10.479  0.00  0.00    -0.349 OA
ATOM     50  C5  NAG d1177      14.475 -16.495   9.472  0.00  0.00     0.089 C 
ATOM     51  C1  NAG d1177      13.593 -14.430  10.242  0.00  0.00     0.154 C 
ATOM     52  O3  NAG d1177      14.504 -14.084   6.636  0.00  0.00    -0.348 OA
ATOM     53  H   NAG d1177      15.945 -17.987   9.058  0.00  0.00     0.078 H 
ATOM     54  H   NAG d1177      14.750 -18.459  10.252  0.00  0.00     0.078 H 
ATOM     55  H   NAG d1177      15.099 -16.398   6.255  0.00  0.00     0.210 HD
ATOM     56  H   NAG d1177      14.849 -13.210   9.060  0.00  0.00     0.084 H 
ATOM     57  H   NAG d1177      13.003 -15.080   7.613  0.00  0.00     0.091 H 
ATOM     58  H   NAG d1177      11.995 -13.059   8.354  0.00  0.00     0.163 HD
ATOM     59  H   NAG d1177      10.974 -11.239   8.628  0.00  0.00     0.040 H 
ATOM     60  H   NAG d1177      11.799  -9.974   7.751  0.00  0.00     0.040 H 
ATOM     61  H   NAG d1177      11.804  -9.972   9.498  0.00  0.00     0.040 H 
ATOM     62  H   NAG d1177      16.805 -16.532  10.622  0.00  0.00     0.209 HD
ATOM     63  H   NAG d1177      15.916 -15.559   8.251  0.00  0.00     0.091 H 
ATOM     64  H   NAG d1177      13.486 -16.880   9.338  0.00  0.00     0.090 H 
ATOM     65  H   NAG d1177      12.619 -14.870  10.183  0.00  0.00     0.132 H 
ATOM     66  C6  NAG d1175       7.590 -11.572  17.900  0.00  0.00     0.043 C 
ATOM     67  O3  NAG d1175      11.811 -13.668  16.522  0.00  0.00    -0.348 OA
ATOM     68  C2  NAG d1175      11.602 -12.830  18.756  0.00  0.00     0.087 C 
ATOM     69  O6  NAG d1175       7.006 -10.649  18.791  0.00  0.00    -0.398 OA
ATOM     70  O1  NAG d1175      11.054 -12.226  21.039  0.00  0.00    -0.369 OA
ATOM     71  C7  NAG d1175      13.705 -13.564  19.765  0.00  0.00     0.214 C 
ATOM     72  N2  NAG d1175      13.038 -12.708  18.988  0.00  0.00    -0.349 N 
ATOM     73  C5  NAG d1175       9.100 -11.540  18.108  0.00  0.00     0.089 C 
ATOM     74  O5  NAG d1175       9.423 -12.045  19.396  0.00  0.00    -0.349 OA
ATOM     75  C4  NAG d1175       9.799 -12.325  16.997  0.00  0.00     0.089 C 
ATOM     76  O4  NAG d1175       9.610 -11.605  15.792  0.00  0.00    -0.390 OA
ATOM     77  O7  NAG d1175      13.693 -14.788  19.581  0.00  0.00    -0.274 OA
ATOM     78  C1  NAG d1175      10.805 -11.905  19.684  0.00  0.00     0.151 C 
ATOM     79  C8  NAG d1175      14.497 -12.953  20.887  0.00  0.00    -0.003 C 
ATOM     80  C3  NAG d1175      11.295 -12.568  17.271  0.00  0.00     0.093 C 
ATOM     81  H   NAG d1175       7.217 -12.555  18.099  0.00  0.00     0.078 H 
ATOM     82  H   NAG d1175       7.351 -11.314  16.890  0.00  0.00     0.078 H 
ATOM     83  H   NAG d1175      11.295 -13.828  18.990  0.00  0.00     0.084 H 
ATOM     84  H   NAG d1175       7.230 -10.894  19.703  0.00  0.00     0.209 HD
ATOM     85  H   NAG d1175      12.001 -12.127  21.225  0.00  0.00     0.212 HD
ATOM     86  H   NAG d1175      13.530 -11.971  18.559  0.00  0.00     0.163 HD
ATOM     87  H   NAG d1175       9.447 -10.529  18.059  0.00  0.00     0.090 H 
ATOM     88  H   NAG d1175       9.369 -13.303  16.936  0.00  0.00     0.091 H 
ATOM     89  H   NAG d1175      10.009 -10.725  15.876  0.00  0.00     0.210 HD
ATOM     90  H   NAG d1175      11.107 -10.891  19.521  0.00  0.00     0.132 H 
ATOM     91  H   NAG d1175      14.375 -11.890  20.874  0.00  0.00     0.040 H 
ATOM     92  H   NAG d1175      15.532 -13.193  20.765  0.00  0.00     0.040 H 
ATOM     93  H   NAG d1175      14.149 -13.340  21.822  0.00  0.00     0.040 H 
ATOM     94  H   NAG d1175      11.772 -11.659  16.968  0.00  0.00     0.091 H 
ATOM     95  C4  NAG d1181       1.992 -18.315  -6.777  0.00  0.00     0.089 C 
ATOM     96  C3  NAG d1181       3.229 -19.003  -7.363  0.00  0.00     0.086 C 
ATOM     97  C6  NAG d1181       1.128 -16.552  -5.180  0.00  0.00     0.043 C 
ATOM     98  C5  NAG d1181       2.348 -17.078  -5.940  0.00  0.00     0.089 C 
ATOM     99  C7  NAG d1181       6.047 -20.829  -6.637  0.00  0.00     0.214 C 
ATOM    100  C8  NAG d1181       6.494 -21.108  -5.227  0.00  0.00    -0.003 C 
ATOM    101  N2  NAG d1181       5.569 -19.611  -6.889  0.00  0.00    -0.349 N 
ATOM    102  O3  NAG d1181       2.886 -20.280  -7.881  0.00  0.00    -0.391 OA
ATOM    103  C1  NAG d1181       4.565 -17.824  -5.569  0.00  0.00     0.154 C 
ATOM    104  O6  NAG d1181       1.341 -15.211  -4.790  0.00  0.00    -0.398 OA
ATOM    105  O5  NAG d1181       3.363 -17.372  -4.995  0.00  0.00    -0.349 OA
ATOM    106  O7  NAG d1181       6.121 -21.698  -7.509  0.00  0.00    -0.274 OA
ATOM    107  O4  NAG d1181       1.128 -17.941  -7.827  0.00  0.00    -0.390 OA
ATOM    108  C2  NAG d1181       4.323 -19.143  -6.301  0.00  0.00     0.087 C 
ATOM    109  H   NAG d1181       1.512 -19.014  -6.123  0.00  0.00     0.091 H 
ATOM    110  H   NAG d1181       3.603 -18.395  -8.160  0.00  0.00     0.090 H 
ATOM    111  H   NAG d1181       0.968 -17.152  -4.308  0.00  0.00     0.078 H 
ATOM    112  H   NAG d1181       0.271 -16.600  -5.817  0.00  0.00     0.078 H 
ATOM    113  H   NAG d1181       2.696 -16.335  -6.627  0.00  0.00     0.090 H 
ATOM    114  H   NAG d1181       6.350 -20.234  -4.628  0.00  0.00     0.040 H 
ATOM    115  H   NAG d1181       7.531 -21.374  -5.228  0.00  0.00     0.040 H 
ATOM    116  H   NAG d1181       5.919 -21.916  -4.824  0.00  0.00     0.040 H 
ATOM    117  H   NAG d1181       6.073 -19.012  -7.488  0.00  0.00     0.163 HD
ATOM    118  H   NAG d1181       2.545 -20.838  -7.165  0.00  0.00     0.210 HD
ATOM    119  H   NAG d1181       4.902 -17.065  -6.244  0.00  0.00     0.132 H 
ATOM    120  H   NAG d1181       2.118 -15.162  -4.212  0.00  0.00     0.209 HD
ATOM    121  H   NAG d1181       1.579 -17.309  -8.407  0.00  0.00     0.210 HD
ATOM    122  H   NAG d1181       3.979 -19.868  -5.593  0.00  0.00     0.084 H 
ATOM    123  C7  NAG d1179       8.457 -15.127   1.952  0.00  0.00     0.214 C 
ATOM    124  C1  NAG d1179      11.612 -14.540   0.721  0.00  0.00     0.154 C 
ATOM    125  C2  NAG d1179      10.150 -14.612   0.301  0.00  0.00     0.087 C 
ATOM    126  O5  NAG d1179      12.324 -13.695  -0.157  0.00  0.00    -0.349 OA
ATOM    127  O7  NAG d1179       7.734 -14.167   1.692  0.00  0.00    -0.274 OA
ATOM    128  O4  NAG d1179      10.785 -14.447  -3.384  0.00  0.00    -0.390 OA
ATOM    129  N2  NAG d1179       9.421 -15.552   1.137  0.00  0.00    -0.349 N 
ATOM    130  C8  NAG d1179       8.264 -15.869   3.239  0.00  0.00    -0.003 C 
ATOM    131  O3  NAG d1179       8.596 -14.635  -1.510  0.00  0.00    -0.348 OA
ATOM    132  C4  NAG d1179      10.859 -14.043  -2.032  0.00  0.00     0.089 C 
ATOM    133  C5  NAG d1179      12.293 -14.128  -1.507  0.00  0.00     0.089 C 
ATOM    134  O6  NAG d1179      12.857 -11.924  -2.347  0.00  0.00    -0.398 OA
ATOM    135  C3  NAG d1179       9.943 -14.916  -1.181  0.00  0.00     0.093 C 
ATOM    136  C6  NAG d1179      13.267 -13.280  -2.326  0.00  0.00     0.043 C 
ATOM    137  H   NAG d1179      12.114 -15.485   0.679  0.00  0.00     0.132 H 
ATOM    138  H   NAG d1179       9.752 -13.629   0.447  0.00  0.00     0.084 H 
ATOM    139  H   NAG d1179       9.867 -14.384  -3.690  0.00  0.00     0.210 HD
ATOM    140  H   NAG d1179       9.642 -16.511   1.101  0.00  0.00     0.163 HD
ATOM    141  H   NAG d1179       8.974 -16.667   3.300  0.00  0.00     0.040 H 
ATOM    142  H   NAG d1179       7.272 -16.270   3.274  0.00  0.00     0.040 H 
ATOM    143  H   NAG d1179       8.408 -15.201   4.062  0.00  0.00     0.040 H 
ATOM    144  H   NAG d1179      10.541 -13.023  -1.971  0.00  0.00     0.091 H 
ATOM    145  H   NAG d1179      12.605 -15.148  -1.588  0.00  0.00     0.090 H 
ATOM    146  H   NAG d1179      13.487 -11.404  -2.870  0.00  0.00     0.209 HD
ATOM    147  H   NAG d1179      10.172 -15.944  -1.372  0.00  0.00     0.091 H 
ATOM    148  H   NAG d1179      13.298 -13.652  -3.329  0.00  0.00     0.078 H 
ATOM    149  H   NAG d1179      14.236 -13.339  -1.876  0.00  0.00     0.078 H 
ATOM    150  C6  BDP d1180       8.290 -17.348  -5.368  0.00  0.00     0.206 C 
ATOM    151  O3  BDP d1180       4.271 -15.980  -2.842  0.00  0.00    -0.390 OA
ATOM    152  C1  BDP d1180       7.921 -15.767  -2.079  0.00  0.00     0.160 C 
ATOM    153  O2  BDP d1180       6.167 -15.907  -0.484  0.00  0.00    -0.388 OA
ATOM    154  C3  BDP d1180       5.551 -16.561  -2.695  0.00  0.00     0.092 C 
ATOM    155  O4  BDP d1180       5.573 -18.055  -4.571  0.00  0.00    -0.348 OA
ATOM    156  O5  BDP d1180       8.207 -15.868  -3.456  0.00  0.00    -0.340 OA
ATOM    157  C5  BDP d1180       7.647 -17.039  -4.014  0.00  0.00     0.152 C 
ATOM    158  O6B BDP d1180       8.331 -16.435  -6.229  0.00  0.00    -0.646 OA
ATOM    159  O6A BDP d1180       8.755 -18.501  -5.537  0.00  0.00    -0.646 OA
ATOM    160  C2  BDP d1180       6.418 -15.622  -1.845  0.00  0.00     0.110 C 
ATOM    161  C4  BDP d1180       6.133 -16.857  -4.081  0.00  0.00     0.103 C 
ATOM    162  H   BDP d1180       3.900 -15.791  -1.966  0.00  0.00     0.210 HD
ATOM    163  H   BDP d1180       8.265 -16.663  -1.606  0.00  0.00     0.133 H 
ATOM    164  H   BDP d1180       6.706 -15.323   0.072  0.00  0.00     0.210 HD
ATOM    165  H   BDP d1180       5.507 -17.498  -2.181  0.00  0.00     0.091 H 
ATOM    166  H   BDP d1180       7.849 -17.893  -3.403  0.00  0.00     0.104 H 
ATOM    167  H   BDP d1180       6.152 -14.625  -2.127  0.00  0.00     0.094 H 
ATOM    168  H   BDP d1180       5.903 -16.030  -4.720  0.00  0.00     0.092 H 
ENDROOT
TORSDOF 43
ENDMDL
MODEL 28
REMARK VINA RESULT:      -6.8      3.672     19.023
REMARK  0 active torsions:
REMARK  status: ('A' for Active; 'I' for Inactive)
REMARK       I    between atoms: C1_1  and  O3_15 
REMARK       I    between atoms: C1_2  and  O3_93 
REMARK       I    between atoms: C6_3  and  C5_89 
REMARK       I    between atoms: C6_3  and  O6_76 
REMARK       I    between atoms: O3_4  and  C3_22 
REMARK       I    between atoms: C6_5  and  C5_48 
REMARK       I    between atoms: C6_5  and  O6_31 
REMARK       I    between atoms: C4_6  and  O4_74 
REMARK       I    between atoms: C7_7  and  C8_62 
REMARK       I    between atoms: C7_7  and  N2_60 
REMARK       I    between atoms: C6_8  and  C5_52 
REMARK       I    between atoms: C3_9  and  O3_38 
REMARK       I    between atoms: C1_10  and  O4_75 
REMARK       I    between atoms: C6_12  and  C5_51 
REMARK       I    between atoms: O3_13  and  C3_42 
REMARK       I    between atoms: O4_14  and  C4_84 
REMARK       I    between atoms: O3_15  and  C3_86 
REMARK       I    between atoms: C6_16  and  C5_23 
REMARK       I    between atoms: C6_16  and  O6_58 
REMARK       I    between atoms: C1_17  and  O3_63 
REMARK       I    between atoms: C2_18  and  N2_60 
REMARK       I    between atoms: C2_19  and  N2_53 
REMARK       I    between atoms: O2_20  and  C2_66 
REMARK       I    between atoms: C3_25  and  O3_93 
REMARK       I    between atoms: C7_26  and  C8_32 
REMARK       I    between atoms: C7_26  and  N2_37 
REMARK       I    between atoms: C2_28  and  N2_44 
REMARK       I    between atoms: C7_29  and  C8_54 
REMARK       I    between atoms: C7_29  and  N2_53 
REMARK       I    between atoms: O1_33  and  C1_80 
REMARK       I    between atoms: O4_34  and  C4_40 
REMARK       I    between atoms: O4_34  and  C1_92 
REMARK       I    between atoms: C7_36  and  C8_81 
REMARK       I    between atoms: C7_36  and  N2_44 
REMARK       I    between atoms: N2_37  and  C2_83 
REMARK       I    between atoms: O3_39  and  C3_61 
REMARK       I    between atoms: C1_41  and  O4_46 
REMARK       I    between atoms: O2_43  and  C2_73 
REMARK       I    between atoms: C6_45  and  C5_87 
REMARK       I    between atoms: O4_46  and  C4_67 
REMARK       I    between atoms: C4_50  and  O4_65 
REMARK       I    between atoms: C2_55  and  O2_82 
REMARK       I    between atoms: O4_57  and  C4_71 
REMARK       I    between atoms: O3_63  and  C3_85 
REMARK       I    between atoms: O4_75  and  C4_91 
REMARK       I    between atoms: C5_77  and  C6_90 
REMARK       I    between atoms: O6_79  and  C6_90 
ROOT
ATOM      1  C1  BDP d1176       9.973 -14.847  -1.716  0.00  0.00     0.160 C 
ATOM      2  O3  BDP d1176      12.694 -12.656  -0.314  0.00  0.00    -0.390 OA
ATOM      3  O5  BDP d1176       9.321 -14.803  -0.478  0.00  0.00    -0.340 OA
ATOM      4  O6A BDP d1176       8.485 -14.395   2.068  0.00  0.00    -0.646 OA
ATOM      5  C3  BDP d1176      11.991 -13.875  -0.432  0.00  0.00     0.092 C 
ATOM      6  O4  BDP d1176      12.084 -14.575   1.850  0.00  0.00    -0.348 OA
ATOM      7  C4  BDP d1176      11.198 -14.120   0.844  0.00  0.00     0.103 C 
ATOM      8  C6  BDP d1176       9.222 -15.361   1.788  0.00  0.00     0.206 C 
ATOM      9  C2  BDP d1176      11.160 -13.876  -1.713  0.00  0.00     0.110 C 
ATOM     10  O6B BDP d1176       9.268 -16.449   2.398  0.00  0.00    -0.646 OA
ATOM     11  O2  BDP d1176      12.043 -14.243  -2.745  0.00  0.00    -0.388 OA
ATOM     12  C5  BDP d1176      10.135 -15.181   0.594  0.00  0.00     0.152 C 
ATOM     13  H   BDP d1176      10.352 -15.828  -1.907  0.00  0.00     0.133 H 
ATOM     14  H   BDP d1176      13.202 -12.496  -1.125  0.00  0.00     0.210 HD
ATOM     15  H   BDP d1176      12.660 -14.705  -0.528  0.00  0.00     0.091 H 
ATOM     16  H   BDP d1176      10.723 -13.212   1.154  0.00  0.00     0.092 H 
ATOM     17  H   BDP d1176      10.728 -12.904  -1.826  0.00  0.00     0.094 H 
ATOM     18  H   BDP d1176      12.391 -15.132  -2.571  0.00  0.00     0.210 HD
ATOM     19  H   BDP d1176      10.658 -16.092   0.394  0.00  0.00     0.104 H 
ATOM     20  C1  BDP d1178      13.514 -13.856   7.425  0.00  0.00     0.160 C 
ATOM     21  C6  BDP d1178      12.812 -11.209   9.954  0.00  0.00     0.206 C 
ATOM     22  O6B BDP d1178      11.801 -10.920  10.637  0.00  0.00    -0.646 OA
ATOM     23  O6A BDP d1178      13.807 -10.456   9.808  0.00  0.00    -0.646 OA
ATOM     24  O3  BDP d1178      14.388 -15.774  10.500  0.00  0.00    -0.390 OA
ATOM     25  O2  BDP d1178      14.489 -16.042   7.711  0.00  0.00    -0.388 OA
ATOM     26  C5  BDP d1178      12.806 -12.588   9.291  0.00  0.00     0.152 C 
ATOM     27  C3  BDP d1178      13.634 -14.954   9.636  0.00  0.00     0.092 C 
ATOM     28  C2  BDP d1178      14.338 -14.781   8.314  0.00  0.00     0.110 C 
ATOM     29  O4  BDP d1178      12.462 -13.800  11.287  0.00  0.00    -0.348 OA
ATOM     30  O5  BDP d1178      13.456 -12.580   8.025  0.00  0.00    -0.340 OA
ATOM     31  C4  BDP d1178      13.401 -13.594  10.271  0.00  0.00     0.103 C 
ATOM     32  H   BDP d1178      12.501 -14.181   7.312  0.00  0.00     0.133 H 
ATOM     33  H   BDP d1178      14.530 -16.638  10.084  0.00  0.00     0.210 HD
ATOM     34  H   BDP d1178      14.941 -15.941   6.859  0.00  0.00     0.210 HD
ATOM     35  H   BDP d1178      11.800 -12.879   9.072  0.00  0.00     0.104 H 
ATOM     36  H   BDP d1178      12.692 -15.430   9.465  0.00  0.00     0.091 H 
ATOM     37  H   BDP d1178      15.305 -14.347   8.458  0.00  0.00     0.094 H 
ATOM     38  H   BDP d1178      14.335 -13.199  10.614  0.00  0.00     0.092 H 
ATOM     39  C6  NAG d1177      14.114 -10.351   2.678  0.00  0.00     0.043 C 
ATOM     40  O4  NAG d1177      14.306 -11.130   5.555  0.00  0.00    -0.390 OA
ATOM     41  C2  NAG d1177      12.976 -14.281   4.065  0.00  0.00     0.087 C 
ATOM     42  C3  NAG d1177      13.338 -13.252   5.127  0.00  0.00     0.093 C 
ATOM     43  C7  NAG d1177      12.264 -16.573   4.624  0.00  0.00     0.214 C 
ATOM     44  N2  NAG d1177      12.075 -15.257   4.662  0.00  0.00    -0.349 N 
ATOM     45  C8  NAG d1177      11.055 -17.394   4.957  0.00  0.00    -0.003 C 
ATOM     46  O7  NAG d1177      13.340 -17.119   4.358  0.00  0.00    -0.274 OA
ATOM     47  O6  NAG d1177      14.698 -10.776   1.460  0.00  0.00    -0.398 OA
ATOM     48  C4  NAG d1177      14.121 -12.091   4.534  0.00  0.00     0.089 C 
ATOM     49  O5  NAG d1177      13.129 -12.520   2.384  0.00  0.00    -0.349 OA
ATOM     50  C5  NAG d1177      13.366 -11.508   3.340  0.00  0.00     0.089 C 
ATOM     51  C1  NAG d1177      12.330 -13.589   2.863  0.00  0.00     0.154 C 
ATOM     52  O3  NAG d1177      14.130 -13.855   6.126  0.00  0.00    -0.348 OA
ATOM     53  H   NAG d1177      14.883 -10.005   3.336  0.00  0.00     0.078 H 
ATOM     54  H   NAG d1177      13.422  -9.560   2.474  0.00  0.00     0.078 H 
ATOM     55  H   NAG d1177      14.787 -11.533   6.295  0.00  0.00     0.210 HD
ATOM     56  H   NAG d1177      13.853 -14.782   3.713  0.00  0.00     0.084 H 
ATOM     57  H   NAG d1177      12.424 -12.882   5.541  0.00  0.00     0.091 H 
ATOM     58  H   NAG d1177      11.273 -14.920   5.124  0.00  0.00     0.163 HD
ATOM     59  H   NAG d1177      10.227 -16.746   5.156  0.00  0.00     0.040 H 
ATOM     60  H   NAG d1177      11.256 -17.991   5.822  0.00  0.00     0.040 H 
ATOM     61  H   NAG d1177      10.817 -18.031   4.131  0.00  0.00     0.040 H 
ATOM     62  H   NAG d1177      15.327 -11.493   1.635  0.00  0.00     0.209 HD
ATOM     63  H   NAG d1177      15.076 -12.415   4.174  0.00  0.00     0.091 H 
ATOM     64  H   NAG d1177      12.442 -11.120   3.713  0.00  0.00     0.090 H 
ATOM     65  H   NAG d1177      11.401 -13.149   3.159  0.00  0.00     0.132 H 
ATOM     66  C6  NAG d1175       4.598 -16.620  -2.956  0.00  0.00     0.043 C 
ATOM     67  O3  NAG d1175       9.017 -14.491  -2.740  0.00  0.00    -0.348 OA
ATOM     68  C2  NAG d1175       8.253 -15.378  -4.830  0.00  0.00     0.087 C 
ATOM     69  O6  NAG d1175       3.812 -17.563  -3.650  0.00  0.00    -0.398 OA
ATOM     70  O1  NAG d1175       7.147 -16.033  -6.885  0.00  0.00    -0.369 OA
ATOM     71  C7  NAG d1175      10.026 -14.664  -6.355  0.00  0.00     0.214 C 
ATOM     72  N2  NAG d1175       9.584 -15.504  -5.417  0.00  0.00    -0.349 N 
ATOM     73  C5  NAG d1175       6.005 -16.655  -3.541  0.00  0.00     0.089 C 
ATOM     74  O5  NAG d1175       5.988 -16.179  -4.878  0.00  0.00    -0.349 OA
ATOM     75  C4  NAG d1175       6.959 -15.845  -2.660  0.00  0.00     0.089 C 
ATOM     76  O4  NAG d1175       7.087 -16.539  -1.432  0.00  0.00    -0.390 OA
ATOM     77  O7  NAG d1175      10.054 -13.437  -6.200  0.00  0.00    -0.274 OA
ATOM     78  C1  NAG d1175       7.252 -16.324  -5.505  0.00  0.00     0.151 C 
ATOM     79  C8  NAG d1175      10.511 -15.300  -7.629  0.00  0.00    -0.003 C 
ATOM     80  C3  NAG d1175       8.335 -15.607  -3.311  0.00  0.00     0.093 C 
ATOM     81  H   NAG d1175       4.181 -15.642  -3.075  0.00  0.00     0.078 H 
ATOM     82  H   NAG d1175       4.625 -16.856  -1.913  0.00  0.00     0.078 H 
ATOM     83  H   NAG d1175       7.890 -14.386  -4.999  0.00  0.00     0.084 H 
ATOM     84  H   NAG d1175       3.797 -17.338  -4.594  0.00  0.00     0.209 HD
ATOM     85  H   NAG d1175       8.016 -16.135  -7.304  0.00  0.00     0.212 HD
ATOM     86  H   NAG d1175      10.173 -16.231  -5.111  0.00  0.00     0.163 HD
ATOM     87  H   NAG d1175       6.360 -17.665  -3.560  0.00  0.00     0.090 H 
ATOM     88  H   NAG d1175       6.553 -14.866  -2.513  0.00  0.00     0.091 H 
ATOM     89  H   NAG d1175       7.457 -17.421  -1.596  0.00  0.00     0.210 HD
ATOM     90  H   NAG d1175       7.593 -17.334  -5.403  0.00  0.00     0.132 H 
ATOM     91  H   NAG d1175      10.403 -16.362  -7.562  0.00  0.00     0.040 H 
ATOM     92  H   NAG d1175      11.542 -15.056  -7.779  0.00  0.00     0.040 H 
ATOM     93  H   NAG d1175       9.934 -14.934  -8.452  0.00  0.00     0.040 H 
ATOM     94  H   NAG d1175       8.879 -16.509  -3.119  0.00  0.00     0.091 H 
ATOM     95  C4  NAG d1181       5.407  -9.339  22.185  0.00  0.00     0.089 C 
ATOM     96  C3  NAG d1181       6.748  -8.638  22.423  0.00  0.00     0.086 C 
ATOM     97  C6  NAG d1181       4.178 -11.137  20.897  0.00  0.00     0.043 C 
ATOM     98  C5  NAG d1181       5.547 -10.594  21.311  0.00  0.00     0.089 C 
ATOM     99  C7  NAG d1181       9.278  -6.826  20.966  0.00  0.00     0.214 C 
ATOM    100  C8  NAG d1181       9.351  -6.577  19.484  0.00  0.00    -0.003 C 
ATOM    101  N2  NAG d1181       8.888  -8.039  21.357  0.00  0.00    -0.349 N 
ATOM    102  O3  NAG d1181       6.541  -7.350  22.984  0.00  0.00    -0.391 OA
ATOM    103  C1  NAG d1181       7.593  -9.854  20.374  0.00  0.00     0.154 C 
ATOM    104  O6  NAG d1181       4.293 -12.487  20.495  0.00  0.00    -0.398 OA
ATOM    105  O5  NAG d1181       6.287 -10.321  20.133  0.00  0.00    -0.349 OA
ATOM    106  O7  NAG d1181       9.566  -5.938  21.773  0.00  0.00    -0.274 OA
ATOM    107  O4  NAG d1181       4.841  -9.690  23.427  0.00  0.00    -0.390 OA
ATOM    108  C2  NAG d1181       7.536  -8.520  21.115  0.00  0.00     0.087 C 
ATOM    109  H   NAG d1181       4.773  -8.656  21.660  0.00  0.00     0.091 H 
ATOM    110  H   NAG d1181       7.316  -9.227  23.111  0.00  0.00     0.090 H 
ATOM    111  H   NAG d1181       3.798 -10.557  20.083  0.00  0.00     0.078 H 
ATOM    112  H   NAG d1181       3.510 -11.076  21.730  0.00  0.00     0.078 H 
ATOM    113  H   NAG d1181       6.063 -11.321  21.903  0.00  0.00     0.090 H 
ATOM    114  H   NAG d1181       9.065  -7.464  18.959  0.00  0.00     0.040 H 
ATOM    115  H   NAG d1181      10.352  -6.311  19.216  0.00  0.00     0.040 H 
ATOM    116  H   NAG d1181       8.687  -5.779  19.223  0.00  0.00     0.040 H 
ATOM    117  H   NAG d1181       9.530  -8.623  21.821  0.00  0.00     0.163 HD
ATOM    118  H   NAG d1181       6.025  -6.807  22.366  0.00  0.00     0.210 HD
ATOM    119  H   NAG d1181       8.095 -10.598  20.957  0.00  0.00     0.132 H 
ATOM    120  H   NAG d1181       4.898 -12.548  19.740  0.00  0.00     0.209 HD
ATOM    121  H   NAG d1181       5.429 -10.309  23.887  0.00  0.00     0.210 HD
ATOM    122  H   NAG d1181       7.019  -7.811  20.503  0.00  0.00     0.084 H 
ATOM    123  C7  NAG d1179       9.464 -12.714  12.169  0.00  0.00     0.214 C 
ATOM    124  C1  NAG d1179      12.832 -13.271  12.571  0.00  0.00     0.154 C 
ATOM    125  C2  NAG d1179      11.524 -13.191  13.347  0.00  0.00     0.087 C 
ATOM    126  O5  NAG d1179      13.749 -14.096  13.257  0.00  0.00    -0.349 OA
ATOM    127  O7  NAG d1179       8.837 -13.668  12.625  0.00  0.00    -0.274 OA
ATOM    128  O4  NAG d1179      13.075 -13.274  16.752  0.00  0.00    -0.390 OA
ATOM    129  N2  NAG d1179      10.600 -12.270  12.703  0.00  0.00    -0.349 N 
ATOM    130  C8  NAG d1179       8.946 -12.000  10.958  0.00  0.00    -0.003 C 
ATOM    131  O3  NAG d1179      10.480 -13.130  15.492  0.00  0.00    -0.348 OA
ATOM    132  C4  NAG d1179      12.806 -13.708  15.435  0.00  0.00     0.089 C 
ATOM    133  C5  NAG d1179      14.059 -13.634  14.560  0.00  0.00     0.089 C 
ATOM    134  O6  NAG d1179      14.832 -15.818  15.276  0.00  0.00    -0.398 OA
ATOM    135  C3  NAG d1179      11.699 -12.854  14.826  0.00  0.00     0.093 C 
ATOM    136  C6  NAG d1179      15.214 -14.463  15.123  0.00  0.00     0.043 C 
ATOM    137  H   NAG d1179      13.322 -12.325  12.464  0.00  0.00     0.132 H 
ATOM    138  H   NAG d1179      11.108 -14.177  13.327  0.00  0.00     0.084 H 
ATOM    139  H   NAG d1179      12.265 -13.331  17.283  0.00  0.00     0.210 HD
ATOM    140  H   NAG d1179      10.817 -11.311  12.662  0.00  0.00     0.163 HD
ATOM    141  H   NAG d1179       9.611 -11.203  10.702  0.00  0.00     0.040 H 
ATOM    142  H   NAG d1179       7.975 -11.601  11.168  0.00  0.00     0.040 H 
ATOM    143  H   NAG d1179       8.880 -12.687  10.140  0.00  0.00     0.040 H 
ATOM    144  H   NAG d1179      12.489 -14.729  15.478  0.00  0.00     0.091 H 
ATOM    145  H   NAG d1179      14.374 -12.611  14.538  0.00  0.00     0.090 H 
ATOM    146  H   NAG d1179      15.577 -16.325  15.633  0.00  0.00     0.209 HD
ATOM    147  H   NAG d1179      11.962 -11.823  14.930  0.00  0.00     0.091 H 
ATOM    148  H   NAG d1179      15.497 -14.068  16.077  0.00  0.00     0.078 H 
ATOM    149  H   NAG d1179      16.037 -14.412  14.441  0.00  0.00     0.078 H 
ATOM    150  C6  BDP d1180      11.147 -10.332  19.243  0.00  0.00     0.206 C 
ATOM    151  O3  BDP d1180       6.628 -11.758  17.850  0.00  0.00    -0.390 OA
ATOM    152  C1  BDP d1180       9.966 -11.986  16.189  0.00  0.00     0.160 C 
ATOM    153  O2  BDP d1180       7.863 -11.882  15.090  0.00  0.00    -0.388 OA
ATOM    154  C3  BDP d1180       7.824 -11.180  17.371  0.00  0.00     0.092 C 
ATOM    155  O4  BDP d1180       8.313  -9.645  19.148  0.00  0.00    -0.348 OA
ATOM    156  O5  BDP d1180      10.591 -11.854  17.446  0.00  0.00    -0.340 OA
ATOM    157  C5  BDP d1180      10.184 -10.672  18.104  0.00  0.00     0.152 C 
ATOM    158  O6B BDP d1180      11.412 -11.226  20.084  0.00  0.00    -0.646 OA
ATOM    159  O6A BDP d1180      11.633  -9.176  19.264  0.00  0.00    -0.646 OA
ATOM    160  C2  BDP d1180       8.453 -12.136  16.348  0.00  0.00     0.110 C 
ATOM    161  C4  BDP d1180       8.737 -10.853  18.557  0.00  0.00     0.103 C 
ATOM    162  H   BDP d1180       6.047 -11.967  17.101  0.00  0.00     0.210 HD
ATOM    163  H   BDP d1180      10.173 -11.100  15.626  0.00  0.00     0.133 H 
ATOM    164  H   BDP d1180       8.247 -12.477  14.427  0.00  0.00     0.210 HD
ATOM    165  H   BDP d1180       7.645 -10.254  16.865  0.00  0.00     0.091 H 
ATOM    166  H   BDP d1180      10.218  -9.831  17.444  0.00  0.00     0.104 H 
ATOM    167  H   BDP d1180       8.274 -13.127  16.709  0.00  0.00     0.094 H 
ATOM    168  H   BDP d1180       8.683 -11.666  19.251  0.00  0.00     0.092 H 
ENDROOT
TORSDOF 43
ENDMDL
MODEL 29
REMARK VINA RESULT:      -6.7      3.723     19.123
REMARK  0 active torsions:
REMARK  status: ('A' for Active; 'I' for Inactive)
REMARK       I    between atoms: C1_1  and  O3_15 
REMARK       I    between atoms: C1_2  and  O3_93 
REMARK       I    between atoms: C6_3  and  C5_89 
REMARK       I    between atoms: C6_3  and  O6_76 
REMARK       I    between atoms: O3_4  and  C3_22 
REMARK       I    between atoms: C6_5  and  C5_48 
REMARK       I    between atoms: C6_5  and  O6_31 
REMARK       I    between atoms: C4_6  and  O4_74 
REMARK       I    between atoms: C7_7  and  C8_62 
REMARK       I    between atoms: C7_7  and  N2_60 
REMARK       I    between atoms: C6_8  and  C5_52 
REMARK       I    between atoms: C3_9  and  O3_38 
REMARK       I    between atoms: C1_10  and  O4_75 
REMARK       I    between atoms: C6_12  and  C5_51 
REMARK       I    between atoms: O3_13  and  C3_42 
REMARK       I    between atoms: O4_14  and  C4_84 
REMARK       I    between atoms: O3_15  and  C3_86 
REMARK       I    between atoms: C6_16  and  C5_23 
REMARK       I    between atoms: C6_16  and  O6_58 
REMARK       I    between atoms: C1_17  and  O3_63 
REMARK       I    between atoms: C2_18  and  N2_60 
REMARK       I    between atoms: C2_19  and  N2_53 
REMARK       I    between atoms: O2_20  and  C2_66 
REMARK       I    between atoms: C3_25  and  O3_93 
REMARK       I    between atoms: C7_26  and  C8_32 
REMARK       I    between atoms: C7_26  and  N2_37 
REMARK       I    between atoms: C2_28  and  N2_44 
REMARK       I    between atoms: C7_29  and  C8_54 
REMARK       I    between atoms: C7_29  and  N2_53 
REMARK       I    between atoms: O1_33  and  C1_80 
REMARK       I    between atoms: O4_34  and  C4_40 
REMARK       I    between atoms: O4_34  and  C1_92 
REMARK       I    between atoms: C7_36  and  C8_81 
REMARK       I    between atoms: C7_36  and  N2_44 
REMARK       I    between atoms: N2_37  and  C2_83 
REMARK       I    between atoms: O3_39  and  C3_61 
REMARK       I    between atoms: C1_41  and  O4_46 
REMARK       I    between atoms: O2_43  and  C2_73 
REMARK       I    between atoms: C6_45  and  C5_87 
REMARK       I    between atoms: O4_46  and  C4_67 
REMARK       I    between atoms: C4_50  and  O4_65 
REMARK       I    between atoms: C2_55  and  O2_82 
REMARK       I    between atoms: O4_57  and  C4_71 
REMARK       I    between atoms: O3_63  and  C3_85 
REMARK       I    between atoms: O4_75  and  C4_91 
REMARK       I    between atoms: C5_77  and  C6_90 
REMARK       I    between atoms: O6_79  and  C6_90 
ROOT
ATOM      1  C1  BDP d1176      14.442 -15.583  -3.950  0.00  0.00     0.160 C 
ATOM      2  O3  BDP d1176      15.269 -12.107  -2.765  0.00  0.00    -0.390 OA
ATOM      3  O5  BDP d1176      13.674 -15.777  -2.796  0.00  0.00    -0.340 OA
ATOM      4  O6A BDP d1176      12.340 -15.633  -0.442  0.00  0.00    -0.646 OA
ATOM      5  C3  BDP d1176      15.367 -13.515  -2.711  0.00  0.00     0.092 C 
ATOM      6  O4  BDP d1176      15.441 -13.789  -0.341  0.00  0.00    -0.348 OA
ATOM      7  C4  BDP d1176      14.633 -14.021  -1.479  0.00  0.00     0.103 C 
ATOM      8  C6  BDP d1176      13.516 -16.044  -0.481  0.00  0.00     0.206 C 
ATOM      9  C2  BDP d1176      14.896 -14.120  -4.032  0.00  0.00     0.110 C 
ATOM     10  O6B BDP d1176      14.040 -16.846   0.320  0.00  0.00    -0.646 OA
ATOM     11  O2  BDP d1176      15.995 -14.040  -4.907  0.00  0.00    -0.388 OA
ATOM     12  C5  BDP d1176      14.371 -15.515  -1.613  0.00  0.00     0.152 C 
ATOM     13  H   BDP d1176      15.317 -16.197  -3.928  0.00  0.00     0.133 H 
ATOM     14  H   BDP d1176      15.736 -11.779  -3.549  0.00  0.00     0.210 HD
ATOM     15  H   BDP d1176      16.384 -13.832  -2.602  0.00  0.00     0.091 H 
ATOM     16  H   BDP d1176      13.699 -13.508  -1.379  0.00  0.00     0.092 H 
ATOM     17  H   BDP d1176      14.033 -13.576  -4.355  0.00  0.00     0.094 H 
ATOM     18  H   BDP d1176      16.733 -14.556  -4.546  0.00  0.00     0.210 HD
ATOM     19  H   BDP d1176      15.328 -15.992  -1.601  0.00  0.00     0.104 H 
ATOM     20  C1  BDP d1178      15.302 -11.791   5.103  0.00  0.00     0.160 C 
ATOM     21  C6  BDP d1178      12.871  -9.734   7.042  0.00  0.00     0.206 C 
ATOM     22  O6B BDP d1178      11.766  -9.990   7.579  0.00  0.00    -0.646 OA
ATOM     23  O6A BDP d1178      13.309  -8.575   6.839  0.00  0.00    -0.646 OA
ATOM     24  O3  BDP d1178      16.546 -12.542   8.537  0.00  0.00    -0.390 OA
ATOM     25  O2  BDP d1178      17.239 -13.009   5.861  0.00  0.00    -0.388 OA
ATOM     26  C5  BDP d1178      13.721 -10.943   6.644  0.00  0.00     0.152 C 
ATOM     27  C3  BDP d1178      15.625 -12.385   7.481  0.00  0.00     0.092 C 
ATOM     28  C2  BDP d1178      16.333 -11.993   6.208  0.00  0.00     0.110 C 
ATOM     29  O4  BDP d1178      13.760 -11.914   8.795  0.00  0.00    -0.348 OA
ATOM     30  O5  BDP d1178      14.464 -10.711   5.453  0.00  0.00    -0.340 OA
ATOM     31  C4  BDP d1178      14.592 -11.329   7.835  0.00  0.00     0.103 C 
ATOM     32  H   BDP d1178      14.661 -12.638   4.973  0.00  0.00     0.133 H 
ATOM     33  H   BDP d1178      17.199 -13.218   8.299  0.00  0.00     0.210 HD
ATOM     34  H   BDP d1178      17.700 -12.766   5.043  0.00  0.00     0.210 HD
ATOM     35  H   BDP d1178      13.086 -11.769   6.404  0.00  0.00     0.104 H 
ATOM     36  H   BDP d1178      15.133 -13.323   7.326  0.00  0.00     0.091 H 
ATOM     37  H   BDP d1178      16.872 -11.079   6.346  0.00  0.00     0.094 H 
ATOM     38  H   BDP d1178      15.091 -10.445   8.172  0.00  0.00     0.092 H 
ATOM     39  C6  NAG d1177      14.696  -9.093  -0.144  0.00  0.00     0.043 C 
ATOM     40  O4  NAG d1177      14.795  -9.312   2.833  0.00  0.00    -0.390 OA
ATOM     41  C2  NAG d1177      15.648 -12.807   1.846  0.00  0.00     0.087 C 
ATOM     42  C3  NAG d1177      15.214 -11.644   2.727  0.00  0.00     0.093 C 
ATOM     43  C7  NAG d1177      16.206 -15.027   2.758  0.00  0.00     0.214 C 
ATOM     44  N2  NAG d1177      15.333 -14.048   2.540  0.00  0.00    -0.349 N 
ATOM     45  C8  NAG d1177      15.597 -16.342   3.141  0.00  0.00    -0.003 C 
ATOM     46  O7  NAG d1177      17.433 -14.903   2.682  0.00  0.00    -0.274 OA
ATOM     47  O6  NAG d1177      15.610  -9.247  -1.214  0.00  0.00    -0.398 OA
ATOM     48  C4  NAG d1177      15.332 -10.316   1.994  0.00  0.00     0.089 C 
ATOM     49  O5  NAG d1177      15.104 -11.458  -0.112  0.00  0.00    -0.349 OA
ATOM     50  C5  NAG d1177      14.593 -10.390   0.658  0.00  0.00     0.089 C 
ATOM     51  C1  NAG d1177      14.943 -12.732   0.491  0.00  0.00     0.154 C 
ATOM     52  O3  NAG d1177      16.026 -11.587   3.878  0.00  0.00    -0.348 OA
ATOM     53  H   NAG d1177      15.033  -8.307   0.498  0.00  0.00     0.078 H 
ATOM     54  H   NAG d1177      13.731  -8.854  -0.543  0.00  0.00     0.078 H 
ATOM     55  H   NAG d1177      15.286  -9.293   3.670  0.00  0.00     0.210 HD
ATOM     56  H   NAG d1177      16.701 -12.765   1.662  0.00  0.00     0.084 H 
ATOM     57  H   NAG d1177      14.191 -11.807   2.993  0.00  0.00     0.091 H 
ATOM     58  H   NAG d1177      14.413 -14.170   2.867  0.00  0.00     0.163 HD
ATOM     59  H   NAG d1177      14.531 -16.252   3.152  0.00  0.00     0.040 H 
ATOM     60  H   NAG d1177      15.941 -16.626   4.113  0.00  0.00     0.040 H 
ATOM     61  H   NAG d1177      15.883 -17.089   2.429  0.00  0.00     0.040 H 
ATOM     62  H   NAG d1177      16.487  -9.465  -0.861  0.00  0.00     0.209 HD
ATOM     63  H   NAG d1177      16.354 -10.087   1.776  0.00  0.00     0.091 H 
ATOM     64  H   NAG d1177      13.559 -10.549   0.880  0.00  0.00     0.090 H 
ATOM     65  H   NAG d1177      13.889 -12.858   0.628  0.00  0.00     0.132 H 
ATOM     66  C6  NAG d1175      11.175 -20.184  -5.262  0.00  0.00     0.043 C 
ATOM     67  O3  NAG d1175      13.633 -15.937  -5.094  0.00  0.00    -0.348 OA
ATOM     68  C2  NAG d1175      13.831 -17.321  -7.039  0.00  0.00     0.087 C 
ATOM     69  O6  NAG d1175      11.151 -21.474  -5.830  0.00  0.00    -0.398 OA
ATOM     70  O1  NAG d1175      13.616 -18.702  -9.020  0.00  0.00    -0.369 OA
ATOM     71  C7  NAG d1175      15.162 -15.908  -8.525  0.00  0.00     0.214 C 
ATOM     72  N2  NAG d1175      15.094 -16.743  -7.487  0.00  0.00    -0.349 N 
ATOM     73  C5  NAG d1175      12.452 -19.489  -5.718  0.00  0.00     0.089 C 
ATOM     74  O5  NAG d1175      12.403 -19.252  -7.117  0.00  0.00    -0.349 OA
ATOM     75  C4  NAG d1175      12.654 -18.193  -4.928  0.00  0.00     0.089 C 
ATOM     76  O4  NAG d1175      12.929 -18.558  -3.588  0.00  0.00    -0.390 OA
ATOM     77  O7  NAG d1175      14.496 -14.868  -8.596  0.00  0.00    -0.274 OA
ATOM     78  C1  NAG d1175      13.629 -18.732  -7.606  0.00  0.00     0.151 C 
ATOM     79  C8  NAG d1175      16.118 -16.297  -9.619  0.00  0.00    -0.003 C 
ATOM     80  C3  NAG d1175      13.769 -17.298  -5.502  0.00  0.00     0.093 C 
ATOM     81  H   NAG d1175      10.322 -19.628  -5.589  0.00  0.00     0.078 H 
ATOM     82  H   NAG d1175      11.150 -20.250  -4.194  0.00  0.00     0.078 H 
ATOM     83  H   NAG d1175      13.023 -16.728  -7.415  0.00  0.00     0.084 H 
ATOM     84  H   NAG d1175      11.175 -21.401  -6.797  0.00  0.00     0.209 HD
ATOM     85  H   NAG d1175      14.457 -18.345  -9.343  0.00  0.00     0.212 HD
ATOM     86  H   NAG d1175      15.922 -16.977  -7.008  0.00  0.00     0.163 HD
ATOM     87  H   NAG d1175      13.293 -20.121  -5.524  0.00  0.00     0.090 H 
ATOM     88  H   NAG d1175      11.765 -17.601  -4.995  0.00  0.00     0.091 H 
ATOM     89  H   NAG d1175      13.738 -19.092  -3.558  0.00  0.00     0.210 HD
ATOM     90  H   NAG d1175      14.438 -19.360  -7.294  0.00  0.00     0.132 H 
ATOM     91  H   NAG d1175      16.592 -17.223  -9.368  0.00  0.00     0.040 H 
ATOM     92  H   NAG d1175      16.861 -15.536  -9.730  0.00  0.00     0.040 H 
ATOM     93  H   NAG d1175      15.582 -16.409 -10.539  0.00  0.00     0.040 H 
ATOM     94  H   NAG d1175      14.672 -17.713  -5.106  0.00  0.00     0.091 H 
ATOM     95  C4  NAG d1181       3.711 -11.015  18.105  0.00  0.00     0.089 C 
ATOM     96  C3  NAG d1181       4.399  -9.662  18.314  0.00  0.00     0.086 C 
ATOM     97  C6  NAG d1181       3.884 -13.321  17.076  0.00  0.00     0.043 C 
ATOM     98  C5  NAG d1181       4.651 -12.062  17.489  0.00  0.00     0.089 C 
ATOM     99  C7  NAG d1181       5.750  -6.916  16.753  0.00  0.00     0.214 C 
ATOM    100  C8  NAG d1181       5.923  -6.832  15.260  0.00  0.00    -0.003 C 
ATOM    101  N2  NAG d1181       6.018  -8.088  17.328  0.00  0.00    -0.349 N 
ATOM    102  O3  NAG d1181       3.438  -8.660  18.612  0.00  0.00    -0.391 OA
ATOM    103  C1  NAG d1181       6.095 -10.412  16.596  0.00  0.00     0.154 C 
ATOM    104  O6  NAG d1181       4.775 -14.408  16.938  0.00  0.00    -0.398 OA
ATOM    105  O5  NAG d1181       5.310 -11.552  16.343  0.00  0.00    -0.349 OA
ATOM    106  O7  NAG d1181       5.372  -5.938  17.403  0.00  0.00    -0.274 OA
ATOM    107  O4  NAG d1181       3.226 -11.486  19.342  0.00  0.00    -0.390 OA
ATOM    108  C2  NAG d1181       5.203  -9.267  17.073  0.00  0.00     0.087 C 
ATOM    109  H   NAG d1181       2.907 -10.866  17.416  0.00  0.00     0.091 H 
ATOM    110  H   NAG d1181       5.071  -9.753  19.141  0.00  0.00     0.090 H 
ATOM    111  H   NAG d1181       3.393 -13.145  16.142  0.00  0.00     0.078 H 
ATOM    112  H   NAG d1181       3.161 -13.554  17.829  0.00  0.00     0.078 H 
ATOM    113  H   NAG d1181       5.371 -12.307  18.243  0.00  0.00     0.090 H 
ATOM    114  H   NAG d1181       6.254  -7.778  14.887  0.00  0.00     0.040 H 
ATOM    115  H   NAG d1181       6.649  -6.082  15.028  0.00  0.00     0.040 H 
ATOM    116  H   NAG d1181       4.988  -6.577  14.806  0.00  0.00     0.040 H 
ATOM    117  H   NAG d1181       6.786  -8.158  17.940  0.00  0.00     0.163 HD
ATOM    118  H   NAG d1181       2.823  -8.570  17.867  0.00  0.00     0.210 HD
ATOM    119  H   NAG d1181       6.813 -10.678  17.342  0.00  0.00     0.132 H 
ATOM    120  H   NAG d1181       5.433 -14.202  16.257  0.00  0.00     0.209 HD
ATOM    121  H   NAG d1181       3.969 -11.615  19.952  0.00  0.00     0.210 HD
ATOM    122  H   NAG d1181       4.496  -9.041  16.303  0.00  0.00     0.084 H 
ATOM    123  C7  NAG d1179      10.552 -12.605   9.226  0.00  0.00     0.214 C 
ATOM    124  C1  NAG d1179      13.564 -11.132   9.985  0.00  0.00     0.154 C 
ATOM    125  C2  NAG d1179      12.313 -11.716  10.629  0.00  0.00     0.087 C 
ATOM    126  O5  NAG d1179      14.652 -11.222  10.881  0.00  0.00    -0.349 OA
ATOM    127  O7  NAG d1179      10.475 -13.690   9.798  0.00  0.00    -0.274 OA
ATOM    128  O4  NAG d1179      13.068 -10.544  14.102  0.00  0.00    -0.390 OA
ATOM    129  N2  NAG d1179      11.161 -11.546   9.757  0.00  0.00    -0.349 N 
ATOM    130  C8  NAG d1179       9.942 -12.441   7.868  0.00  0.00    -0.003 C 
ATOM    131  O3  NAG d1179      11.061 -12.016  12.638  0.00  0.00    -0.348 OA
ATOM    132  C4  NAG d1179      13.300 -11.195  12.870  0.00  0.00     0.089 C 
ATOM    133  C5  NAG d1179      14.440 -10.527  12.097  0.00  0.00     0.089 C 
ATOM    134  O6  NAG d1179      16.138 -11.810  13.259  0.00  0.00    -0.398 OA
ATOM    135  C3  NAG d1179      12.028 -11.180  12.030  0.00  0.00     0.093 C 
ATOM    136  C6  NAG d1179      15.746 -10.500  12.891  0.00  0.00     0.043 C 
ATOM    137  H   NAG d1179      13.475 -10.093   9.745  0.00  0.00     0.132 H 
ATOM    138  H   NAG d1179      12.506 -12.760  10.757  0.00  0.00     0.084 H 
ATOM    139  H   NAG d1179      12.342 -10.987  14.569  0.00  0.00     0.210 HD
ATOM    140  H   NAG d1179      10.828 -10.641   9.557  0.00  0.00     0.163 HD
ATOM    141  H   NAG d1179      10.103 -11.441   7.522  0.00  0.00     0.040 H 
ATOM    142  H   NAG d1179       8.890 -12.634   7.924  0.00  0.00     0.040 H 
ATOM    143  H   NAG d1179      10.395 -13.130   7.187  0.00  0.00     0.040 H 
ATOM    144  H   NAG d1179      13.584 -12.206  13.074  0.00  0.00     0.091 H 
ATOM    145  H   NAG d1179      14.152  -9.513  11.913  0.00  0.00     0.090 H 
ATOM    146  H   NAG d1179      16.967 -11.771  13.761  0.00  0.00     0.209 HD
ATOM    147  H   NAG d1179      11.670 -10.174  11.964  0.00  0.00     0.091 H 
ATOM    148  H   NAG d1179      15.607  -9.913  13.776  0.00  0.00     0.078 H 
ATOM    149  H   NAG d1179      16.512 -10.072  12.278  0.00  0.00     0.078 H 
ATOM    150  C6  BDP d1180       9.473  -8.937  15.853  0.00  0.00     0.206 C 
ATOM    151  O3  BDP d1180       6.749 -12.790  14.396  0.00  0.00    -0.390 OA
ATOM    152  C1  BDP d1180       9.902 -11.289  13.071  0.00  0.00     0.160 C 
ATOM    153  O2  BDP d1180       8.295 -12.501  11.811  0.00  0.00    -0.388 OA
ATOM    154  C3  BDP d1180       7.503 -11.697  13.914  0.00  0.00     0.092 C 
ATOM    155  O4  BDP d1180       6.780  -9.970  15.412  0.00  0.00    -0.348 OA
ATOM    156  O5  BDP d1180      10.137 -10.693  14.328  0.00  0.00    -0.340 OA
ATOM    157  C5  BDP d1180       9.052  -9.879  14.724  0.00  0.00     0.152 C 
ATOM    158  O6B BDP d1180      10.034  -9.431  16.862  0.00  0.00    -0.646 OA
ATOM    159  O6A BDP d1180       9.245  -7.712  15.700  0.00  0.00    -0.646 OA
ATOM    160  C2  BDP d1180       8.709 -12.242  13.136  0.00  0.00     0.110 C 
ATOM    161  C4  BDP d1180       7.881 -10.789  15.087  0.00  0.00     0.103 C 
ATOM    162  H   BDP d1180       6.507 -13.369  13.655  0.00  0.00     0.210 HD
ATOM    163  H   BDP d1180       9.688 -10.507  12.373  0.00  0.00     0.133 H 
ATOM    164  H   BDP d1180       9.044 -12.847  11.300  0.00  0.00     0.210 HD
ATOM    165  H   BDP d1180       6.940 -11.092  13.235  0.00  0.00     0.091 H 
ATOM    166  H   BDP d1180       8.736  -9.241  13.925  0.00  0.00     0.104 H 
ATOM    167  H   BDP d1180       9.036 -13.117  13.658  0.00  0.00     0.094 H 
ATOM    168  H   BDP d1180       8.159 -11.411  15.912  0.00  0.00     0.092 H 
ENDROOT
TORSDOF 43
ENDMDL
MODEL 30
REMARK VINA RESULT:      -6.7      6.577      8.635
REMARK  0 active torsions:
REMARK  status: ('A' for Active; 'I' for Inactive)
REMARK       I    between atoms: C1_1  and  O3_15 
REMARK       I    between atoms: C1_2  and  O3_93 
REMARK       I    between atoms: C6_3  and  C5_89 
REMARK       I    between atoms: C6_3  and  O6_76 
REMARK       I    between atoms: O3_4  and  C3_22 
REMARK       I    between atoms: C6_5  and  C5_48 
REMARK       I    between atoms: C6_5  and  O6_31 
REMARK       I    between atoms: C4_6  and  O4_74 
REMARK       I    between atoms: C7_7  and  C8_62 
REMARK       I    between atoms: C7_7  and  N2_60 
REMARK       I    between atoms: C6_8  and  C5_52 
REMARK       I    between atoms: C3_9  and  O3_38 
REMARK       I    between atoms: C1_10  and  O4_75 
REMARK       I    between atoms: C6_12  and  C5_51 
REMARK       I    between atoms: O3_13  and  C3_42 
REMARK       I    between atoms: O4_14  and  C4_84 
REMARK       I    between atoms: O3_15  and  C3_86 
REMARK       I    between atoms: C6_16  and  C5_23 
REMARK       I    between atoms: C6_16  and  O6_58 
REMARK       I    between atoms: C1_17  and  O3_63 
REMARK       I    between atoms: C2_18  and  N2_60 
REMARK       I    between atoms: C2_19  and  N2_53 
REMARK       I    between atoms: O2_20  and  C2_66 
REMARK       I    between atoms: C3_25  and  O3_93 
REMARK       I    between atoms: C7_26  and  C8_32 
REMARK       I    between atoms: C7_26  and  N2_37 
REMARK       I    between atoms: C2_28  and  N2_44 
REMARK       I    between atoms: C7_29  and  C8_54 
REMARK       I    between atoms: C7_29  and  N2_53 
REMARK       I    between atoms: O1_33  and  C1_80 
REMARK       I    between atoms: O4_34  and  C4_40 
REMARK       I    between atoms: O4_34  and  C1_92 
REMARK       I    between atoms: C7_36  and  C8_81 
REMARK       I    between atoms: C7_36  and  N2_44 
REMARK       I    between atoms: N2_37  and  C2_83 
REMARK       I    between atoms: O3_39  and  C3_61 
REMARK       I    between atoms: C1_41  and  O4_46 
REMARK       I    between atoms: O2_43  and  C2_73 
REMARK       I    between atoms: C6_45  and  C5_87 
REMARK       I    between atoms: O4_46  and  C4_67 
REMARK       I    between atoms: C4_50  and  O4_65 
REMARK       I    between atoms: C2_55  and  O2_82 
REMARK       I    between atoms: O4_57  and  C4_71 
REMARK       I    between atoms: O3_63  and  C3_85 
REMARK       I    between atoms: O4_75  and  C4_91 
REMARK       I    between atoms: C5_77  and  C6_90 
REMARK       I    between atoms: O6_79  and  C6_90 
ROOT
ATOM      1  C1  BDP d1176      14.811 -16.830  17.487  0.00  0.00     0.160 C 
ATOM      2  O3  BDP d1176      14.057 -19.866  15.393  0.00  0.00    -0.390 OA
ATOM      3  O5  BDP d1176      14.293 -16.019  16.470  0.00  0.00    -0.340 OA
ATOM      4  O6A BDP d1176      13.201 -14.931  14.241  0.00  0.00    -0.646 OA
ATOM      5  C3  BDP d1176      14.784 -18.695  15.702  0.00  0.00     0.092 C 
ATOM      6  O4  BDP d1176      15.134 -17.883  13.484  0.00  0.00    -0.348 OA
ATOM      7  C4  BDP d1176      14.442 -17.613  14.688  0.00  0.00     0.103 C 
ATOM      8  C6  BDP d1176      14.430 -15.123  14.317  0.00  0.00     0.206 C 
ATOM      9  C2  BDP d1176      14.548 -18.306  17.159  0.00  0.00     0.110 C 
ATOM     10  O6B BDP d1176      15.312 -14.470  13.723  0.00  0.00    -0.646 OA
ATOM     11  O2  BDP d1176      15.430 -19.097  17.917  0.00  0.00    -0.388 OA
ATOM     12  C5  BDP d1176      14.875 -16.253  15.221  0.00  0.00     0.152 C 
ATOM     13  H   BDP d1176      15.868 -16.697  17.574  0.00  0.00     0.133 H 
ATOM     14  H   BDP d1176      14.272 -20.560  16.037  0.00  0.00     0.210 HD
ATOM     15  H   BDP d1176      15.839 -18.857  15.619  0.00  0.00     0.091 H 
ATOM     16  H   BDP d1176      13.387 -17.603  14.513  0.00  0.00     0.092 H 
ATOM     17  H   BDP d1176      13.513 -18.462  17.379  0.00  0.00     0.094 H 
ATOM     18  H   BDP d1176      16.345 -18.898  17.661  0.00  0.00     0.210 HD
ATOM     19  H   BDP d1176      15.943 -16.277  15.278  0.00  0.00     0.104 H 
ATOM     20  C1  BDP d1178      14.477 -18.124   7.725  0.00  0.00     0.160 C 
ATOM     21  C6  BDP d1178      11.517 -18.278   5.464  0.00  0.00     0.206 C 
ATOM     22  O6B BDP d1178      10.686 -17.422   5.078  0.00  0.00    -0.646 OA
ATOM     23  O6A BDP d1178      11.369 -19.519   5.333  0.00  0.00    -0.646 OA
ATOM     24  O3  BDP d1178      16.155 -17.162   4.538  0.00  0.00    -0.390 OA
ATOM     25  O2  BDP d1178      16.802 -17.766   7.199  0.00  0.00    -0.388 OA
ATOM     26  C5  BDP d1178      12.792 -17.735   6.112  0.00  0.00     0.152 C 
ATOM     27  C3  BDP d1178      15.194 -17.150   5.569  0.00  0.00     0.092 C 
ATOM     28  C2  BDP d1178      15.560 -18.134   6.652  0.00  0.00     0.110 C 
ATOM     29  O4  BDP d1178      13.411 -16.369   4.289  0.00  0.00    -0.348 OA
ATOM     30  O5  BDP d1178      13.268 -18.576   7.156  0.00  0.00    -0.340 OA
ATOM     31  C4  BDP d1178      13.822 -17.492   5.014  0.00  0.00     0.103 C 
ATOM     32  H   BDP d1178      14.280 -17.144   8.109  0.00  0.00     0.133 H 
ATOM     33  H   BDP d1178      17.026 -16.942   4.905  0.00  0.00     0.210 HD
ATOM     34  H   BDP d1178      17.046 -18.393   7.897  0.00  0.00     0.210 HD
ATOM     35  H   BDP d1178      12.584 -16.803   6.596  0.00  0.00     0.104 H 
ATOM     36  H   BDP d1178      15.169 -16.167   5.990  0.00  0.00     0.091 H 
ATOM     37  H   BDP d1178      15.637 -19.122   6.250  0.00  0.00     0.094 H 
ATOM     38  H   BDP d1178      13.890 -18.386   4.430  0.00  0.00     0.092 H 
ATOM     39  C6  NAG d1177      12.363 -21.504  12.117  0.00  0.00     0.043 C 
ATOM     40  O4  NAG d1177      12.752 -20.594   9.298  0.00  0.00    -0.390 OA
ATOM     41  C2  NAG d1177      15.023 -18.252  11.109  0.00  0.00     0.087 C 
ATOM     42  C3  NAG d1177      14.171 -18.822   9.982  0.00  0.00     0.093 C 
ATOM     43  C7  NAG d1177      16.584 -16.375  10.773  0.00  0.00     0.214 C 
ATOM     44  N2  NAG d1177      15.350 -16.871  10.781  0.00  0.00    -0.349 N 
ATOM     45  C8  NAG d1177      16.662 -14.878  10.783  0.00  0.00    -0.003 C 
ATOM     46  O7  NAG d1177      17.614 -17.057  10.743  0.00  0.00    -0.274 OA
ATOM     47  O6  NAG d1177      13.174 -22.062  13.135  0.00  0.00    -0.398 OA
ATOM     48  C4  NAG d1177      13.627 -20.197  10.337  0.00  0.00     0.089 C 
ATOM     49  O5  NAG d1177      13.797 -19.662  12.677  0.00  0.00    -0.349 OA
ATOM     50  C5  NAG d1177      12.912 -20.144  11.687  0.00  0.00     0.089 C 
ATOM     51  C1  NAG d1177      14.269 -18.346  12.436  0.00  0.00     0.154 C 
ATOM     52  O3  NAG d1177      14.946 -18.941   8.811  0.00  0.00    -0.348 OA
ATOM     53  H   NAG d1177      12.352 -22.162  11.274  0.00  0.00     0.078 H 
ATOM     54  H   NAG d1177      11.370 -21.374  12.495  0.00  0.00     0.078 H 
ATOM     55  H   NAG d1177      13.237 -20.618   8.459  0.00  0.00     0.210 HD
ATOM     56  H   NAG d1177      15.928 -18.813  11.214  0.00  0.00     0.084 H 
ATOM     57  H   NAG d1177      13.353 -18.151   9.828  0.00  0.00     0.091 H 
ATOM     58  H   NAG d1177      14.609 -16.266  10.550  0.00  0.00     0.163 HD
ATOM     59  H   NAG d1177      15.673 -14.470  10.810  0.00  0.00     0.040 H 
ATOM     60  H   NAG d1177      17.162 -14.541   9.899  0.00  0.00     0.040 H 
ATOM     61  H   NAG d1177      17.205 -14.554  11.646  0.00  0.00     0.040 H 
ATOM     62  H   NAG d1177      14.077 -22.182  12.800  0.00  0.00     0.209 HD
ATOM     63  H   NAG d1177      14.417 -20.912  10.428  0.00  0.00     0.091 H 
ATOM     64  H   NAG d1177      12.079 -19.483  11.575  0.00  0.00     0.090 H 
ATOM     65  H   NAG d1177      13.399 -17.726  12.399  0.00  0.00     0.132 H 
ATOM     66  C6  NAG d1175      13.893 -11.761  20.138  0.00  0.00     0.043 C 
ATOM     67  O3  NAG d1175      14.173 -16.456  18.729  0.00  0.00    -0.348 OA
ATOM     68  C2  NAG d1175      14.842 -15.866  20.952  0.00  0.00     0.087 C 
ATOM     69  O6  NAG d1175      14.416 -10.796  21.023  0.00  0.00    -0.398 OA
ATOM     70  O1  NAG d1175      15.140 -15.100  23.232  0.00  0.00    -0.369 OA
ATOM     71  C7  NAG d1175      15.288 -18.057  21.940  0.00  0.00     0.214 C 
ATOM     72  N2  NAG d1175      15.675 -17.046  21.160  0.00  0.00    -0.349 N 
ATOM     73  C5  NAG d1175      14.684 -13.050  20.322  0.00  0.00     0.089 C 
ATOM     74  O5  NAG d1175      14.439 -13.591  21.613  0.00  0.00    -0.349 OA
ATOM     75  C4  NAG d1175      14.332 -14.044  19.213  0.00  0.00     0.089 C 
ATOM     76  O4  NAG d1175      14.832 -13.512  18.000  0.00  0.00    -0.390 OA
ATOM     77  O7  NAG d1175      14.221 -18.662  21.776  0.00  0.00    -0.274 OA
ATOM     78  C1  NAG d1175      15.261 -14.716  21.877  0.00  0.00     0.151 C 
ATOM     79  C8  NAG d1175      16.239 -18.440  23.039  0.00  0.00    -0.003 C 
ATOM     80  C3  NAG d1175      14.881 -15.461  19.468  0.00  0.00     0.093 C 
ATOM     81  H   NAG d1175      12.860 -11.934  20.359  0.00  0.00     0.078 H 
ATOM     82  H   NAG d1175      13.973 -11.419  19.128  0.00  0.00     0.078 H 
ATOM     83  H   NAG d1175      13.831 -16.103  21.207  0.00  0.00     0.084 H 
ATOM     84  H   NAG d1175      14.338 -11.118  21.935  0.00  0.00     0.209 HD
ATOM     85  H   NAG d1175      15.706 -15.869  23.403  0.00  0.00     0.212 HD
ATOM     86  H   NAG d1175      16.549 -17.098  20.710  0.00  0.00     0.163 HD
ATOM     87  H   NAG d1175      15.731 -12.842  20.251  0.00  0.00     0.090 H 
ATOM     88  H   NAG d1175      13.270 -14.164  19.175  0.00  0.00     0.091 H 
ATOM     89  H   NAG d1175      15.796 -13.415  18.063  0.00  0.00     0.210 HD
ATOM     90  H   NAG d1175      16.286 -14.466  21.692  0.00  0.00     0.132 H 
ATOM     91  H   NAG d1175      17.096 -17.800  23.009  0.00  0.00     0.040 H 
ATOM     92  H   NAG d1175      16.550 -19.455  22.905  0.00  0.00     0.040 H 
ATOM     93  H   NAG d1175      15.751 -18.339  23.986  0.00  0.00     0.040 H 
ATOM     94  H   NAG d1175      15.899 -15.414  19.142  0.00  0.00     0.091 H 
ATOM     95  C4  NAG d1181       4.697 -10.187  -4.330  0.00  0.00     0.089 C 
ATOM     96  C3  NAG d1181       4.712 -11.599  -4.924  0.00  0.00     0.086 C 
ATOM     97  C6  NAG d1181       5.822  -8.562  -2.749  0.00  0.00     0.043 C 
ATOM     98  C5  NAG d1181       5.964  -9.877  -3.520  0.00  0.00     0.089 C 
ATOM     99  C7  NAG d1181       4.567 -14.957  -4.212  0.00  0.00     0.214 C 
ATOM    100  C8  NAG d1181       4.582 -15.491  -2.805  0.00  0.00    -0.003 C 
ATOM    101  N2  NAG d1181       5.374 -13.930  -4.477  0.00  0.00    -0.349 N 
ATOM    102  O3  NAG d1181       3.424 -11.943  -5.415  0.00  0.00    -0.391 OA
ATOM    103  C1  NAG d1181       6.442 -12.170  -3.172  0.00  0.00     0.154 C 
ATOM    104  O6  NAG d1181       7.096  -8.073  -2.386  0.00  0.00    -0.398 OA
ATOM    105  O5  NAG d1181       6.242 -10.906  -2.586  0.00  0.00    -0.349 OA
ATOM    106  O7  NAG d1181       3.834 -15.454  -5.071  0.00  0.00    -0.274 OA
ATOM    107  O4  NAG d1181       4.562  -9.246  -5.373  0.00  0.00    -0.390 OA
ATOM    108  C2  NAG d1181       5.164 -12.620  -3.878  0.00  0.00     0.087 C 
ATOM    109  H   NAG d1181       3.867 -10.127  -3.658  0.00  0.00     0.091 H 
ATOM    110  H   NAG d1181       5.407 -11.612  -5.737  0.00  0.00     0.090 H 
ATOM    111  H   NAG d1181       5.242  -8.730  -1.866  0.00  0.00     0.078 H 
ATOM    112  H   NAG d1181       5.335  -7.841  -3.373  0.00  0.00     0.078 H 
ATOM    113  H   NAG d1181       6.765  -9.800  -4.225  0.00  0.00     0.090 H 
ATOM    114  H   NAG d1181       5.278 -14.930  -2.218  0.00  0.00     0.040 H 
ATOM    115  H   NAG d1181       4.874 -16.521  -2.818  0.00  0.00     0.040 H 
ATOM    116  H   NAG d1181       3.604 -15.403  -2.379  0.00  0.00     0.040 H 
ATOM    117  H   NAG d1181       6.131 -14.061  -5.093  0.00  0.00     0.163 HD
ATOM    118  H   NAG d1181       2.786 -11.933  -4.684  0.00  0.00     0.210 HD
ATOM    119  H   NAG d1181       7.252 -12.076  -3.864  0.00  0.00     0.132 H 
ATOM    120  H   NAG d1181       7.542  -8.723  -1.821  0.00  0.00     0.209 HD
ATOM    121  H   NAG d1181       5.322  -9.316  -5.970  0.00  0.00     0.210 HD
ATOM    122  H   NAG d1181       4.381 -12.691  -3.152  0.00  0.00     0.084 H 
ATOM    123  C7  NAG d1179      10.899 -14.216   4.241  0.00  0.00     0.214 C 
ATOM    124  C1  NAG d1179      12.964 -16.641   2.950  0.00  0.00     0.154 C 
ATOM    125  C2  NAG d1179      12.158 -15.411   2.554  0.00  0.00     0.087 C 
ATOM    126  O5  NAG d1179      14.033 -16.826   2.047  0.00  0.00    -0.349 OA
ATOM    127  O7  NAG d1179      11.358 -13.107   3.976  0.00  0.00    -0.274 OA
ATOM    128  O4  NAG d1179      12.537 -15.858  -1.142  0.00  0.00    -0.390 OA
ATOM    129  N2  NAG d1179      10.998 -15.258   3.418  0.00  0.00    -0.349 N 
ATOM    130  C8  NAG d1179      10.189 -14.429   5.543  0.00  0.00    -0.003 C 
ATOM    131  O3  NAG d1179      11.316 -14.070   0.769  0.00  0.00    -0.348 OA
ATOM    132  C4  NAG d1179      12.954 -15.725   0.201  0.00  0.00     0.089 C 
ATOM    133  C5  NAG d1179      13.614 -17.010   0.706  0.00  0.00     0.089 C 
ATOM    134  O6  NAG d1179      15.782 -16.385  -0.180  0.00  0.00    -0.398 OA
ATOM    135  C3  NAG d1179      11.758 -15.378   1.081  0.00  0.00     0.093 C 
ATOM    136  C6  NAG d1179      14.817 -17.421  -0.143  0.00  0.00     0.043 C 
ATOM    137  H   NAG d1179      12.400 -17.549   2.916  0.00  0.00     0.132 H 
ATOM    138  H   NAG d1179      12.810 -14.573   2.691  0.00  0.00     0.084 H 
ATOM    139  H   NAG d1179      12.123 -15.031  -1.435  0.00  0.00     0.210 HD
ATOM    140  H   NAG d1179      10.280 -15.931   3.395  0.00  0.00     0.163 HD
ATOM    141  H   NAG d1179       9.858 -15.444   5.606  0.00  0.00     0.040 H 
ATOM    142  H   NAG d1179       9.345 -13.773   5.601  0.00  0.00     0.040 H 
ATOM    143  H   NAG d1179      10.858 -14.221   6.352  0.00  0.00     0.040 H 
ATOM    144  H   NAG d1179      13.676 -14.938   0.250  0.00  0.00     0.091 H 
ATOM    145  H   NAG d1179      12.886 -17.793   0.637  0.00  0.00     0.090 H 
ATOM    146  H   NAG d1179      16.536 -16.665  -0.722  0.00  0.00     0.209 HD
ATOM    147  H   NAG d1179      10.981 -16.092   0.904  0.00  0.00     0.091 H 
ATOM    148  H   NAG d1179      14.489 -17.630  -1.140  0.00  0.00     0.078 H 
ATOM    149  H   NAG d1179      15.263 -18.291   0.292  0.00  0.00     0.078 H 
ATOM    150  C6  BDP d1180       8.731 -15.150  -3.037  0.00  0.00     0.206 C 
ATOM    151  O3  BDP d1180       7.949 -11.003  -0.472  0.00  0.00    -0.390 OA
ATOM    152  C1  BDP d1180       9.986 -14.054   0.230  0.00  0.00     0.160 C 
ATOM    153  O2  BDP d1180       9.019 -12.616   1.854  0.00  0.00    -0.388 OA
ATOM    154  C3  BDP d1180       8.094 -12.402  -0.335  0.00  0.00     0.092 C 
ATOM    155  O4  BDP d1180       6.772 -13.162  -2.186  0.00  0.00    -0.348 OA
ATOM    156  O5  BDP d1180      10.011 -14.345  -1.149  0.00  0.00    -0.340 OA
ATOM    157  C5  BDP d1180       8.706 -14.447  -1.679  0.00  0.00     0.152 C 
ATOM    158  O6B BDP d1180       9.521 -14.723  -3.914  0.00  0.00    -0.646 OA
ATOM    159  O6A BDP d1180       7.965 -16.132  -3.194  0.00  0.00    -0.646 OA
ATOM    160  C2  BDP d1180       9.360 -12.683   0.485  0.00  0.00     0.110 C 
ATOM    161  C4  BDP d1180       8.100 -13.046  -1.725  0.00  0.00     0.103 C 
ATOM    162  H   BDP d1180       7.945 -10.591   0.407  0.00  0.00     0.210 HD
ATOM    163  H   BDP d1180       9.395 -14.804   0.712  0.00  0.00     0.133 H 
ATOM    164  H   BDP d1180       9.806 -12.792   2.393  0.00  0.00     0.210 HD
ATOM    165  H   BDP d1180       7.273 -12.837   0.195  0.00  0.00     0.091 H 
ATOM    166  H   BDP d1180       8.082 -15.054  -1.057  0.00  0.00     0.104 H 
ATOM    167  H   BDP d1180      10.081 -11.950   0.191  0.00  0.00     0.094 H 
ATOM    168  H   BDP d1180       8.684 -12.428  -2.374  0.00  0.00     0.092 H 
ENDROOT
TORSDOF 43
ENDMDL
MODEL 31
REMARK VINA RESULT:      -6.6      5.826      7.398
REMARK  0 active torsions:
REMARK  status: ('A' for Active; 'I' for Inactive)
REMARK       I    between atoms: C1_1  and  O3_15 
REMARK       I    between atoms: C1_2  and  O3_93 
REMARK       I    between atoms: C6_3  and  C5_89 
REMARK       I    between atoms: C6_3  and  O6_76 
REMARK       I    between atoms: O3_4  and  C3_22 
REMARK       I    between atoms: C6_5  and  C5_48 
REMARK       I    between atoms: C6_5  and  O6_31 
REMARK       I    between atoms: C4_6  and  O4_74 
REMARK       I    between atoms: C7_7  and  C8_62 
REMARK       I    between atoms: C7_7  and  N2_60 
REMARK       I    between atoms: C6_8  and  C5_52 
REMARK       I    between atoms: C3_9  and  O3_38 
REMARK       I    between atoms: C1_10  and  O4_75 
REMARK       I    between atoms: C6_12  and  C5_51 
REMARK       I    between atoms: O3_13  and  C3_42 
REMARK       I    between atoms: O4_14  and  C4_84 
REMARK       I    between atoms: O3_15  and  C3_86 
REMARK       I    between atoms: C6_16  and  C5_23 
REMARK       I    between atoms: C6_16  and  O6_58 
REMARK       I    between atoms: C1_17  and  O3_63 
REMARK       I    between atoms: C2_18  and  N2_60 
REMARK       I    between atoms: C2_19  and  N2_53 
REMARK       I    between atoms: O2_20  and  C2_66 
REMARK       I    between atoms: C3_25  and  O3_93 
REMARK       I    between atoms: C7_26  and  C8_32 
REMARK       I    between atoms: C7_26  and  N2_37 
REMARK       I    between atoms: C2_28  and  N2_44 
REMARK       I    between atoms: C7_29  and  C8_54 
REMARK       I    between atoms: C7_29  and  N2_53 
REMARK       I    between atoms: O1_33  and  C1_80 
REMARK       I    between atoms: O4_34  and  C4_40 
REMARK       I    between atoms: O4_34  and  C1_92 
REMARK       I    between atoms: C7_36  and  C8_81 
REMARK       I    between atoms: C7_36  and  N2_44 
REMARK       I    between atoms: N2_37  and  C2_83 
REMARK       I    between atoms: O3_39  and  C3_61 
REMARK       I    between atoms: C1_41  and  O4_46 
REMARK       I    between atoms: O2_43  and  C2_73 
REMARK       I    between atoms: C6_45  and  C5_87 
REMARK       I    between atoms: O4_46  and  C4_67 
REMARK       I    between atoms: C4_50  and  O4_65 
REMARK       I    between atoms: C2_55  and  O2_82 
REMARK       I    between atoms: O4_57  and  C4_71 
REMARK       I    between atoms: O3_63  and  C3_85 
REMARK       I    between atoms: O4_75  and  C4_91 
REMARK       I    between atoms: C5_77  and  C6_90 
REMARK       I    between atoms: O6_79  and  C6_90 
ROOT
ATOM      1  C1  BDP d1176      15.013 -12.057  14.253  0.00  0.00     0.160 C 
ATOM      2  O3  BDP d1176      15.738  -9.404  11.682  0.00  0.00    -0.390 OA
ATOM      3  O5  BDP d1176      14.701 -12.950  13.221  0.00  0.00    -0.340 OA
ATOM      4  O6A BDP d1176      14.221 -14.251  10.893  0.00  0.00    -0.646 OA
ATOM      5  C3  BDP d1176      14.874 -10.245  12.419  0.00  0.00     0.092 C 
ATOM      6  O4  BDP d1176      13.307 -10.765  10.694  0.00  0.00    -0.348 OA
ATOM      7  C4  BDP d1176      14.325 -11.327  11.500  0.00  0.00     0.103 C 
ATOM      8  C6  BDP d1176      13.309 -13.630  11.473  0.00  0.00     0.206 C 
ATOM      9  C2  BDP d1176      15.590 -10.764  13.664  0.00  0.00     0.110 C 
ATOM     10  O6B BDP d1176      12.090 -13.888  11.408  0.00  0.00    -0.646 OA
ATOM     11  O2  BDP d1176      15.478  -9.743  14.626  0.00  0.00    -0.388 OA
ATOM     12  C5  BDP d1176      13.740 -12.460  12.332  0.00  0.00     0.152 C 
ATOM     13  H   BDP d1176      14.135 -11.801  14.808  0.00  0.00     0.133 H 
ATOM     14  H   BDP d1176      16.090  -8.713  12.264  0.00  0.00     0.210 HD
ATOM     15  H   BDP d1176      14.024  -9.707  12.785  0.00  0.00     0.091 H 
ATOM     16  H   BDP d1176      15.112 -11.711  10.885  0.00  0.00     0.092 H 
ATOM     17  H   BDP d1176      16.596 -11.004  13.389  0.00  0.00     0.094 H 
ATOM     18  H   BDP d1176      14.541  -9.584  14.820  0.00  0.00     0.210 HD
ATOM     19  H   BDP d1176      12.894 -12.053  12.845  0.00  0.00     0.104 H 
ATOM     20  C1  BDP d1178      11.337 -10.501   5.244  0.00  0.00     0.160 C 
ATOM     21  C6  BDP d1178      12.810 -11.324   1.920  0.00  0.00     0.206 C 
ATOM     22  O6B BDP d1178      13.024 -12.404   1.319  0.00  0.00    -0.646 OA
ATOM     23  O6A BDP d1178      13.300 -10.217   1.585  0.00  0.00    -0.646 OA
ATOM     24  O3  BDP d1178       8.187 -10.632   3.254  0.00  0.00    -0.390 OA
ATOM     25  O2  BDP d1178       9.062  -9.964   5.833  0.00  0.00    -0.388 OA
ATOM     26  C5  BDP d1178      11.863 -11.397   3.120  0.00  0.00     0.152 C 
ATOM     27  C3  BDP d1178       9.440 -11.042   3.756  0.00  0.00     0.092 C 
ATOM     28  C2  BDP d1178       9.965 -10.046   4.759  0.00  0.00     0.110 C 
ATOM     29  O4  BDP d1178      10.061 -12.355   1.934  0.00  0.00    -0.348 OA
ATOM     30  O5  BDP d1178      12.232 -10.492   4.155  0.00  0.00    -0.340 OA
ATOM     31  C4  BDP d1178      10.437 -11.195   2.620  0.00  0.00     0.103 C 
ATOM     32  H   BDP d1178      11.333 -11.503   5.622  0.00  0.00     0.133 H 
ATOM     33  H   BDP d1178       7.560 -10.538   3.988  0.00  0.00     0.210 HD
ATOM     34  H   BDP d1178       9.391  -9.325   6.484  0.00  0.00     0.210 HD
ATOM     35  H   BDP d1178      11.931 -12.363   3.576  0.00  0.00     0.104 H 
ATOM     36  H   BDP d1178       9.310 -11.986   4.242  0.00  0.00     0.091 H 
ATOM     37  H   BDP d1178      10.062  -9.079   4.312  0.00  0.00     0.094 H 
ATOM     38  H   BDP d1178      10.426 -10.311   2.018  0.00  0.00     0.092 H 
ATOM     39  C6  NAG d1177      16.222  -8.338   7.821  0.00  0.00     0.043 C 
ATOM     40  O4  NAG d1177      14.318  -8.906   5.590  0.00  0.00    -0.390 OA
ATOM     41  C2  NAG d1177      12.455 -10.348   8.483  0.00  0.00     0.087 C 
ATOM     42  C3  NAG d1177      12.846 -10.072   7.037  0.00  0.00     0.093 C 
ATOM     43  C7  NAG d1177      10.371 -11.510   9.097  0.00  0.00     0.214 C 
ATOM     44  N2  NAG d1177      11.562 -11.497   8.504  0.00  0.00    -0.349 N 
ATOM     45  C8  NAG d1177       9.795 -12.876   9.324  0.00  0.00    -0.003 C 
ATOM     46  O7  NAG d1177       9.745 -10.501   9.434  0.00  0.00    -0.274 OA
ATOM     47  O6  NAG d1177      16.205  -7.573   9.012  0.00  0.00    -0.398 OA
ATOM     48  C4  NAG d1177      13.929  -9.008   6.946  0.00  0.00     0.089 C 
ATOM     49  O5  NAG d1177      14.658  -9.557   9.172  0.00  0.00    -0.349 OA
ATOM     50  C5  NAG d1177      15.107  -9.383   7.845  0.00  0.00     0.089 C 
ATOM     51  C1  NAG d1177      13.706 -10.598   9.326  0.00  0.00     0.154 C 
ATOM     52  O3  NAG d1177      11.722  -9.623   6.316  0.00  0.00    -0.348 OA
ATOM     53  H   NAG d1177      16.079  -7.688   6.983  0.00  0.00     0.078 H 
ATOM     54  H   NAG d1177      17.165  -8.837   7.741  0.00  0.00     0.078 H 
ATOM     55  H   NAG d1177      13.548  -8.667   5.050  0.00  0.00     0.210 HD
ATOM     56  H   NAG d1177      11.951  -9.502   8.902  0.00  0.00     0.084 H 
ATOM     57  H   NAG d1177      13.219 -10.987   6.626  0.00  0.00     0.091 H 
ATOM     58  H   NAG d1177      11.860 -12.319   8.051  0.00  0.00     0.163 HD
ATOM     59  H   NAG d1177      10.480 -13.616   8.968  0.00  0.00     0.040 H 
ATOM     60  H   NAG d1177       8.869 -12.964   8.796  0.00  0.00     0.040 H 
ATOM     61  H   NAG d1177       9.624 -13.022  10.370  0.00  0.00     0.040 H 
ATOM     62  H   NAG d1177      15.353  -7.117   9.093  0.00  0.00     0.209 HD
ATOM     63  H   NAG d1177      13.565  -8.060   7.283  0.00  0.00     0.091 H 
ATOM     64  H   NAG d1177      15.514 -10.295   7.463  0.00  0.00     0.090 H 
ATOM     65  H   NAG d1177      14.193 -11.490   8.991  0.00  0.00     0.132 H 
ATOM     66  C6  NAG d1175      15.213 -17.235  16.844  0.00  0.00     0.043 C 
ATOM     67  O3  NAG d1175      15.968 -12.697  15.129  0.00  0.00    -0.348 OA
ATOM     68  C2  NAG d1175      16.214 -13.111  17.475  0.00  0.00     0.087 C 
ATOM     69  O6  NAG d1175      14.848 -17.985  17.980  0.00  0.00    -0.398 OA
ATOM     70  O1  NAG d1175      16.732 -13.825  19.733  0.00  0.00    -0.369 OA
ATOM     71  C7  NAG d1175      17.049 -10.958  18.278  0.00  0.00     0.214 C 
ATOM     72  N2  NAG d1175      16.029 -11.720  17.877  0.00  0.00    -0.349 N 
ATOM     73  C5  NAG d1175      15.090 -15.757  17.193  0.00  0.00     0.089 C 
ATOM     74  O5  NAG d1175      16.059 -15.406  18.170  0.00  0.00    -0.349 OA
ATOM     75  C4  NAG d1175      15.223 -14.906  15.928  0.00  0.00     0.089 C 
ATOM     76  O4  NAG d1175      14.081 -15.161  15.130  0.00  0.00    -0.390 OA
ATOM     77  O7  NAG d1175      18.062 -10.775  17.593  0.00  0.00    -0.274 OA
ATOM     78  C1  NAG d1175      15.889 -14.073  18.625  0.00  0.00     0.151 C 
ATOM     79  C8  NAG d1175      16.892 -10.309  19.626  0.00  0.00    -0.003 C 
ATOM     80  C3  NAG d1175      15.375 -13.401  16.219  0.00  0.00     0.093 C 
ATOM     81  H   NAG d1175      16.223 -17.460  16.570  0.00  0.00     0.078 H 
ATOM     82  H   NAG d1175      14.574 -17.475  16.020  0.00  0.00     0.078 H 
ATOM     83  H   NAG d1175      17.244 -13.270  17.232  0.00  0.00     0.084 H 
ATOM     84  H   NAG d1175      15.434 -17.758  18.719  0.00  0.00     0.209 HD
ATOM     85  H   NAG d1175      16.608 -12.912  20.036  0.00  0.00     0.212 HD
ATOM     86  H   NAG d1175      15.125 -11.332  17.851  0.00  0.00     0.163 HD
ATOM     87  H   NAG d1175      14.123 -15.567  17.611  0.00  0.00     0.090 H 
ATOM     88  H   NAG d1175      16.122 -15.179  15.416  0.00  0.00     0.091 H 
ATOM     89  H   NAG d1175      13.282 -14.904  15.618  0.00  0.00     0.210 HD
ATOM     90  H   NAG d1175      14.876 -13.924  18.937  0.00  0.00     0.132 H 
ATOM     91  H   NAG d1175      15.952 -10.592  20.052  0.00  0.00     0.040 H 
ATOM     92  H   NAG d1175      16.927  -9.245  19.516  0.00  0.00     0.040 H 
ATOM     93  H   NAG d1175      17.686 -10.626  20.270  0.00  0.00     0.040 H 
ATOM     94  H   NAG d1175      14.373 -13.059  16.378  0.00  0.00     0.091 H 
ATOM     95  C4  NAG d1181      11.222 -20.855  -8.783  0.00  0.00     0.089 C 
ATOM     96  C3  NAG d1181      11.429 -19.507  -9.480  0.00  0.00     0.086 C 
ATOM     97  C6  NAG d1181      10.447 -22.035  -6.682  0.00  0.00     0.043 C 
ATOM     98  C5  NAG d1181      10.436 -20.723  -7.470  0.00  0.00     0.089 C 
ATOM     99  C7  NAG d1181      13.028 -16.470  -9.324  0.00  0.00     0.214 C 
ATOM    100  C8  NAG d1181      13.833 -16.036  -8.130  0.00  0.00    -0.003 C 
ATOM    101  N2  NAG d1181      11.890 -17.120  -9.082  0.00  0.00    -0.349 N 
ATOM    102  O3  NAG d1181      12.387 -19.631 -10.522  0.00  0.00    -0.391 OA
ATOM    103  C1  NAG d1181      10.991 -18.432  -7.235  0.00  0.00     0.154 C 
ATOM    104  O6  NAG d1181       9.392 -22.044  -5.742  0.00  0.00    -0.398 OA
ATOM    105  O5  NAG d1181      10.983 -19.709  -6.644  0.00  0.00    -0.349 OA
ATOM    106  O7  NAG d1181      13.416 -16.233 -10.471  0.00  0.00    -0.274 OA
ATOM    107  O4  NAG d1181      10.539 -21.729  -9.654  0.00  0.00    -0.390 OA
ATOM    108  C2  NAG d1181      11.880 -18.443  -8.477  0.00  0.00     0.087 C 
ATOM    109  H   NAG d1181      12.187 -21.245  -8.537  0.00  0.00     0.091 H 
ATOM    110  H   NAG d1181      10.495 -19.203  -9.904  0.00  0.00     0.090 H 
ATOM    111  H   NAG d1181      11.380 -22.132  -6.168  0.00  0.00     0.078 H 
ATOM    112  H   NAG d1181      10.319 -22.852  -7.361  0.00  0.00     0.078 H 
ATOM    113  H   NAG d1181       9.432 -20.468  -7.740  0.00  0.00     0.090 H 
ATOM    114  H   NAG d1181      13.331 -16.333  -7.233  0.00  0.00     0.040 H 
ATOM    115  H   NAG d1181      13.942 -14.971  -8.141  0.00  0.00     0.040 H 
ATOM    116  H   NAG d1181      14.800 -16.494  -8.165  0.00  0.00     0.040 H 
ATOM    117  H   NAG d1181      11.034 -16.693  -9.318  0.00  0.00     0.163 HD
ATOM    118  H   NAG d1181      13.238 -19.908 -10.147  0.00  0.00     0.210 HD
ATOM    119  H   NAG d1181       9.979 -18.192  -7.487  0.00  0.00     0.132 H 
ATOM    120  H   NAG d1181       9.503 -21.305  -5.125  0.00  0.00     0.209 HD
ATOM    121  H   NAG d1181       9.668 -21.359  -9.865  0.00  0.00     0.210 HD
ATOM    122  H   NAG d1181      12.877 -18.697  -8.180  0.00  0.00     0.084 H 
ATOM    123  C7  NAG d1179      11.365 -15.269   1.063  0.00  0.00     0.214 C 
ATOM    124  C1  NAG d1179       9.920 -12.199   0.512  0.00  0.00     0.154 C 
ATOM    125  C2  NAG d1179       9.981 -13.618  -0.040  0.00  0.00     0.087 C 
ATOM    126  O5  NAG d1179       8.697 -11.595   0.149  0.00  0.00    -0.349 OA
ATOM    127  O7  NAG d1179      10.485 -16.121   1.164  0.00  0.00    -0.274 OA
ATOM    128  O4  NAG d1179       8.159 -12.885  -3.225  0.00  0.00    -0.390 OA
ATOM    129  N2  NAG d1179      11.273 -14.223   0.244  0.00  0.00    -0.349 N 
ATOM    130  C8  NAG d1179      12.610 -15.391   1.888  0.00  0.00    -0.003 C 
ATOM    131  O3  NAG d1179       9.408 -15.085  -1.832  0.00  0.00    -0.348 OA
ATOM    132  C4  NAG d1179       8.375 -12.922  -1.830  0.00  0.00     0.089 C 
ATOM    133  C5  NAG d1179       8.502 -11.511  -1.252  0.00  0.00     0.089 C 
ATOM    134  O6  NAG d1179       6.101 -11.262  -1.019  0.00  0.00    -0.398 OA
ATOM    135  C3  NAG d1179       9.636 -13.722  -1.524  0.00  0.00     0.093 C 
ATOM    136  C6  NAG d1179       7.270 -10.650  -1.535  0.00  0.00     0.043 C 
ATOM    137  H   NAG d1179      10.683 -11.558   0.123  0.00  0.00     0.132 H 
ATOM    138  H   NAG d1179       9.216 -14.166   0.470  0.00  0.00     0.084 H 
ATOM    139  H   NAG d1179       8.082 -13.790  -3.565  0.00  0.00     0.210 HD
ATOM    140  H   NAG d1179      12.086 -13.856  -0.174  0.00  0.00     0.163 HD
ATOM    141  H   NAG d1179      13.262 -14.570   1.674  0.00  0.00     0.040 H 
ATOM    142  H   NAG d1179      13.105 -16.311   1.653  0.00  0.00     0.040 H 
ATOM    143  H   NAG d1179      12.352 -15.381   2.926  0.00  0.00     0.040 H 
ATOM    144  H   NAG d1179       7.530 -13.394  -1.374  0.00  0.00     0.091 H 
ATOM    145  H   NAG d1179       9.340 -11.044  -1.727  0.00  0.00     0.090 H 
ATOM    146  H   NAG d1179       5.333 -10.701  -1.208  0.00  0.00     0.209 HD
ATOM    147  H   NAG d1179      10.442 -13.332  -2.108  0.00  0.00     0.091 H 
ATOM    148  H   NAG d1179       7.164 -10.527  -2.592  0.00  0.00     0.078 H 
ATOM    149  H   NAG d1179       7.399  -9.700  -1.060  0.00  0.00     0.078 H 
ATOM    150  C6  BDP d1180      10.194 -14.834  -6.486  0.00  0.00     0.206 C 
ATOM    151  O3  BDP d1180      10.563 -19.101  -4.026  0.00  0.00    -0.390 OA
ATOM    152  C1  BDP d1180      10.254 -15.557  -2.890  0.00  0.00     0.160 C 
ATOM    153  O2  BDP d1180      11.287 -17.324  -1.686  0.00  0.00    -0.388 OA
ATOM    154  C3  BDP d1180      10.988 -17.754  -4.015  0.00  0.00     0.092 C 
ATOM    155  O4  BDP d1180      11.505 -17.437  -6.335  0.00  0.00    -0.348 OA
ATOM    156  O5  BDP d1180       9.713 -15.210  -4.146  0.00  0.00    -0.340 OA
ATOM    157  C5  BDP d1180      10.585 -15.564  -5.199  0.00  0.00     0.152 C 
ATOM    158  O6B BDP d1180       9.001 -14.902  -6.871  0.00  0.00    -0.646 OA
ATOM    159  O6A BDP d1180      11.093 -14.192  -7.081  0.00  0.00    -0.646 OA
ATOM    160  C2  BDP d1180      10.412 -17.072  -2.766  0.00  0.00     0.110 C 
ATOM    161  C4  BDP d1180      10.580 -17.085  -5.331  0.00  0.00     0.103 C 
ATOM    162  H   BDP d1180      10.820 -19.529  -3.194  0.00  0.00     0.210 HD
ATOM    163  H   BDP d1180      11.217 -15.096  -2.811  0.00  0.00     0.133 H 
ATOM    164  H   BDP d1180      10.941 -16.901  -0.885  0.00  0.00     0.210 HD
ATOM    165  H   BDP d1180      12.053 -17.672  -3.954  0.00  0.00     0.091 H 
ATOM    166  H   BDP d1180      11.588 -15.256  -4.992  0.00  0.00     0.104 H 
ATOM    167  H   BDP d1180       9.433 -17.477  -2.624  0.00  0.00     0.094 H 
ATOM    168  H   BDP d1180       9.593 -17.416  -5.579  0.00  0.00     0.092 H 
ENDROOT
TORSDOF 43
ENDMDL
MODEL 32
REMARK VINA RESULT:      -6.6      3.914      5.631
REMARK  0 active torsions:
REMARK  status: ('A' for Active; 'I' for Inactive)
REMARK       I    between atoms: C1_1  and  O3_15 
REMARK       I    between atoms: C1_2  and  O3_93 
REMARK       I    between atoms: C6_3  and  C5_89 
REMARK       I    between atoms: C6_3  and  O6_76 
REMARK       I    between atoms: O3_4  and  C3_22 
REMARK       I    between atoms: C6_5  and  C5_48 
REMARK       I    between atoms: C6_5  and  O6_31 
REMARK       I    between atoms: C4_6  and  O4_74 
REMARK       I    between atoms: C7_7  and  C8_62 
REMARK       I    between atoms: C7_7  and  N2_60 
REMARK       I    between atoms: C6_8  and  C5_52 
REMARK       I    between atoms: C3_9  and  O3_38 
REMARK       I    between atoms: C1_10  and  O4_75 
REMARK       I    between atoms: C6_12  and  C5_51 
REMARK       I    between atoms: O3_13  and  C3_42 
REMARK       I    between atoms: O4_14  and  C4_84 
REMARK       I    between atoms: O3_15  and  C3_86 
REMARK       I    between atoms: C6_16  and  C5_23 
REMARK       I    between atoms: C6_16  and  O6_58 
REMARK       I    between atoms: C1_17  and  O3_63 
REMARK       I    between atoms: C2_18  and  N2_60 
REMARK       I    between atoms: C2_19  and  N2_53 
REMARK       I    between atoms: O2_20  and  C2_66 
REMARK       I    between atoms: C3_25  and  O3_93 
REMARK       I    between atoms: C7_26  and  C8_32 
REMARK       I    between atoms: C7_26  and  N2_37 
REMARK       I    between atoms: C2_28  and  N2_44 
REMARK       I    between atoms: C7_29  and  C8_54 
REMARK       I    between atoms: C7_29  and  N2_53 
REMARK       I    between atoms: O1_33  and  C1_80 
REMARK       I    between atoms: O4_34  and  C4_40 
REMARK       I    between atoms: O4_34  and  C1_92 
REMARK       I    between atoms: C7_36  and  C8_81 
REMARK       I    between atoms: C7_36  and  N2_44 
REMARK       I    between atoms: N2_37  and  C2_83 
REMARK       I    between atoms: O3_39  and  C3_61 
REMARK       I    between atoms: C1_41  and  O4_46 
REMARK       I    between atoms: O2_43  and  C2_73 
REMARK       I    between atoms: C6_45  and  C5_87 
REMARK       I    between atoms: O4_46  and  C4_67 
REMARK       I    between atoms: C4_50  and  O4_65 
REMARK       I    between atoms: C2_55  and  O2_82 
REMARK       I    between atoms: O4_57  and  C4_71 
REMARK       I    between atoms: O3_63  and  C3_85 
REMARK       I    between atoms: O4_75  and  C4_91 
REMARK       I    between atoms: C5_77  and  C6_90 
REMARK       I    between atoms: O6_79  and  C6_90 
ROOT
ATOM      1  C1  BDP d1176      11.896 -15.203  16.386  0.00  0.00     0.160 C 
ATOM      2  O3  BDP d1176      14.014 -17.348  14.129  0.00  0.00    -0.390 OA
ATOM      3  O5  BDP d1176      11.091 -14.872  15.290  0.00  0.00    -0.340 OA
ATOM      4  O6A BDP d1176       9.877 -14.563  12.887  0.00  0.00    -0.646 OA
ATOM      5  C3  BDP d1176      13.542 -16.107  14.614  0.00  0.00     0.092 C 
ATOM      6  O4  BDP d1176      13.453 -14.915  12.547  0.00  0.00    -0.348 OA
ATOM      7  C4  BDP d1176      12.643 -15.470  13.565  0.00  0.00     0.103 C 
ATOM      8  C6  BDP d1176      10.793 -13.794  13.239  0.00  0.00     0.206 C 
ATOM      9  C2  BDP d1176      12.896 -16.295  15.985  0.00  0.00     0.110 C 
ATOM     10  O6B BDP d1176      10.939 -12.610  12.872  0.00  0.00    -0.646 OA
ATOM     11  O2  BDP d1176      13.954 -16.298  16.912  0.00  0.00    -0.388 OA
ATOM     12  C5  BDP d1176      11.811 -14.366  14.203  0.00  0.00     0.152 C 
ATOM     13  H   BDP d1176      12.454 -14.352  16.715  0.00  0.00     0.133 H 
ATOM     14  H   BDP d1176      14.588 -17.758  14.795  0.00  0.00     0.210 HD
ATOM     15  H   BDP d1176      14.347 -15.419  14.772  0.00  0.00     0.091 H 
ATOM     16  H   BDP d1176      11.988 -16.210  13.154  0.00  0.00     0.092 H 
ATOM     17  H   BDP d1176      12.328 -17.201  15.960  0.00  0.00     0.094 H 
ATOM     18  H   BDP d1176      14.418 -15.447  16.875  0.00  0.00     0.210 HD
ATOM     19  H   BDP d1176      12.499 -13.603  14.502  0.00  0.00     0.104 H 
ATOM     20  C1  BDP d1178      14.011 -14.500   6.788  0.00  0.00     0.160 C 
ATOM     21  C6  BDP d1178      12.560 -16.370   3.908  0.00  0.00     0.206 C 
ATOM     22  O6B BDP d1178      11.434 -16.355   3.354  0.00  0.00    -0.646 OA
ATOM     23  O6A BDP d1178      13.427 -17.260   3.728  0.00  0.00    -0.646 OA
ATOM     24  O3  BDP d1178      14.784 -12.052   4.084  0.00  0.00    -0.390 OA
ATOM     25  O2  BDP d1178      15.288 -12.456   6.813  0.00  0.00    -0.388 OA
ATOM     26  C5  BDP d1178      12.867 -15.195   4.838  0.00  0.00     0.152 C 
ATOM     27  C3  BDP d1178      14.023 -12.943   4.868  0.00  0.00     0.092 C 
ATOM     28  C2  BDP d1178      14.854 -13.510   5.992  0.00  0.00     0.110 C 
ATOM     29  O4  BDP d1178      12.473 -13.516   3.226  0.00  0.00    -0.348 OA
ATOM     30  O5  BDP d1178      13.665 -15.582   5.951  0.00  0.00    -0.340 OA
ATOM     31  C4  BDP d1178      13.488 -14.076   4.008  0.00  0.00     0.103 C 
ATOM     32  H   BDP d1178      13.089 -14.079   7.131  0.00  0.00     0.133 H 
ATOM     33  H   BDP d1178      15.119 -11.334   4.644  0.00  0.00     0.210 HD
ATOM     34  H   BDP d1178      15.824 -12.811   7.539  0.00  0.00     0.210 HD
ATOM     35  H   BDP d1178      11.960 -14.832   5.275  0.00  0.00     0.104 H 
ATOM     36  H   BDP d1178      13.202 -12.400   5.287  0.00  0.00     0.091 H 
ATOM     37  H   BDP d1178      15.709 -14.022   5.603  0.00  0.00     0.094 H 
ATOM     38  H   BDP d1178      14.291 -14.499   3.442  0.00  0.00     0.092 H 
ATOM     39  C6  NAG d1177      14.633 -19.060  10.529  0.00  0.00     0.043 C 
ATOM     40  O4  NAG d1177      14.577 -17.666   7.888  0.00  0.00    -0.390 OA
ATOM     41  C2  NAG d1177      13.990 -14.801  10.204  0.00  0.00     0.087 C 
ATOM     42  C3  NAG d1177      14.037 -15.593   8.905  0.00  0.00     0.093 C 
ATOM     43  C7  NAG d1177      13.600 -12.368  10.263  0.00  0.00     0.214 C 
ATOM     44  N2  NAG d1177      13.193 -13.603   9.981  0.00  0.00    -0.349 N 
ATOM     45  C8  NAG d1177      12.510 -11.340  10.312  0.00  0.00    -0.003 C 
ATOM     46  O7  NAG d1177      14.777 -12.045  10.459  0.00  0.00    -0.274 OA
ATOM     47  O6  NAG d1177      15.433 -19.011  11.697  0.00  0.00    -0.398 OA
ATOM     48  C4  NAG d1177      14.688 -16.953   9.105  0.00  0.00     0.089 C 
ATOM     49  O5  NAG d1177      14.067 -16.909  11.429  0.00  0.00    -0.349 OA
ATOM     50  C5  NAG d1177      14.008 -17.693  10.256  0.00  0.00     0.089 C 
ATOM     51  C1  NAG d1177      13.400 -15.661  11.323  0.00  0.00     0.154 C 
ATOM     52  O3  NAG d1177      14.781 -14.884   7.940  0.00  0.00    -0.348 OA
ATOM     53  H   NAG d1177      15.243 -19.342   9.696  0.00  0.00     0.078 H 
ATOM     54  H   NAG d1177      13.852 -19.778  10.672  0.00  0.00     0.078 H 
ATOM     55  H   NAG d1177      15.018 -17.169   7.181  0.00  0.00     0.210 HD
ATOM     56  H   NAG d1177      14.976 -14.516  10.506  0.00  0.00     0.084 H 
ATOM     57  H   NAG d1177      13.028 -15.732   8.577  0.00  0.00     0.091 H 
ATOM     58  H   NAG d1177      12.294 -13.714   9.596  0.00  0.00     0.163 HD
ATOM     59  H   NAG d1177      11.568 -11.809  10.119  0.00  0.00     0.040 H 
ATOM     60  H   NAG d1177      12.694 -10.590   9.572  0.00  0.00     0.040 H 
ATOM     61  H   NAG d1177      12.490 -10.887  11.282  0.00  0.00     0.040 H 
ATOM     62  H   NAG d1177      16.143 -18.362  11.576  0.00  0.00     0.209 HD
ATOM     63  H   NAG d1177      15.720 -16.851   9.363  0.00  0.00     0.091 H 
ATOM     64  H   NAG d1177      12.991 -17.858   9.966  0.00  0.00     0.090 H 
ATOM     65  H   NAG d1177      12.380 -15.894  11.097  0.00  0.00     0.132 H 
ATOM     66  C6  NAG d1175       7.095 -13.073  18.832  0.00  0.00     0.043 C 
ATOM     67  O3  NAG d1175      11.036 -15.659  17.454  0.00  0.00    -0.348 OA
ATOM     68  C2  NAG d1175      10.707 -15.189  19.780  0.00  0.00     0.087 C 
ATOM     69  O6  NAG d1175       6.573 -12.223  19.827  0.00  0.00    -0.398 OA
ATOM     70  O1  NAG d1175      10.000 -14.890  22.079  0.00  0.00    -0.369 OA
ATOM     71  C7  NAG d1175      12.519 -16.465  20.810  0.00  0.00     0.214 C 
ATOM     72  N2  NAG d1175      12.104 -15.379  20.155  0.00  0.00    -0.349 N 
ATOM     73  C5  NAG d1175       8.553 -13.362  19.173  0.00  0.00     0.089 C 
ATOM     74  O5  NAG d1175       8.630 -14.130  20.365  0.00  0.00    -0.349 OA
ATOM     75  C4  NAG d1175       9.238 -14.063  17.998  0.00  0.00     0.089 C 
ATOM     76  O4  NAG d1175       9.318 -13.126  16.939  0.00  0.00    -0.390 OA
ATOM     77  O7  NAG d1175      12.324 -17.615  20.398  0.00  0.00    -0.274 OA
ATOM     78  C1  NAG d1175       9.971 -14.302  20.793  0.00  0.00     0.151 C 
ATOM     79  C8  NAG d1175      13.264 -16.213  22.093  0.00  0.00    -0.003 C 
ATOM     80  C3  NAG d1175      10.627 -14.625  18.350  0.00  0.00     0.093 C 
ATOM     81  H   NAG d1175       6.541 -13.988  18.808  0.00  0.00     0.078 H 
ATOM     82  H   NAG d1175       7.025 -12.607  17.872  0.00  0.00     0.078 H 
ATOM     83  H   NAG d1175      10.209 -16.136  19.793  0.00  0.00     0.084 H 
ATOM     84  H   NAG d1175       6.642 -12.657  20.692  0.00  0.00     0.209 HD
ATOM     85  H   NAG d1175      10.920 -15.003  22.363  0.00  0.00     0.212 HD
ATOM     86  H   NAG d1175      12.760 -14.686  19.917  0.00  0.00     0.163 HD
ATOM     87  H   NAG d1175       9.069 -12.440  19.346  0.00  0.00     0.090 H 
ATOM     88  H   NAG d1175       8.659 -14.918  17.716  0.00  0.00     0.091 H 
ATOM     89  H   NAG d1175       9.847 -12.364  17.222  0.00  0.00     0.210 HD
ATOM     90  H   NAG d1175      10.458 -13.350  20.852  0.00  0.00     0.132 H 
ATOM     91  H   NAG d1175      13.325 -15.160  22.269  0.00  0.00     0.040 H 
ATOM     92  H   NAG d1175      14.251 -16.619  22.018  0.00  0.00     0.040 H 
ATOM     93  H   NAG d1175      12.746 -16.681  22.904  0.00  0.00     0.040 H 
ATOM     94  H   NAG d1175      11.283 -13.784  18.267  0.00  0.00     0.091 H 
ATOM     95  C4  NAG d1181       3.426 -14.349  -7.065  0.00  0.00     0.089 C 
ATOM     96  C3  NAG d1181       4.590 -15.147  -7.661  0.00  0.00     0.086 C 
ATOM     97  C6  NAG d1181       2.688 -12.754  -5.245  0.00  0.00     0.043 C 
ATOM     98  C5  NAG d1181       3.883 -13.362  -5.982  0.00  0.00     0.089 C 
ATOM     99  C7  NAG d1181       6.953 -17.566  -7.051  0.00  0.00     0.214 C 
ATOM    100  C8  NAG d1181       7.175 -18.160  -5.686  0.00  0.00    -0.003 C 
ATOM    101  N2  NAG d1181       6.721 -16.255  -7.109  0.00  0.00    -0.349 N 
ATOM    102  O3  NAG d1181       4.102 -16.230  -8.439  0.00  0.00    -0.391 OA
ATOM    103  C1  NAG d1181       5.882 -14.563  -5.568  0.00  0.00     0.154 C 
ATOM    104  O6  NAG d1181       3.075 -11.563  -4.592  0.00  0.00    -0.398 OA
ATOM    105  O5  NAG d1181       4.714 -13.997  -5.025  0.00  0.00    -0.349 OA
ATOM    106  O7  NAG d1181       6.983 -18.272  -8.062  0.00  0.00    -0.274 OA
ATOM    107  O4  NAG d1181       2.769 -13.647  -8.096  0.00  0.00    -0.390 OA
ATOM    108  C2  NAG d1181       5.510 -15.668  -6.554  0.00  0.00     0.087 C 
ATOM    109  H   NAG d1181       2.761 -15.046  -6.599  0.00  0.00     0.091 H 
ATOM    110  H   NAG d1181       5.154 -14.494  -8.293  0.00  0.00     0.090 H 
ATOM    111  H   NAG d1181       2.326 -13.453  -4.520  0.00  0.00     0.078 H 
ATOM    112  H   NAG d1181       1.916 -12.531  -5.952  0.00  0.00     0.078 H 
ATOM    113  H   NAG d1181       4.431 -12.591  -6.484  0.00  0.00     0.090 H 
ATOM    114  H   NAG d1181       7.110 -17.389  -4.947  0.00  0.00     0.040 H 
ATOM    115  H   NAG d1181       8.145 -18.610  -5.647  0.00  0.00     0.040 H 
ATOM    116  H   NAG d1181       6.428 -18.902  -5.494  0.00  0.00     0.040 H 
ATOM    117  H   NAG d1181       7.386 -15.668  -7.538  0.00  0.00     0.163 HD
ATOM    118  H   NAG d1181       3.588 -16.828  -7.873  0.00  0.00     0.210 HD
ATOM    119  H   NAG d1181       6.420 -13.776  -6.055  0.00  0.00     0.132 H 
ATOM    120  H   NAG d1181       3.775 -11.759  -3.950  0.00  0.00     0.209 HD
ATOM    121  H   NAG d1181       3.386 -13.022  -8.506  0.00  0.00     0.210 HD
ATOM    122  H   NAG d1181       4.967 -16.426  -6.028  0.00  0.00     0.084 H 
ATOM    123  C7  NAG d1179       9.247 -13.962   2.637  0.00  0.00     0.214 C 
ATOM    124  C1  NAG d1179      12.580 -13.777   1.816  0.00  0.00     0.154 C 
ATOM    125  C2  NAG d1179      11.187 -13.500   1.265  0.00  0.00     0.087 C 
ATOM    126  O5  NAG d1179      13.524 -12.943   1.179  0.00  0.00    -0.349 OA
ATOM    127  O7  NAG d1179       8.733 -12.854   2.500  0.00  0.00    -0.274 OA
ATOM    128  O4  NAG d1179      12.277 -12.834  -2.253  0.00  0.00    -0.390 OA
ATOM    129  N2  NAG d1179      10.216 -14.415   1.843  0.00  0.00    -0.349 N 
ATOM    130  C8  NAG d1179       8.780 -14.863   3.738  0.00  0.00    -0.003 C 
ATOM    131  O3  NAG d1179       9.879 -12.923  -0.645  0.00  0.00    -0.348 OA
ATOM    132  C4  NAG d1179      12.256 -12.686  -0.848  0.00  0.00     0.089 C 
ATOM    133  C5  NAG d1179      13.582 -13.126  -0.225  0.00  0.00     0.089 C 
ATOM    134  O6  NAG d1179      14.606 -10.958  -0.582  0.00  0.00    -0.398 OA
ATOM    135  C3  NAG d1179      11.111 -13.504  -0.260  0.00  0.00     0.093 C 
ATOM    136  C6  NAG d1179      14.775 -12.349  -0.782  0.00  0.00     0.043 C 
ATOM    137  H   NAG d1179      12.917 -14.778   1.641  0.00  0.00     0.132 H 
ATOM    138  H   NAG d1179      10.946 -12.500   1.560  0.00  0.00     0.084 H 
ATOM    139  H   NAG d1179      11.425 -12.548  -2.620  0.00  0.00     0.210 HD
ATOM    140  H   NAG d1179      10.275 -15.378   1.646  0.00  0.00     0.163 HD
ATOM    141  H   NAG d1179       9.332 -15.779   3.709  0.00  0.00     0.040 H 
ATOM    142  H   NAG d1179       7.737 -15.071   3.611  0.00  0.00     0.040 H 
ATOM    143  H   NAG d1179       8.935 -14.383   4.682  0.00  0.00     0.040 H 
ATOM    144  H   NAG d1179      12.109 -11.650  -0.623  0.00  0.00     0.091 H 
ATOM    145  H   NAG d1179      13.724 -14.158  -0.470  0.00  0.00     0.090 H 
ATOM    146  H   NAG d1179      15.372 -10.484  -0.941  0.00  0.00     0.209 HD
ATOM    147  H   NAG d1179      11.185 -14.509  -0.620  0.00  0.00     0.091 H 
ATOM    148  H   NAG d1179      14.863 -12.545  -1.831  0.00  0.00     0.078 H 
ATOM    149  H   NAG d1179      15.660 -12.665  -0.269  0.00  0.00     0.078 H 
ATOM    150  C6  BDP d1180       9.583 -14.834  -4.958  0.00  0.00     0.206 C 
ATOM    151  O3  BDP d1180       5.580 -13.187  -2.577  0.00  0.00    -0.390 OA
ATOM    152  C1  BDP d1180       9.097 -13.795  -1.474  0.00  0.00     0.160 C 
ATOM    153  O2  BDP d1180       7.166 -13.873  -0.093  0.00  0.00    -0.388 OA
ATOM    154  C3  BDP d1180       6.717 -14.014  -2.432  0.00  0.00     0.092 C 
ATOM    155  O4  BDP d1180       6.711 -15.144  -4.548  0.00  0.00    -0.348 OA
ATOM    156  O5  BDP d1180       9.524 -13.713  -2.815  0.00  0.00    -0.340 OA
ATOM    157  C5  BDP d1180       8.845 -14.645  -3.631  0.00  0.00     0.152 C 
ATOM    158  O6B BDP d1180       9.880 -13.813  -5.624  0.00  0.00    -0.646 OA
ATOM    159  O6A BDP d1180       9.864 -16.008  -5.300  0.00  0.00    -0.646 OA
ATOM    160  C2  BDP d1180       7.622 -13.413  -1.348  0.00  0.00     0.110 C 
ATOM    161  C4  BDP d1180       7.402 -14.174  -3.793  0.00  0.00     0.103 C 
ATOM    162  H   BDP d1180       5.144 -13.083  -1.717  0.00  0.00     0.210 HD
ATOM    163  H   BDP d1180       9.226 -14.807  -1.151  0.00  0.00     0.133 H 
ATOM    164  H   BDP d1180       7.726 -13.504   0.609  0.00  0.00     0.210 HD
ATOM    165  H   BDP d1180       6.454 -15.000  -2.111  0.00  0.00     0.091 H 
ATOM    166  H   BDP d1180       8.825 -15.613  -3.177  0.00  0.00     0.104 H 
ATOM    167  H   BDP d1180       7.563 -12.351  -1.459  0.00  0.00     0.094 H 
ATOM    168  H   BDP d1180       7.393 -13.222  -4.283  0.00  0.00     0.092 H 
ENDROOT
TORSDOF 43
ENDMDL
MODEL 33
REMARK VINA RESULT:      -6.5      2.889      4.203
REMARK  0 active torsions:
REMARK  status: ('A' for Active; 'I' for Inactive)
REMARK       I    between atoms: C1_1  and  O3_15 
REMARK       I    between atoms: C1_2  and  O3_93 
REMARK       I    between atoms: C6_3  and  C5_89 
REMARK       I    between atoms: C6_3  and  O6_76 
REMARK       I    between atoms: O3_4  and  C3_22 
REMARK       I    between atoms: C6_5  and  C5_48 
REMARK       I    between atoms: C6_5  and  O6_31 
REMARK       I    between atoms: C4_6  and  O4_74 
REMARK       I    between atoms: C7_7  and  C8_62 
REMARK       I    between atoms: C7_7  and  N2_60 
REMARK       I    between atoms: C6_8  and  C5_52 
REMARK       I    between atoms: C3_9  and  O3_38 
REMARK       I    between atoms: C1_10  and  O4_75 
REMARK       I    between atoms: C6_12  and  C5_51 
REMARK       I    between atoms: O3_13  and  C3_42 
REMARK       I    between atoms: O4_14  and  C4_84 
REMARK       I    between atoms: O3_15  and  C3_86 
REMARK       I    between atoms: C6_16  and  C5_23 
REMARK       I    between atoms: C6_16  and  O6_58 
REMARK       I    between atoms: C1_17  and  O3_63 
REMARK       I    between atoms: C2_18  and  N2_60 
REMARK       I    between atoms: C2_19  and  N2_53 
REMARK       I    between atoms: O2_20  and  C2_66 
REMARK       I    between atoms: C3_25  and  O3_93 
REMARK       I    between atoms: C7_26  and  C8_32 
REMARK       I    between atoms: C7_26  and  N2_37 
REMARK       I    between atoms: C2_28  and  N2_44 
REMARK       I    between atoms: C7_29  and  C8_54 
REMARK       I    between atoms: C7_29  and  N2_53 
REMARK       I    between atoms: O1_33  and  C1_80 
REMARK       I    between atoms: O4_34  and  C4_40 
REMARK       I    between atoms: O4_34  and  C1_92 
REMARK       I    between atoms: C7_36  and  C8_81 
REMARK       I    between atoms: C7_36  and  N2_44 
REMARK       I    between atoms: N2_37  and  C2_83 
REMARK       I    between atoms: O3_39  and  C3_61 
REMARK       I    between atoms: C1_41  and  O4_46 
REMARK       I    between atoms: O2_43  and  C2_73 
REMARK       I    between atoms: C6_45  and  C5_87 
REMARK       I    between atoms: O4_46  and  C4_67 
REMARK       I    between atoms: C4_50  and  O4_65 
REMARK       I    between atoms: C2_55  and  O2_82 
REMARK       I    between atoms: O4_57  and  C4_71 
REMARK       I    between atoms: O3_63  and  C3_85 
REMARK       I    between atoms: O4_75  and  C4_91 
REMARK       I    between atoms: C5_77  and  C6_90 
REMARK       I    between atoms: O6_79  and  C6_90 
ROOT
ATOM      1  C1  BDP d1176      10.415 -13.346  16.230  0.00  0.00     0.160 C 
ATOM      2  O3  BDP d1176      13.237 -12.312  13.962  0.00  0.00    -0.390 OA
ATOM      3  O5  BDP d1176       9.805 -13.996  15.150  0.00  0.00    -0.340 OA
ATOM      4  O6A BDP d1176       9.069 -15.075  12.776  0.00  0.00    -0.646 OA
ATOM      5  C3  BDP d1176      11.906 -12.245  14.432  0.00  0.00     0.092 C 
ATOM      6  O4  BDP d1176      10.793 -11.934  12.343  0.00  0.00    -0.348 OA
ATOM      7  C4  BDP d1176      10.978 -12.861  13.396  0.00  0.00     0.103 C 
ATOM      8  C6  BDP d1176       8.716 -13.920  13.085  0.00  0.00     0.206 C 
ATOM      9  C2  BDP d1176      11.814 -12.865  15.825  0.00  0.00     0.110 C 
ATOM     10  O6B BDP d1176       7.686 -13.337  12.688  0.00  0.00    -0.646 OA
ATOM     11  O2  BDP d1176      12.221 -11.861  16.722  0.00  0.00    -0.388 OA
ATOM     12  C5  BDP d1176       9.630 -13.174  14.033  0.00  0.00     0.152 C 
ATOM     13  H   BDP d1176       9.846 -12.489  16.524  0.00  0.00     0.133 H 
ATOM     14  H   BDP d1176      13.832 -11.920  14.620  0.00  0.00     0.210 HD
ATOM     15  H   BDP d1176      11.585 -11.231  14.553  0.00  0.00     0.091 H 
ATOM     16  H   BDP d1176      11.408 -13.766  13.019  0.00  0.00     0.092 H 
ATOM     17  H   BDP d1176      12.426 -13.743  15.836  0.00  0.00     0.094 H 
ATOM     18  H   BDP d1176      11.619 -11.103  16.653  0.00  0.00     0.210 HD
ATOM     19  H   BDP d1176       9.194 -12.233  14.295  0.00  0.00     0.104 H 
ATOM     20  C1  BDP d1178      10.682 -11.459   6.562  0.00  0.00     0.160 C 
ATOM     21  C6  BDP d1178      11.863 -13.623   3.767  0.00  0.00     0.206 C 
ATOM     22  O6B BDP d1178      11.415 -14.672   3.245  0.00  0.00    -0.646 OA
ATOM     23  O6A BDP d1178      13.023 -13.179   3.582  0.00  0.00    -0.646 OA
ATOM     24  O3  BDP d1178       8.756  -9.887   3.785  0.00  0.00    -0.390 OA
ATOM     25  O2  BDP d1178       9.299  -9.485   6.506  0.00  0.00    -0.388 OA
ATOM     26  C5  BDP d1178      10.893 -12.850   4.662  0.00  0.00     0.152 C 
ATOM     27  C3  BDP d1178       9.271 -10.907   4.610  0.00  0.00     0.092 C 
ATOM     28  C2  BDP d1178      10.108 -10.324   5.721  0.00  0.00     0.110 C 
ATOM     29  O4  BDP d1178       9.209 -12.614   3.025  0.00  0.00    -0.348 OA
ATOM     30  O5  BDP d1178      11.550 -12.228   5.760  0.00  0.00    -0.340 OA
ATOM     31  C4  BDP d1178      10.113 -11.871   3.790  0.00  0.00     0.103 C 
ATOM     32  H   BDP d1178       9.931 -12.131   6.922  0.00  0.00     0.133 H 
ATOM     33  H   BDP d1178       8.221  -9.279   4.319  0.00  0.00     0.210 HD
ATOM     34  H   BDP d1178       9.828  -9.106   7.225  0.00  0.00     0.210 HD
ATOM     35  H   BDP d1178      10.201 -13.527   5.116  0.00  0.00     0.104 H 
ATOM     36  H   BDP d1178       8.447 -11.436   5.039  0.00  0.00     0.091 H 
ATOM     37  H   BDP d1178      10.917  -9.751   5.320  0.00  0.00     0.094 H 
ATOM     38  H   BDP d1178      10.822 -11.317   3.211  0.00  0.00     0.092 H 
ATOM     39  C6  NAG d1177      15.088 -12.535  10.384  0.00  0.00     0.043 C 
ATOM     40  O4  NAG d1177      13.807 -12.134   7.716  0.00  0.00    -0.390 OA
ATOM     41  C2  NAG d1177      10.919 -11.477   9.984  0.00  0.00     0.087 C 
ATOM     42  C3  NAG d1177      11.678 -11.788   8.701  0.00  0.00     0.093 C 
ATOM     43  C7  NAG d1177       8.527 -10.884  10.000  0.00  0.00     0.214 C 
ATOM     44  N2  NAG d1177       9.507 -11.751   9.757  0.00  0.00    -0.349 N 
ATOM     45  C8  NAG d1177       7.155 -11.485  10.057  0.00  0.00    -0.003 C 
ATOM     46  O7  NAG d1177       8.687  -9.670  10.156  0.00  0.00    -0.274 OA
ATOM     47  O6  NAG d1177      15.345 -11.740  11.528  0.00  0.00    -0.398 OA
ATOM     48  C4  NAG d1177      13.183 -11.713   8.913  0.00  0.00     0.089 C 
ATOM     49  O5  NAG d1177      12.878 -12.186  11.253  0.00  0.00    -0.349 OA
ATOM     50  C5  NAG d1177      13.588 -12.587  10.099  0.00  0.00     0.089 C 
ATOM     51  C1  NAG d1177      11.471 -12.316  11.137  0.00  0.00     0.154 C 
ATOM     52  O3  NAG d1177      11.326 -10.860   7.701  0.00  0.00    -0.348 OA
ATOM     53  H   NAG d1177      15.593 -12.113   9.541  0.00  0.00     0.078 H 
ATOM     54  H   NAG d1177      15.443 -13.529  10.565  0.00  0.00     0.078 H 
ATOM     55  H   NAG d1177      13.529 -11.559   6.986  0.00  0.00     0.210 HD
ATOM     56  H   NAG d1177      11.039 -10.448  10.251  0.00  0.00     0.084 H 
ATOM     57  H   NAG d1177      11.416 -12.782   8.406  0.00  0.00     0.091 H 
ATOM     58  H   NAG d1177       9.262 -12.635   9.400  0.00  0.00     0.163 HD
ATOM     59  H   NAG d1177       7.220 -12.541   9.901  0.00  0.00     0.040 H 
ATOM     60  H   NAG d1177       6.543 -11.049   9.295  0.00  0.00     0.040 H 
ATOM     61  H   NAG d1177       6.720 -11.293  11.017  0.00  0.00     0.040 H 
ATOM     62  H   NAG d1177      15.026 -10.837  11.373  0.00  0.00     0.209 HD
ATOM     63  H   NAG d1177      13.490 -10.713   9.140  0.00  0.00     0.091 H 
ATOM     64  H   NAG d1177      13.345 -13.597   9.842  0.00  0.00     0.090 H 
ATOM     65  H   NAG d1177      11.289 -13.353  10.946  0.00  0.00     0.132 H 
ATOM     66  C6  NAG d1175       6.556 -16.848  18.763  0.00  0.00     0.043 C 
ATOM     67  O3  NAG d1175      10.488 -14.278  17.332  0.00  0.00    -0.348 OA
ATOM     68  C2  NAG d1175       9.905 -14.317  19.655  0.00  0.00     0.087 C 
ATOM     69  O6  NAG d1175       5.560 -16.963  19.754  0.00  0.00    -0.398 OA
ATOM     70  O1  NAG d1175       9.332 -14.771  21.966  0.00  0.00    -0.369 OA
ATOM     71  C7  NAG d1175      11.778 -13.111  20.662  0.00  0.00     0.214 C 
ATOM     72  N2  NAG d1175      10.623 -13.093  19.994  0.00  0.00    -0.349 N 
ATOM     73  C5  NAG d1175       7.388 -15.607  19.069  0.00  0.00     0.089 C 
ATOM     74  O5  NAG d1175       8.114 -15.794  20.275  0.00  0.00    -0.349 OA
ATOM     75  C4  NAG d1175       8.312 -15.292  17.891  0.00  0.00     0.089 C 
ATOM     76  O4  NAG d1175       7.490 -14.889  16.810  0.00  0.00    -0.390 OA
ATOM     77  O7  NAG d1175      12.764 -13.754  20.281  0.00  0.00    -0.274 OA
ATOM     78  C1  NAG d1175       8.792 -14.613  20.669  0.00  0.00     0.151 C 
ATOM     79  C8  NAG d1175      11.825 -12.284  21.917  0.00  0.00    -0.003 C 
ATOM     80  C3  NAG d1175       9.369 -14.220  18.216  0.00  0.00     0.093 C 
ATOM     81  H   NAG d1175       7.182 -17.716  18.776  0.00  0.00     0.078 H 
ATOM     82  H   NAG d1175       6.109 -16.764  17.795  0.00  0.00     0.078 H 
ATOM     83  H   NAG d1175      10.583 -15.144  19.704  0.00  0.00     0.084 H 
ATOM     84  H   NAG d1175       5.979 -17.038  20.626  0.00  0.00     0.209 HD
ATOM     85  H   NAG d1175       9.794 -13.958  22.226  0.00  0.00     0.212 HD
ATOM     86  H   NAG d1175      10.243 -12.226  19.723  0.00  0.00     0.163 HD
ATOM     87  H   NAG d1175       6.740 -14.767  19.207  0.00  0.00     0.090 H 
ATOM     88  H   NAG d1175       8.876 -16.167  17.645  0.00  0.00     0.091 H 
ATOM     89  H   NAG d1175       6.992 -14.095  17.061  0.00  0.00     0.210 HD
ATOM     90  H   NAG d1175       8.106 -13.792  20.693  0.00  0.00     0.132 H 
ATOM     91  H   NAG d1175      10.878 -11.810  22.068  0.00  0.00     0.040 H 
ATOM     92  H   NAG d1175      12.585 -11.536  21.823  0.00  0.00     0.040 H 
ATOM     93  H   NAG d1175      12.046 -12.914  22.752  0.00  0.00     0.040 H 
ATOM     94  H   NAG d1175       8.851 -13.291  18.095  0.00  0.00     0.091 H 
ATOM     95  C4  NAG d1181       6.538 -21.621  -6.985  0.00  0.00     0.089 C 
ATOM     96  C3  NAG d1181       7.732 -20.881  -7.596  0.00  0.00     0.086 C 
ATOM     97  C6  NAG d1181       4.764 -21.614  -5.180  0.00  0.00     0.043 C 
ATOM     98  C5  NAG d1181       5.798 -20.777  -5.937  0.00  0.00     0.089 C 
ATOM     99  C7  NAG d1181      10.876 -19.629  -7.000  0.00  0.00     0.214 C 
ATOM    100  C8  NAG d1181      11.497 -19.609  -5.629  0.00  0.00    -0.003 C 
ATOM    101  N2  NAG d1181       9.579 -19.333  -7.080  0.00  0.00    -0.349 N 
ATOM    102  O3  NAG d1181       8.546 -21.780  -8.335  0.00  0.00    -0.391 OA
ATOM    103  C1  NAG d1181       7.680 -19.391  -5.554  0.00  0.00     0.154 C 
ATOM    104  O6  NAG d1181       3.813 -20.770  -4.565  0.00  0.00    -0.398 OA
ATOM    105  O5  NAG d1181       6.697 -20.227  -4.990  0.00  0.00    -0.349 OA
ATOM    106  O7  NAG d1181      11.547 -19.912  -7.995  0.00  0.00    -0.274 OA
ATOM    107  O4  NAG d1181       5.644 -21.987  -8.013  0.00  0.00    -0.390 OA
ATOM    108  C2  NAG d1181       8.561 -20.199  -6.504  0.00  0.00     0.087 C 
ATOM    109  H   NAG d1181       6.915 -22.488  -6.485  0.00  0.00     0.091 H 
ATOM    110  H   NAG d1181       7.357 -20.129  -8.258  0.00  0.00     0.090 H 
ATOM    111  H   NAG d1181       5.259 -22.195  -4.430  0.00  0.00     0.078 H 
ATOM    112  H   NAG d1181       4.264 -22.262  -5.870  0.00  0.00     0.078 H 
ATOM    113  H   NAG d1181       5.307 -19.990  -6.471  0.00  0.00     0.090 H 
ATOM    114  H   NAG d1181      10.755 -19.343  -4.906  0.00  0.00     0.040 H 
ATOM    115  H   NAG d1181      12.290 -18.891  -5.608  0.00  0.00     0.040 H 
ATOM    116  H   NAG d1181      11.887 -20.579  -5.400  0.00  0.00     0.040 H 
ATOM    117  H   NAG d1181       9.303 -18.507  -7.540  0.00  0.00     0.163 HD
ATOM    118  H   NAG d1181       8.891 -22.466  -7.742  0.00  0.00     0.210 HD
ATOM    119  H   NAG d1181       7.171 -18.606  -6.073  0.00  0.00     0.132 H 
ATOM    120  H   NAG d1181       4.261 -20.181  -3.939  0.00  0.00     0.209 HD
ATOM    121  H   NAG d1181       5.314 -21.189  -8.453  0.00  0.00     0.210 HD
ATOM    122  H   NAG d1181       9.041 -20.976  -5.947  0.00  0.00     0.084 H 
ATOM    123  C7  NAG d1179       8.365 -15.776   2.537  0.00  0.00     0.214 C 
ATOM    124  C1  NAG d1179       9.504 -12.666   1.619  0.00  0.00     0.154 C 
ATOM    125  C2  NAG d1179       8.710 -13.858   1.101  0.00  0.00     0.087 C 
ATOM    126  O5  NAG d1179       9.111 -11.494   0.936  0.00  0.00    -0.349 OA
ATOM    127  O7  NAG d1179       7.145 -15.822   2.391  0.00  0.00    -0.274 OA
ATOM    128  O4  NAG d1179       8.555 -12.718  -2.460  0.00  0.00    -0.390 OA
ATOM    129  N2  NAG d1179       9.168 -15.089   1.726  0.00  0.00    -0.349 N 
ATOM    130  C8  NAG d1179       9.002 -16.520   3.671  0.00  0.00    -0.003 C 
ATOM    131  O3  NAG d1179       7.686 -14.903  -0.783  0.00  0.00    -0.348 OA
ATOM    132  C4  NAG d1179       8.397 -12.631  -1.059  0.00  0.00     0.089 C 
ATOM    133  C5  NAG d1179       9.315 -11.561  -0.464  0.00  0.00     0.089 C 
ATOM    134  O6  NAG d1179       7.722  -9.785  -0.898  0.00  0.00    -0.398 OA
ATOM    135  C3  NAG d1179       8.698 -13.983  -0.420  0.00  0.00     0.093 C 
ATOM    136  C6  NAG d1179       9.071 -10.179  -1.072  0.00  0.00     0.043 C 
ATOM    137  H   NAG d1179      10.558 -12.752   1.456  0.00  0.00     0.132 H 
ATOM    138  H   NAG d1179       7.692 -13.680   1.380  0.00  0.00     0.084 H 
ATOM    139  H   NAG d1179       7.963 -13.403  -2.809  0.00  0.00     0.210 HD
ATOM    140  H   NAG d1179      10.079 -15.417   1.549  0.00  0.00     0.163 HD
ATOM    141  H   NAG d1179      10.060 -16.370   3.647  0.00  0.00     0.040 H 
ATOM    142  H   NAG d1179       8.787 -17.564   3.578  0.00  0.00     0.040 H 
ATOM    143  H   NAG d1179       8.612 -16.157   4.599  0.00  0.00     0.040 H 
ATOM    144  H   NAG d1179       7.385 -12.354  -0.853  0.00  0.00     0.091 H 
ATOM    145  H   NAG d1179      10.323 -11.841  -0.690  0.00  0.00     0.090 H 
ATOM    146  H   NAG d1179       7.588  -8.908  -1.289  0.00  0.00     0.209 HD
ATOM    147  H   NAG d1179       9.655 -14.320  -0.761  0.00  0.00     0.091 H 
ATOM    148  H   NAG d1179       9.295 -10.211  -2.118  0.00  0.00     0.078 H 
ATOM    149  H   NAG d1179       9.702  -9.471  -0.577  0.00  0.00     0.078 H 
ATOM    150  C6  BDP d1180       9.369 -16.071  -5.043  0.00  0.00     0.206 C 
ATOM    151  O3  BDP d1180       6.268 -19.029  -2.587  0.00  0.00    -0.390 OA
ATOM    152  C1  BDP d1180       8.190 -15.992  -1.570  0.00  0.00     0.160 C 
ATOM    153  O2  BDP d1180       7.496 -17.751  -0.134  0.00  0.00    -0.388 OA
ATOM    154  C3  BDP d1180       7.472 -18.301  -2.456  0.00  0.00     0.092 C 
ATOM    155  O4  BDP d1180       8.529 -18.821  -4.545  0.00  0.00    -0.348 OA
ATOM    156  O5  BDP d1180       8.294 -15.614  -2.925  0.00  0.00    -0.340 OA
ATOM    157  C5  BDP d1180       8.895 -16.630  -3.700  0.00  0.00     0.152 C 
ATOM    158  O6B BDP d1180       8.551 -15.422  -5.740  0.00  0.00    -0.646 OA
ATOM    159  O6A BDP d1180      10.563 -16.282  -5.367  0.00  0.00    -0.646 OA
ATOM    160  C2  BDP d1180       7.262 -17.196  -1.411  0.00  0.00     0.110 C 
ATOM    161  C4  BDP d1180       7.899 -17.780  -3.832  0.00  0.00     0.103 C 
ATOM    162  H   BDP d1180       5.994 -19.360  -1.717  0.00  0.00     0.210 HD
ATOM    163  H   BDP d1180       9.169 -16.257  -1.229  0.00  0.00     0.133 H 
ATOM    164  H   BDP d1180       7.368 -17.068   0.543  0.00  0.00     0.210 HD
ATOM    165  H   BDP d1180       8.274 -18.916  -2.105  0.00  0.00     0.091 H 
ATOM    166  H   BDP d1180       9.774 -17.011  -3.225  0.00  0.00     0.104 H 
ATOM    167  H   BDP d1180       6.262 -16.839  -1.544  0.00  0.00     0.094 H 
ATOM    168  H   BDP d1180       7.024 -17.434  -4.342  0.00  0.00     0.092 H 
ENDROOT
TORSDOF 43
ENDMDL
MODEL 34
REMARK VINA RESULT:      -6.5      5.488      7.496
REMARK  0 active torsions:
REMARK  status: ('A' for Active; 'I' for Inactive)
REMARK       I    between atoms: C1_1  and  O3_15 
REMARK       I    between atoms: C1_2  and  O3_93 
REMARK       I    between atoms: C6_3  and  C5_89 
REMARK       I    between atoms: C6_3  and  O6_76 
REMARK       I    between atoms: O3_4  and  C3_22 
REMARK       I    between atoms: C6_5  and  C5_48 
REMARK       I    between atoms: C6_5  and  O6_31 
REMARK       I    between atoms: C4_6  and  O4_74 
REMARK       I    between atoms: C7_7  and  C8_62 
REMARK       I    between atoms: C7_7  and  N2_60 
REMARK       I    between atoms: C6_8  and  C5_52 
REMARK       I    between atoms: C3_9  and  O3_38 
REMARK       I    between atoms: C1_10  and  O4_75 
REMARK       I    between atoms: C6_12  and  C5_51 
REMARK       I    between atoms: O3_13  and  C3_42 
REMARK       I    between atoms: O4_14  and  C4_84 
REMARK       I    between atoms: O3_15  and  C3_86 
REMARK       I    between atoms: C6_16  and  C5_23 
REMARK       I    between atoms: C6_16  and  O6_58 
REMARK       I    between atoms: C1_17  and  O3_63 
REMARK       I    between atoms: C2_18  and  N2_60 
REMARK       I    between atoms: C2_19  and  N2_53 
REMARK       I    between atoms: O2_20  and  C2_66 
REMARK       I    between atoms: C3_25  and  O3_93 
REMARK       I    between atoms: C7_26  and  C8_32 
REMARK       I    between atoms: C7_26  and  N2_37 
REMARK       I    between atoms: C2_28  and  N2_44 
REMARK       I    between atoms: C7_29  and  C8_54 
REMARK       I    between atoms: C7_29  and  N2_53 
REMARK       I    between atoms: O1_33  and  C1_80 
REMARK       I    between atoms: O4_34  and  C4_40 
REMARK       I    between atoms: O4_34  and  C1_92 
REMARK       I    between atoms: C7_36  and  C8_81 
REMARK       I    between atoms: C7_36  and  N2_44 
REMARK       I    between atoms: N2_37  and  C2_83 
REMARK       I    between atoms: O3_39  and  C3_61 
REMARK       I    between atoms: C1_41  and  O4_46 
REMARK       I    between atoms: O2_43  and  C2_73 
REMARK       I    between atoms: C6_45  and  C5_87 
REMARK       I    between atoms: O4_46  and  C4_67 
REMARK       I    between atoms: C4_50  and  O4_65 
REMARK       I    between atoms: C2_55  and  O2_82 
REMARK       I    between atoms: O4_57  and  C4_71 
REMARK       I    between atoms: O3_63  and  C3_85 
REMARK       I    between atoms: O4_75  and  C4_91 
REMARK       I    between atoms: C5_77  and  C6_90 
REMARK       I    between atoms: O6_79  and  C6_90 
ROOT
ATOM      1  C1  BDP d1176      13.530 -16.536  16.576  0.00  0.00     0.160 C 
ATOM      2  O3  BDP d1176      14.235 -19.474  14.330  0.00  0.00    -0.390 OA
ATOM      3  O5  BDP d1176      12.758 -15.963  15.558  0.00  0.00    -0.340 OA
ATOM      4  O6A BDP d1176      11.398 -15.313  13.306  0.00  0.00    -0.646 OA
ATOM      5  C3  BDP d1176      14.378 -18.125  14.726  0.00  0.00     0.092 C 
ATOM      6  O4  BDP d1176      14.439 -17.112  12.565  0.00  0.00    -0.348 OA
ATOM      7  C4  BDP d1176      13.648 -17.233  13.732  0.00  0.00     0.103 C 
ATOM      8  C6  BDP d1176      12.587 -14.968  13.452  0.00  0.00     0.206 C 
ATOM      9  C2  BDP d1176      13.938 -17.960  16.179  0.00  0.00     0.110 C 
ATOM     10  O6B BDP d1176      13.129 -13.967  12.938  0.00  0.00    -0.646 OA
ATOM     11  O2  BDP d1176      15.042 -18.345  16.962  0.00  0.00    -0.388 OA
ATOM     12  C5  BDP d1176      13.435 -15.853  14.340  0.00  0.00     0.152 C 
ATOM     13  H   BDP d1176      14.424 -15.970  16.734  0.00  0.00     0.133 H 
ATOM     14  H   BDP d1176      14.699 -20.047  14.961  0.00  0.00     0.210 HD
ATOM     15  H   BDP d1176      15.403 -17.818  14.704  0.00  0.00     0.091 H 
ATOM     16  H   BDP d1176      12.698 -17.662  13.492  0.00  0.00     0.092 H 
ATOM     17  H   BDP d1176      13.061 -18.555  16.328  0.00  0.00     0.094 H 
ATOM     18  H   BDP d1176      15.793 -17.761  16.771  0.00  0.00     0.210 HD
ATOM     19  H   BDP d1176      14.407 -15.423  14.463  0.00  0.00     0.104 H 
ATOM     20  C1  BDP d1178      14.186 -17.266   6.771  0.00  0.00     0.160 C 
ATOM     21  C6  BDP d1178      11.674 -18.530   4.325  0.00  0.00     0.206 C 
ATOM     22  O6B BDP d1178      10.573 -18.087   3.918  0.00  0.00    -0.646 OA
ATOM     23  O6A BDP d1178      12.077 -19.705   4.140  0.00  0.00    -0.646 OA
ATOM     24  O3  BDP d1178      15.422 -15.494   3.733  0.00  0.00    -0.390 OA
ATOM     25  O2  BDP d1178      16.155 -15.923   6.405  0.00  0.00    -0.388 OA
ATOM     26  C5  BDP d1178      12.566 -17.536   5.070  0.00  0.00     0.152 C 
ATOM     27  C3  BDP d1178      14.507 -15.954   4.702  0.00  0.00     0.092 C 
ATOM     28  C2  BDP d1178      15.214 -16.751   5.769  0.00  0.00     0.110 C 
ATOM     29  O4  BDP d1178      12.616 -15.930   3.341  0.00  0.00    -0.348 OA
ATOM     30  O5  BDP d1178      13.312 -18.155   6.112  0.00  0.00    -0.340 OA
ATOM     31  C4  BDP d1178      13.438 -16.813   4.049  0.00  0.00     0.103 C 
ATOM     32  H   BDP d1178      13.574 -16.488   7.177  0.00  0.00     0.133 H 
ATOM     33  H   BDP d1178      16.099 -14.947   4.162  0.00  0.00     0.210 HD
ATOM     34  H   BDP d1178      16.615 -16.427   7.095  0.00  0.00     0.210 HD
ATOM     35  H   BDP d1178      11.959 -16.812   5.574  0.00  0.00     0.104 H 
ATOM     36  H   BDP d1178      14.047 -15.102   5.155  0.00  0.00     0.091 H 
ATOM     37  H   BDP d1178      15.722 -17.587   5.338  0.00  0.00     0.094 H 
ATOM     38  H   BDP d1178      13.906 -17.557   3.438  0.00  0.00     0.092 H 
ATOM     39  C6  NAG d1177      13.542 -21.478  10.897  0.00  0.00     0.043 C 
ATOM     40  O4  NAG d1177      13.621 -20.324   8.143  0.00  0.00    -0.390 OA
ATOM     41  C2  NAG d1177      14.594 -17.351  10.176  0.00  0.00     0.087 C 
ATOM     42  C3  NAG d1177      14.116 -18.160   8.978  0.00  0.00     0.093 C 
ATOM     43  C7  NAG d1177      15.215 -14.972  10.007  0.00  0.00     0.214 C 
ATOM     44  N2  NAG d1177      14.313 -15.945   9.920  0.00  0.00    -0.349 N 
ATOM     45  C8  NAG d1177      14.644 -13.587  10.075  0.00  0.00    -0.003 C 
ATOM     46  O7  NAG d1177      16.437 -15.148  10.017  0.00  0.00    -0.274 OA
ATOM     47  O6  NAG d1177      14.471 -21.698  11.944  0.00  0.00    -0.398 OA
ATOM     48  C4  NAG d1177      14.198 -19.655   9.248  0.00  0.00     0.089 C 
ATOM     49  O5  NAG d1177      14.026 -19.238  11.612  0.00  0.00    -0.349 OA
ATOM     50  C5  NAG d1177      13.474 -19.991  10.552  0.00  0.00     0.089 C 
ATOM     51  C1  NAG d1177      13.899 -17.835  11.449  0.00  0.00     0.154 C 
ATOM     52  O3  NAG d1177      14.915 -17.870   7.855  0.00  0.00    -0.348 OA
ATOM     53  H   NAG d1177      13.849 -22.028  10.033  0.00  0.00     0.078 H 
ATOM     54  H   NAG d1177      12.575 -21.806  11.217  0.00  0.00     0.078 H 
ATOM     55  H   NAG d1177      14.104 -20.089   7.336  0.00  0.00     0.210 HD
ATOM     56  H   NAG d1177      15.647 -17.478  10.318  0.00  0.00     0.084 H 
ATOM     57  H   NAG d1177      13.096 -17.893   8.797  0.00  0.00     0.091 H 
ATOM     58  H   NAG d1177      13.394 -15.700   9.665  0.00  0.00     0.163 HD
ATOM     59  H   NAG d1177      13.576 -13.640  10.055  0.00  0.00     0.040 H 
ATOM     60  H   NAG d1177      14.988 -13.018   9.237  0.00  0.00     0.040 H 
ATOM     61  H   NAG d1177      14.960 -13.115  10.982  0.00  0.00     0.040 H 
ATOM     62  H   NAG d1177      15.351 -21.403  11.662  0.00  0.00     0.209 HD
ATOM     63  H   NAG d1177      15.214 -19.970   9.363  0.00  0.00     0.091 H 
ATOM     64  H   NAG d1177      12.443 -19.742  10.411  0.00  0.00     0.090 H 
ATOM     65  H   NAG d1177      12.849 -17.643  11.380  0.00  0.00     0.132 H 
ATOM     66  C6  NAG d1175      10.423 -12.505  19.345  0.00  0.00     0.043 C 
ATOM     67  O3  NAG d1175      12.743 -16.543  17.788  0.00  0.00    -0.348 OA
ATOM     68  C2  NAG d1175      13.002 -15.857  20.068  0.00  0.00     0.087 C 
ATOM     69  O6  NAG d1175      10.446 -11.464  20.294  0.00  0.00    -0.398 OA
ATOM     70  O1  NAG d1175      12.849 -15.174  22.389  0.00  0.00    -0.369 OA
ATOM     71  C7  NAG d1175      14.301 -17.705  21.002  0.00  0.00     0.214 C 
ATOM     72  N2  NAG d1175      14.251 -16.581  20.285  0.00  0.00    -0.349 N 
ATOM     73  C5  NAG d1175      11.681 -13.344  19.531  0.00  0.00     0.089 C 
ATOM     74  O5  NAG d1175      11.638 -14.013  20.783  0.00  0.00    -0.349 OA
ATOM     75  C4  NAG d1175      11.835 -14.326  18.367  0.00  0.00     0.089 C 
ATOM     76  O4  NAG d1175      12.109 -13.561  17.208  0.00  0.00    -0.390 OA
ATOM     77  O7  NAG d1175      13.604 -18.695  20.750  0.00  0.00    -0.274 OA
ATOM     78  C1  NAG d1175      12.851 -14.695  21.058  0.00  0.00     0.151 C 
ATOM     79  C8  NAG d1175      15.279 -17.712  22.145  0.00  0.00    -0.003 C 
ATOM     80  C3  NAG d1175      12.925 -15.387  18.605  0.00  0.00     0.093 C 
ATOM     81  H   NAG d1175       9.555 -13.113  19.494  0.00  0.00     0.078 H 
ATOM     82  H   NAG d1175      10.390 -12.102  18.354  0.00  0.00     0.078 H 
ATOM     83  H   NAG d1175      12.180 -16.517  20.250  0.00  0.00     0.084 H 
ATOM     84  H   NAG d1175      10.475 -11.842  21.187  0.00  0.00     0.209 HD
ATOM     85  H   NAG d1175      13.682 -15.638  22.566  0.00  0.00     0.212 HD
ATOM     86  H   NAG d1175      15.081 -16.229  19.890  0.00  0.00     0.163 HD
ATOM     87  H   NAG d1175      12.540 -12.706  19.533  0.00  0.00     0.090 H 
ATOM     88  H   NAG d1175      10.928 -14.884  18.258  0.00  0.00     0.091 H 
ATOM     89  H   NAG d1175      12.934 -13.066  17.334  0.00  0.00     0.210 HD
ATOM     90  H   NAG d1175      13.677 -14.023  20.947  0.00  0.00     0.132 H 
ATOM     91  H   NAG d1175      15.780 -16.767  22.192  0.00  0.00     0.040 H 
ATOM     92  H   NAG d1175      15.999 -18.489  21.994  0.00  0.00     0.040 H 
ATOM     93  H   NAG d1175      14.755 -17.884  23.062  0.00  0.00     0.040 H 
ATOM     94  H   NAG d1175      13.838 -14.892  18.345  0.00  0.00     0.091 H 
ATOM     95  C4  NAG d1181       2.460 -13.541  -5.581  0.00  0.00     0.089 C 
ATOM     96  C3  NAG d1181       3.102 -14.775  -6.223  0.00  0.00     0.086 C 
ATOM     97  C6  NAG d1181       2.715 -11.689  -3.875  0.00  0.00     0.043 C 
ATOM     98  C5  NAG d1181       3.437 -12.771  -4.682  0.00  0.00     0.089 C 
ATOM     99  C7  NAG d1181       4.379 -17.912  -5.643  0.00  0.00     0.214 C 
ATOM    100  C8  NAG d1181       4.563 -18.471  -4.258  0.00  0.00    -0.003 C 
ATOM    101  N2  NAG d1181       4.679 -16.625  -5.819  0.00  0.00    -0.349 N 
ATOM    102  O3  NAG d1181       2.107 -15.604  -6.806  0.00  0.00    -0.391 OA
ATOM    103  C1  NAG d1181       4.836 -14.659  -4.387  0.00  0.00     0.154 C 
ATOM    104  O6  NAG d1181       3.641 -10.727  -3.415  0.00  0.00    -0.398 OA
ATOM    105  O5  NAG d1181       4.090 -13.638  -3.770  0.00  0.00    -0.349 OA
ATOM    106  O7  NAG d1181       3.965 -18.621  -6.563  0.00  0.00    -0.274 OA
ATOM    107  O4  NAG d1181       1.979 -12.687  -6.595  0.00  0.00    -0.390 OA
ATOM    108  C2  NAG d1181       3.904 -15.567  -5.188  0.00  0.00     0.087 C 
ATOM    109  H   NAG d1181       1.657 -13.880  -4.960  0.00  0.00     0.091 H 
ATOM    110  H   NAG d1181       3.769 -14.443  -6.990  0.00  0.00     0.090 H 
ATOM    111  H   NAG d1181       2.227 -12.140  -3.036  0.00  0.00     0.078 H 
ATOM    112  H   NAG d1181       1.993 -11.209  -4.501  0.00  0.00     0.078 H 
ATOM    113  H   NAG d1181       4.158 -12.319  -5.332  0.00  0.00     0.090 H 
ATOM    114  H   NAG d1181       4.927 -17.703  -3.609  0.00  0.00     0.040 H 
ATOM    115  H   NAG d1181       5.267 -19.276  -4.290  0.00  0.00     0.040 H 
ATOM    116  H   NAG d1181       3.624 -18.833  -3.891  0.00  0.00     0.040 H 
ATOM    117  H   NAG d1181       5.443 -16.385  -6.391  0.00  0.00     0.163 HD
ATOM    118  H   NAG d1181       1.496 -15.909  -6.117  0.00  0.00     0.210 HD
ATOM    119  H   NAG d1181       5.556 -14.188  -5.024  0.00  0.00     0.132 H 
ATOM    120  H   NAG d1181       4.299 -11.158  -2.847  0.00  0.00     0.209 HD
ATOM    121  H   NAG d1181       2.719 -12.391  -7.146  0.00  0.00     0.210 HD
ATOM    122  H   NAG d1181       3.197 -16.007  -4.516  0.00  0.00     0.084 H 
ATOM    123  C7  NAG d1179       9.428 -15.051   3.213  0.00  0.00     0.214 C 
ATOM    124  C1  NAG d1179      12.384 -16.287   1.967  0.00  0.00     0.154 C 
ATOM    125  C2  NAG d1179      11.146 -15.495   1.567  0.00  0.00     0.087 C 
ATOM    126  O5  NAG d1179      13.466 -15.946   1.127  0.00  0.00    -0.349 OA
ATOM    127  O7  NAG d1179       9.380 -13.839   3.017  0.00  0.00    -0.274 OA
ATOM    128  O4  NAG d1179      11.833 -15.518  -2.112  0.00  0.00    -0.390 OA
ATOM    129  N2  NAG d1179       9.998 -15.902   2.361  0.00  0.00    -0.349 N 
ATOM    130  C8  NAG d1179       8.825 -15.623   4.459  0.00  0.00    -0.003 C 
ATOM    131  O3  NAG d1179       9.886 -14.536  -0.219  0.00  0.00    -0.348 OA
ATOM    132  C4  NAG d1179      12.097 -15.301  -0.742  0.00  0.00     0.089 C 
ATOM    133  C5  NAG d1179      13.221 -16.211  -0.244  0.00  0.00     0.089 C 
ATOM    134  O6  NAG d1179      14.949 -14.671  -0.969  0.00  0.00    -0.398 OA
ATOM    135  C3  NAG d1179      10.832 -15.548   0.073  0.00  0.00     0.093 C 
ATOM    136  C6  NAG d1179      14.519 -16.019  -1.029  0.00  0.00     0.043 C 
ATOM    137  H   NAG d1179      12.265 -17.345   1.866  0.00  0.00     0.132 H 
ATOM    138  H   NAG d1179      11.371 -14.469   1.774  0.00  0.00     0.084 H 
ATOM    139  H   NAG d1179      11.117 -14.930  -2.401  0.00  0.00     0.210 HD
ATOM    140  H   NAG d1179       9.639 -16.814   2.268  0.00  0.00     0.163 HD
ATOM    141  H   NAG d1179       8.957 -16.684   4.465  0.00  0.00     0.040 H 
ATOM    142  H   NAG d1179       7.780 -15.393   4.487  0.00  0.00     0.040 H 
ATOM    143  H   NAG d1179       9.306 -15.199   5.315  0.00  0.00     0.040 H 
ATOM    144  H   NAG d1179      12.410 -14.285  -0.619  0.00  0.00     0.091 H 
ATOM    145  H   NAG d1179      12.903 -17.222  -0.386  0.00  0.00     0.090 H 
ATOM    146  H   NAG d1179      15.772 -14.571  -1.472  0.00  0.00     0.209 HD
ATOM    147  H   NAG d1179      10.443 -16.513  -0.178  0.00  0.00     0.091 H 
ATOM    148  H   NAG d1179      14.353 -16.289  -2.052  0.00  0.00     0.078 H 
ATOM    149  H   NAG d1179      15.276 -16.641  -0.598  0.00  0.00     0.078 H 
ATOM    150  C6  BDP d1180       8.173 -16.385  -4.217  0.00  0.00     0.206 C 
ATOM    151  O3  BDP d1180       5.585 -13.124  -1.557  0.00  0.00    -0.390 OA
ATOM    152  C1  BDP d1180       8.701 -15.055  -0.839  0.00  0.00     0.160 C 
ATOM    153  O2  BDP d1180       7.145 -14.265   0.771  0.00  0.00    -0.388 OA
ATOM    154  C3  BDP d1180       6.309 -14.334  -1.462  0.00  0.00     0.092 C 
ATOM    155  O4  BDP d1180       5.518 -15.473  -3.419  0.00  0.00    -0.348 OA
ATOM    156  O5  BDP d1180       8.905 -15.225  -2.224  0.00  0.00    -0.340 OA
ATOM    157  C5  BDP d1180       7.792 -15.841  -2.838  0.00  0.00     0.152 C 
ATOM    158  O6B BDP d1180       8.739 -15.611  -5.026  0.00  0.00    -0.646 OA
ATOM    159  O6A BDP d1180       7.907 -17.588  -4.456  0.00  0.00    -0.646 OA
ATOM    160  C2  BDP d1180       7.538 -14.098  -0.575  0.00  0.00     0.110 C 
ATOM    161  C4  BDP d1180       6.648 -14.831  -2.871  0.00  0.00     0.103 C 
ATOM    162  H   BDP d1180       5.369 -12.806  -0.666  0.00  0.00     0.210 HD
ATOM    163  H   BDP d1180       8.469 -16.013  -0.422  0.00  0.00     0.133 H 
ATOM    164  H   BDP d1180       7.909 -14.120   1.352  0.00  0.00     0.210 HD
ATOM    165  H   BDP d1180       5.733 -15.108  -1.001  0.00  0.00     0.091 H 
ATOM    166  H   BDP d1180       7.463 -16.691  -2.279  0.00  0.00     0.104 H 
ATOM    167  H   BDP d1180       7.889 -13.112  -0.797  0.00  0.00     0.094 H 
ATOM    168  H   BDP d1180       6.938 -13.986  -3.460  0.00  0.00     0.092 H 
ENDROOT
TORSDOF 43
ENDMDL
MODEL 35
REMARK VINA RESULT:      -6.4      4.532     18.602
REMARK  0 active torsions:
REMARK  status: ('A' for Active; 'I' for Inactive)
REMARK       I    between atoms: C1_1  and  O3_15 
REMARK       I    between atoms: C1_2  and  O3_93 
REMARK       I    between atoms: C6_3  and  C5_89 
REMARK       I    between atoms: C6_3  and  O6_76 
REMARK       I    between atoms: O3_4  and  C3_22 
REMARK       I    between atoms: C6_5  and  C5_48 
REMARK       I    between atoms: C6_5  and  O6_31 
REMARK       I    between atoms: C4_6  and  O4_74 
REMARK       I    between atoms: C7_7  and  C8_62 
REMARK       I    between atoms: C7_7  and  N2_60 
REMARK       I    between atoms: C6_8  and  C5_52 
REMARK       I    between atoms: C3_9  and  O3_38 
REMARK       I    between atoms: C1_10  and  O4_75 
REMARK       I    between atoms: C6_12  and  C5_51 
REMARK       I    between atoms: O3_13  and  C3_42 
REMARK       I    between atoms: O4_14  and  C4_84 
REMARK       I    between atoms: O3_15  and  C3_86 
REMARK       I    between atoms: C6_16  and  C5_23 
REMARK       I    between atoms: C6_16  and  O6_58 
REMARK       I    between atoms: C1_17  and  O3_63 
REMARK       I    between atoms: C2_18  and  N2_60 
REMARK       I    between atoms: C2_19  and  N2_53 
REMARK       I    between atoms: O2_20  and  C2_66 
REMARK       I    between atoms: C3_25  and  O3_93 
REMARK       I    between atoms: C7_26  and  C8_32 
REMARK       I    between atoms: C7_26  and  N2_37 
REMARK       I    between atoms: C2_28  and  N2_44 
REMARK       I    between atoms: C7_29  and  C8_54 
REMARK       I    between atoms: C7_29  and  N2_53 
REMARK       I    between atoms: O1_33  and  C1_80 
REMARK       I    between atoms: O4_34  and  C4_40 
REMARK       I    between atoms: O4_34  and  C1_92 
REMARK       I    between atoms: C7_36  and  C8_81 
REMARK       I    between atoms: C7_36  and  N2_44 
REMARK       I    between atoms: N2_37  and  C2_83 
REMARK       I    between atoms: O3_39  and  C3_61 
REMARK       I    between atoms: C1_41  and  O4_46 
REMARK       I    between atoms: O2_43  and  C2_73 
REMARK       I    between atoms: C6_45  and  C5_87 
REMARK       I    between atoms: O4_46  and  C4_67 
REMARK       I    between atoms: C4_50  and  O4_65 
REMARK       I    between atoms: C2_55  and  O2_82 
REMARK       I    between atoms: O4_57  and  C4_71 
REMARK       I    between atoms: O3_63  and  C3_85 
REMARK       I    between atoms: O4_75  and  C4_91 
REMARK       I    between atoms: C5_77  and  C6_90 
REMARK       I    between atoms: O6_79  and  C6_90 
ROOT
ATOM      1  C1  BDP d1176       8.390 -15.835  -2.415  0.00  0.00     0.160 C 
ATOM      2  O3  BDP d1176       9.446 -12.308  -1.629  0.00  0.00    -0.390 OA
ATOM      3  O5  BDP d1176       8.304 -16.099  -1.043  0.00  0.00    -0.340 OA
ATOM      4  O6A BDP d1176       8.294 -16.079   1.667  0.00  0.00    -0.646 OA
ATOM      5  C3  BDP d1176       9.656 -13.703  -1.695  0.00  0.00     0.092 C 
ATOM      6  O4  BDP d1176      10.905 -13.982   0.320  0.00  0.00    -0.348 OA
ATOM      7  C4  BDP d1176       9.661 -14.275  -0.285  0.00  0.00     0.103 C 
ATOM      8  C6  BDP d1176       9.325 -16.390   1.038  0.00  0.00     0.206 C 
ATOM      9  C2  BDP d1176       8.640 -14.339  -2.642  0.00  0.00     0.110 C 
ATOM     10  O6B BDP d1176      10.230 -17.149   1.442  0.00  0.00    -0.646 OA
ATOM     11  O2  BDP d1176       9.158 -14.162  -3.938  0.00  0.00    -0.388 OA
ATOM     12  C5  BDP d1176       9.472 -15.785  -0.342  0.00  0.00     0.152 C 
ATOM     13  H   BDP d1176       9.203 -16.374  -2.853  0.00  0.00     0.133 H 
ATOM     14  H   BDP d1176       9.442 -11.938  -2.527  0.00  0.00     0.210 HD
ATOM     15  H   BDP d1176      10.614 -13.934  -2.112  0.00  0.00     0.091 H 
ATOM     16  H   BDP d1176       8.863 -13.842   0.282  0.00  0.00     0.092 H 
ATOM     17  H   BDP d1176       7.695 -13.867  -2.475  0.00  0.00     0.094 H 
ATOM     18  H   BDP d1176      10.012 -14.616  -4.009  0.00  0.00     0.210 HD
ATOM     19  H   BDP d1176      10.343 -16.181  -0.822  0.00  0.00     0.104 H 
ATOM     20  C1  BDP d1178      13.322 -12.030   5.220  0.00  0.00     0.160 C 
ATOM     21  C6  BDP d1178      12.020 -10.195   8.192  0.00  0.00     0.206 C 
ATOM     22  O6B BDP d1178      11.344 -10.545   9.189  0.00  0.00    -0.646 OA
ATOM     23  O6A BDP d1178      12.219  -9.002   7.853  0.00  0.00    -0.646 OA
ATOM     24  O3  BDP d1178      16.143 -12.692   7.565  0.00  0.00    -0.390 OA
ATOM     25  O2  BDP d1178      15.461 -13.086   4.874  0.00  0.00    -0.388 OA
ATOM     26  C5  BDP d1178      12.648 -11.325   7.374  0.00  0.00     0.152 C 
ATOM     27  C3  BDP d1178      14.813 -12.607   7.104  0.00  0.00     0.092 C 
ATOM     28  C2  BDP d1178      14.774 -12.151   5.667  0.00  0.00     0.110 C 
ATOM     29  O4  BDP d1178      13.808 -12.301   9.183  0.00  0.00    -0.348 OA
ATOM     30  O5  BDP d1178      12.691 -11.026   5.983  0.00  0.00    -0.340 OA
ATOM     31  C4  BDP d1178      14.017 -11.644   7.967  0.00  0.00     0.103 C 
ATOM     32  H   BDP d1178      12.761 -12.927   5.381  0.00  0.00     0.133 H 
ATOM     33  H   BDP d1178      16.640 -13.310   7.007  0.00  0.00     0.210 HD
ATOM     34  H   BDP d1178      15.442 -12.801   3.948  0.00  0.00     0.210 HD
ATOM     35  H   BDP d1178      12.037 -12.201   7.438  0.00  0.00     0.104 H 
ATOM     36  H   BDP d1178      14.377 -13.582   7.168  0.00  0.00     0.091 H 
ATOM     37  H   BDP d1178      15.245 -11.196   5.565  0.00  0.00     0.094 H 
ATOM     38  H   BDP d1178      14.554 -10.723   8.056  0.00  0.00     0.092 H 
ATOM     39  C6  NAG d1177      10.024  -9.366   1.071  0.00  0.00     0.043 C 
ATOM     40  O4  NAG d1177      11.590  -9.591   3.605  0.00  0.00    -0.390 OA
ATOM     41  C2  NAG d1177      12.092 -12.998   2.167  0.00  0.00     0.087 C 
ATOM     42  C3  NAG d1177      12.067 -11.879   3.200  0.00  0.00     0.093 C 
ATOM     43  C7  NAG d1177      13.181 -15.168   2.587  0.00  0.00     0.214 C 
ATOM     44  N2  NAG d1177      12.246 -14.264   2.869  0.00  0.00    -0.349 N 
ATOM     45  C8  NAG d1177      12.933 -16.531   3.158  0.00  0.00    -0.003 C 
ATOM     46  O7  NAG d1177      14.199 -14.940   1.926  0.00  0.00    -0.274 OA
ATOM     47  O6  NAG d1177      10.303  -9.438  -0.316  0.00  0.00    -0.398 OA
ATOM     48  C4  NAG d1177      11.714 -10.542   2.565  0.00  0.00     0.089 C 
ATOM     49  O5  NAG d1177      10.562 -11.688   0.791  0.00  0.00    -0.349 OA
ATOM     50  C5  NAG d1177      10.421 -10.671   1.760  0.00  0.00     0.089 C 
ATOM     51  C1  NAG d1177      10.808 -12.974   1.337  0.00  0.00     0.154 C 
ATOM     52  O3  NAG d1177      13.333 -11.760   3.807  0.00  0.00    -0.348 OA
ATOM     53  H   NAG d1177      10.578  -8.557   1.500  0.00  0.00     0.078 H 
ATOM     54  H   NAG d1177       8.975  -9.206   1.207  0.00  0.00     0.078 H 
ATOM     55  H   NAG d1177      12.427  -9.536   4.093  0.00  0.00     0.210 HD
ATOM     56  H   NAG d1177      12.912 -12.866   1.493  0.00  0.00     0.084 H 
ATOM     57  H   NAG d1177      11.321 -12.128   3.926  0.00  0.00     0.091 H 
ATOM     58  H   NAG d1177      11.618 -14.464   3.600  0.00  0.00     0.163 HD
ATOM     59  H   NAG d1177      12.007 -16.530   3.695  0.00  0.00     0.040 H 
ATOM     60  H   NAG d1177      13.730 -16.790   3.824  0.00  0.00     0.040 H 
ATOM     61  H   NAG d1177      12.884 -17.247   2.365  0.00  0.00     0.040 H 
ATOM     62  H   NAG d1177      11.253  -9.583  -0.448  0.00  0.00     0.209 HD
ATOM     63  H   NAG d1177      12.478 -10.227   1.885  0.00  0.00     0.091 H 
ATOM     64  H   NAG d1177       9.644 -10.917   2.453  0.00  0.00     0.090 H 
ATOM     65  H   NAG d1177       9.969 -13.190   1.966  0.00  0.00     0.132 H 
ATOM     66  C6  NAG d1175       5.233 -20.687  -2.167  0.00  0.00     0.043 C 
ATOM     67  O3  NAG d1175       7.150 -16.250  -3.031  0.00  0.00    -0.348 OA
ATOM     68  C2  NAG d1175       6.462 -17.602  -4.884  0.00  0.00     0.087 C 
ATOM     69  O6  NAG d1175       5.024 -21.971  -2.709  0.00  0.00    -0.398 OA
ATOM     70  O1  NAG d1175       5.399 -18.986  -6.567  0.00  0.00    -0.369 OA
ATOM     71  C7  NAG d1175       6.787 -16.075  -6.766  0.00  0.00     0.214 C 
ATOM     72  N2  NAG d1175       7.298 -16.919  -5.867  0.00  0.00    -0.349 N 
ATOM     73  C5  NAG d1175       6.068 -19.885  -3.157  0.00  0.00     0.089 C 
ATOM     74  O5  NAG d1175       5.321 -19.646  -4.341  0.00  0.00    -0.349 OA
ATOM     75  C4  NAG d1175       6.541 -18.581  -2.510  0.00  0.00     0.089 C 
ATOM     76  O4  NAG d1175       7.464 -18.928  -1.495  0.00  0.00    -0.390 OA
ATOM     77  O7  NAG d1175       6.101 -15.094  -6.454  0.00  0.00    -0.274 OA
ATOM     78  C1  NAG d1175       6.108 -19.023  -5.343  0.00  0.00     0.151 C 
ATOM     79  C8  NAG d1175       7.106 -16.377  -8.204  0.00  0.00    -0.003 C 
ATOM     80  C3  NAG d1175       7.163 -17.592  -3.515  0.00  0.00     0.093 C 
ATOM     81  H   NAG d1175       4.293 -20.202  -2.009  0.00  0.00     0.078 H 
ATOM     82  H   NAG d1175       5.742 -20.760  -1.228  0.00  0.00     0.078 H 
ATOM     83  H   NAG d1175       5.535 -17.077  -4.789  0.00  0.00     0.084 H 
ATOM     84  H   NAG d1175       4.564 -21.892  -3.559  0.00  0.00     0.209 HD
ATOM     85  H   NAG d1175       5.945 -18.558  -7.244  0.00  0.00     0.212 HD
ATOM     86  H   NAG d1175       8.268 -17.085  -5.866  0.00  0.00     0.163 HD
ATOM     87  H   NAG d1175       6.938 -20.445  -3.430  0.00  0.00     0.090 H 
ATOM     88  H   NAG d1175       5.695 -18.065  -2.106  0.00  0.00     0.091 H 
ATOM     89  H   NAG d1175       8.219 -19.393  -1.889  0.00  0.00     0.210 HD
ATOM     90  H   NAG d1175       7.008 -19.582  -5.497  0.00  0.00     0.132 H 
ATOM     91  H   NAG d1175       7.706 -17.261  -8.259  0.00  0.00     0.040 H 
ATOM     92  H   NAG d1175       7.643 -15.556  -8.630  0.00  0.00     0.040 H 
ATOM     93  H   NAG d1175       6.197 -16.529  -8.747  0.00  0.00     0.040 H 
ATOM     94  H   NAG d1175       8.171 -17.933  -3.632  0.00  0.00     0.091 H 
ATOM     95  C4  NAG d1181       9.603 -12.295  22.251  0.00  0.00     0.089 C 
ATOM     96  C3  NAG d1181      10.208 -10.890  22.159  0.00  0.00     0.086 C 
ATOM     97  C6  NAG d1181       9.409 -14.572  21.166  0.00  0.00     0.043 C 
ATOM     98  C5  NAG d1181      10.190 -13.256  21.208  0.00  0.00     0.089 C 
ATOM     99  C7  NAG d1181      10.418  -8.032  20.263  0.00  0.00     0.214 C 
ATOM    100  C8  NAG d1181       9.829  -7.927  18.883  0.00  0.00    -0.003 C 
ATOM    101  N2  NAG d1181      11.016  -9.181  20.579  0.00  0.00    -0.349 N 
ATOM    102  O3  NAG d1181       9.450  -9.973  22.934  0.00  0.00    -0.391 OA
ATOM    103  C1  NAG d1181      10.887 -11.486  19.798  0.00  0.00     0.154 C 
ATOM    104  O6  NAG d1181      10.192 -15.581  20.560  0.00  0.00    -0.398 OA
ATOM    105  O5  NAG d1181      10.162 -12.687  19.910  0.00  0.00    -0.349 OA
ATOM    106  O7  NAG d1181      10.342  -7.092  21.058  0.00  0.00    -0.274 OA
ATOM    107  O4  NAG d1181       9.824 -12.811  23.545  0.00  0.00    -0.390 OA
ATOM    108  C2  NAG d1181      10.267 -10.422  20.702  0.00  0.00     0.087 C 
ATOM    109  H   NAG d1181       8.556 -12.210  22.052  0.00  0.00     0.091 H 
ATOM    110  H   NAG d1181      11.204 -10.929  22.545  0.00  0.00     0.090 H 
ATOM    111  H   NAG d1181       8.511 -14.434  20.601  0.00  0.00     0.078 H 
ATOM    112  H   NAG d1181       9.169 -14.869  22.165  0.00  0.00     0.078 H 
ATOM    113  H   NAG d1181      11.202 -13.443  21.500  0.00  0.00     0.090 H 
ATOM    114  H   NAG d1181       9.999  -8.840  18.352  0.00  0.00     0.040 H 
ATOM    115  H   NAG d1181      10.292  -7.117  18.358  0.00  0.00     0.040 H 
ATOM    116  H   NAG d1181       8.776  -7.748  18.957  0.00  0.00     0.040 H 
ATOM    117  H   NAG d1181      11.989  -9.189  20.732  0.00  0.00     0.163 HD
ATOM    118  H   NAG d1181       8.543  -9.931  22.591  0.00  0.00     0.210 HD
ATOM    119  H   NAG d1181      11.897 -11.695  20.084  0.00  0.00     0.132 H 
ATOM    120  H   NAG d1181      10.413 -15.316  19.653  0.00  0.00     0.209 HD
ATOM    121  H   NAG d1181      10.778 -12.880  23.706  0.00  0.00     0.210 HD
ATOM    122  H   NAG d1181       9.259 -10.252  20.388  0.00  0.00     0.084 H 
ATOM    123  C7  NAG d1179      11.285 -13.260  11.098  0.00  0.00     0.214 C 
ATOM    124  C1  NAG d1179      14.168 -11.545  10.351  0.00  0.00     0.154 C 
ATOM    125  C2  NAG d1179      13.440 -12.234  11.498  0.00  0.00     0.087 C 
ATOM    126  O5  NAG d1179      15.559 -11.547  10.594  0.00  0.00    -0.349 OA
ATOM    127  O7  NAG d1179      11.576 -14.351  11.585  0.00  0.00    -0.274 OA
ATOM    128  O4  NAG d1179      15.721 -11.021  14.205  0.00  0.00    -0.390 OA
ATOM    129  N2  NAG d1179      12.000 -12.157  11.310  0.00  0.00    -0.349 N 
ATOM    130  C8  NAG d1179      10.075 -13.141  10.222  0.00  0.00    -0.003 C 
ATOM    131  O3  NAG d1179      13.363 -12.648  13.846  0.00  0.00    -0.348 OA
ATOM    132  C4  NAG d1179      15.363 -11.644  12.989  0.00  0.00     0.089 C 
ATOM    133  C5  NAG d1179      15.925 -10.879  11.789  0.00  0.00     0.089 C 
ATOM    134  O6  NAG d1179      18.060 -12.020  11.910  0.00  0.00    -0.398 OA
ATOM    135  C3  NAG d1179      13.844 -11.731  12.881  0.00  0.00     0.093 C 
ATOM    136  C6  NAG d1179      17.447 -10.746  11.841  0.00  0.00     0.043 C 
ATOM    137  H   NAG d1179      13.900 -10.515  10.233  0.00  0.00     0.132 H 
ATOM    138  H   NAG d1179      13.744 -13.259  11.467  0.00  0.00     0.084 H 
ATOM    139  H   NAG d1179      15.353 -11.525  14.947  0.00  0.00     0.210 HD
ATOM    140  H   NAG d1179      11.549 -11.282  11.341  0.00  0.00     0.163 HD
ATOM    141  H   NAG d1179       9.975 -12.130   9.888  0.00  0.00     0.040 H 
ATOM    142  H   NAG d1179       9.204 -13.422  10.777  0.00  0.00     0.040 H 
ATOM    143  H   NAG d1179      10.183 -13.787   9.376  0.00  0.00     0.040 H 
ATOM    144  H   NAG d1179      15.781 -12.628  12.982  0.00  0.00     0.091 H 
ATOM    145  H   NAG d1179      15.512  -9.891  11.815  0.00  0.00     0.090 H 
ATOM    146  H   NAG d1179      19.024 -11.915  11.942  0.00  0.00     0.209 HD
ATOM    147  H   NAG d1179      13.431 -10.758  13.045  0.00  0.00     0.091 H 
ATOM    148  H   NAG d1179      17.720 -10.178  12.706  0.00  0.00     0.078 H 
ATOM    149  H   NAG d1179      17.779 -10.252  10.952  0.00  0.00     0.078 H 
ATOM    150  C6  BDP d1180      13.350  -9.729  17.564  0.00  0.00     0.206 C 
ATOM    151  O3  BDP d1180      10.540 -13.790  17.453  0.00  0.00    -0.390 OA
ATOM    152  C1  BDP d1180      12.519 -12.023  14.825  0.00  0.00     0.160 C 
ATOM    153  O2  BDP d1180      10.590 -13.359  14.459  0.00  0.00    -0.388 OA
ATOM    154  C3  BDP d1180      10.881 -12.635  16.714  0.00  0.00     0.092 C 
ATOM    155  O4  BDP d1180      10.868 -10.982  18.452  0.00  0.00    -0.348 OA
ATOM    156  O5  BDP d1180      13.299 -11.416  15.831  0.00  0.00    -0.340 OA
ATOM    157  C5  BDP d1180      12.495 -10.698  16.744  0.00  0.00     0.152 C 
ATOM    158  O6B BDP d1180      14.367 -10.180  18.145  0.00  0.00    -0.646 OA
ATOM    159  O6A BDP d1180      12.990  -8.528  17.598  0.00  0.00    -0.646 OA
ATOM    160  C2  BDP d1180      11.583 -13.073  15.422  0.00  0.00     0.110 C 
ATOM    161  C4  BDP d1180      11.722 -11.704  17.592  0.00  0.00     0.103 C 
ATOM    162  H   BDP d1180      10.007 -14.383  16.900  0.00  0.00     0.210 HD
ATOM    163  H   BDP d1180      11.935 -11.258  14.357  0.00  0.00     0.133 H 
ATOM    164  H   BDP d1180      11.013 -13.638  13.631  0.00  0.00     0.210 HD
ATOM    165  H   BDP d1180      10.015 -12.076  16.427  0.00  0.00     0.091 H 
ATOM    166  H   BDP d1180      11.783 -10.084  16.233  0.00  0.00     0.104 H 
ATOM    167  H   BDP d1180      12.185 -13.920  15.675  0.00  0.00     0.094 H 
ATOM    168  H   BDP d1180      12.413 -12.305  18.146  0.00  0.00     0.092 H 
ENDROOT
TORSDOF 43
ENDMDL
MODEL 36
REMARK VINA RESULT:      -6.4      6.088      7.912
REMARK  0 active torsions:
REMARK  status: ('A' for Active; 'I' for Inactive)
REMARK       I    between atoms: C1_1  and  O3_15 
REMARK       I    between atoms: C1_2  and  O3_93 
REMARK       I    between atoms: C6_3  and  C5_89 
REMARK       I    between atoms: C6_3  and  O6_76 
REMARK       I    between atoms: O3_4  and  C3_22 
REMARK       I    between atoms: C6_5  and  C5_48 
REMARK       I    between atoms: C6_5  and  O6_31 
REMARK       I    between atoms: C4_6  and  O4_74 
REMARK       I    between atoms: C7_7  and  C8_62 
REMARK       I    between atoms: C7_7  and  N2_60 
REMARK       I    between atoms: C6_8  and  C5_52 
REMARK       I    between atoms: C3_9  and  O3_38 
REMARK       I    between atoms: C1_10  and  O4_75 
REMARK       I    between atoms: C6_12  and  C5_51 
REMARK       I    between atoms: O3_13  and  C3_42 
REMARK       I    between atoms: O4_14  and  C4_84 
REMARK       I    between atoms: O3_15  and  C3_86 
REMARK       I    between atoms: C6_16  and  C5_23 
REMARK       I    between atoms: C6_16  and  O6_58 
REMARK       I    between atoms: C1_17  and  O3_63 
REMARK       I    between atoms: C2_18  and  N2_60 
REMARK       I    between atoms: C2_19  and  N2_53 
REMARK       I    between atoms: O2_20  and  C2_66 
REMARK       I    between atoms: C3_25  and  O3_93 
REMARK       I    between atoms: C7_26  and  C8_32 
REMARK       I    between atoms: C7_26  and  N2_37 
REMARK       I    between atoms: C2_28  and  N2_44 
REMARK       I    between atoms: C7_29  and  C8_54 
REMARK       I    between atoms: C7_29  and  N2_53 
REMARK       I    between atoms: O1_33  and  C1_80 
REMARK       I    between atoms: O4_34  and  C4_40 
REMARK       I    between atoms: O4_34  and  C1_92 
REMARK       I    between atoms: C7_36  and  C8_81 
REMARK       I    between atoms: C7_36  and  N2_44 
REMARK       I    between atoms: N2_37  and  C2_83 
REMARK       I    between atoms: O3_39  and  C3_61 
REMARK       I    between atoms: C1_41  and  O4_46 
REMARK       I    between atoms: O2_43  and  C2_73 
REMARK       I    between atoms: C6_45  and  C5_87 
REMARK       I    between atoms: O4_46  and  C4_67 
REMARK       I    between atoms: C4_50  and  O4_65 
REMARK       I    between atoms: C2_55  and  O2_82 
REMARK       I    between atoms: O4_57  and  C4_71 
REMARK       I    between atoms: O3_63  and  C3_85 
REMARK       I    between atoms: O4_75  and  C4_91 
REMARK       I    between atoms: C5_77  and  C6_90 
REMARK       I    between atoms: O6_79  and  C6_90 
ROOT
ATOM      1  C1  BDP d1176      13.928 -16.024  16.918  0.00  0.00     0.160 C 
ATOM      2  O3  BDP d1176      13.745 -19.295  15.063  0.00  0.00    -0.390 OA
ATOM      3  O5  BDP d1176      13.345 -15.385  15.817  0.00  0.00    -0.340 OA
ATOM      4  O6A BDP d1176      12.215 -14.657  13.464  0.00  0.00    -0.646 OA
ATOM      5  C3  BDP d1176      14.271 -18.005  15.298  0.00  0.00     0.092 C 
ATOM      6  O4  BDP d1176      14.606 -17.326  13.034  0.00  0.00    -0.348 OA
ATOM      7  C4  BDP d1176      13.822 -17.071  14.184  0.00  0.00     0.103 C 
ATOM      8  C6  BDP d1176      13.454 -14.650  13.602  0.00  0.00     0.206 C 
ATOM      9  C2  BDP d1176      13.907 -17.543  16.707  0.00  0.00     0.110 C 
ATOM     10  O6B BDP d1176      14.257 -13.917  12.988  0.00  0.00    -0.646 OA
ATOM     11  O2  BDP d1176      14.859 -18.127  17.563  0.00  0.00    -0.388 OA
ATOM     12  C5  BDP d1176      14.018 -15.624  14.615  0.00  0.00     0.152 C 
ATOM     13  H   BDP d1176      14.947 -15.722  17.033  0.00  0.00     0.133 H 
ATOM     14  H   BDP d1176      14.029 -19.894  15.772  0.00  0.00     0.210 HD
ATOM     15  H   BDP d1176      15.341 -18.008  15.269  0.00  0.00     0.091 H 
ATOM     16  H   BDP d1176      12.787 -17.238  13.969  0.00  0.00     0.092 H 
ATOM     17  H   BDP d1176      12.898 -17.840  16.901  0.00  0.00     0.094 H 
ATOM     18  H   BDP d1176      15.745 -17.810  17.325  0.00  0.00     0.210 HD
ATOM     19  H   BDP d1176      15.073 -15.478  14.713  0.00  0.00     0.104 H 
ATOM     20  C1  BDP d1178      14.282 -18.117   7.296  0.00  0.00     0.160 C 
ATOM     21  C6  BDP d1178      11.497 -18.903   4.947  0.00  0.00     0.206 C 
ATOM     22  O6B BDP d1178      10.567 -18.217   4.458  0.00  0.00    -0.646 OA
ATOM     23  O6A BDP d1178      11.544 -20.157   4.917  0.00  0.00    -0.646 OA
ATOM     24  O3  BDP d1178      15.955 -17.160   4.104  0.00  0.00    -0.390 OA
ATOM     25  O2  BDP d1178      16.551 -17.447   6.829  0.00  0.00    -0.388 OA
ATOM     26  C5  BDP d1178      12.642 -18.120   5.593  0.00  0.00     0.152 C 
ATOM     27  C3  BDP d1178      14.952 -17.217   5.094  0.00  0.00     0.092 C 
ATOM     28  C2  BDP d1178      15.408 -18.044   6.270  0.00  0.00     0.110 C 
ATOM     29  O4  BDP d1178      13.138 -16.822   3.685  0.00  0.00    -0.348 OA
ATOM     30  O5  BDP d1178      13.185 -18.793   6.723  0.00  0.00    -0.340 OA
ATOM     31  C4  BDP d1178      13.677 -17.808   4.518  0.00  0.00     0.103 C 
ATOM     32  H   BDP d1178      13.922 -17.152   7.587  0.00  0.00     0.133 H 
ATOM     33  H   BDP d1178      16.763 -16.781   4.483  0.00  0.00     0.210 HD
ATOM     34  H   BDP d1178      16.852 -17.972   7.587  0.00  0.00     0.210 HD
ATOM     35  H   BDP d1178      12.271 -17.196   5.988  0.00  0.00     0.104 H 
ATOM     36  H   BDP d1178      14.759 -16.219   5.428  0.00  0.00     0.091 H 
ATOM     37  H   BDP d1178      15.652 -19.037   5.957  0.00  0.00     0.094 H 
ATOM     38  H   BDP d1178      13.908 -18.724   4.015  0.00  0.00     0.092 H 
ATOM     39  C6  NAG d1177      12.484 -21.426  11.878  0.00  0.00     0.043 C 
ATOM     40  O4  NAG d1177      12.873 -20.692   9.008  0.00  0.00    -0.390 OA
ATOM     41  C2  NAG d1177      14.671 -17.893  10.696  0.00  0.00     0.087 C 
ATOM     42  C3  NAG d1177      13.973 -18.673   9.591  0.00  0.00     0.093 C 
ATOM     43  C7  NAG d1177      15.947 -15.830  10.261  0.00  0.00     0.214 C 
ATOM     44  N2  NAG d1177      14.803 -16.508  10.265  0.00  0.00    -0.349 N 
ATOM     45  C8  NAG d1177      15.798 -14.343  10.145  0.00  0.00    -0.003 C 
ATOM     46  O7  NAG d1177      17.068 -16.345  10.328  0.00  0.00    -0.274 OA
ATOM     47  O6  NAG d1177      13.318 -21.771  12.969  0.00  0.00    -0.398 OA
ATOM     48  C4  NAG d1177      13.624 -20.084  10.041  0.00  0.00     0.089 C 
ATOM     49  O5  NAG d1177      13.594 -19.347  12.332  0.00  0.00    -0.349 OA
ATOM     50  C5  NAG d1177      12.843 -20.036  11.354  0.00  0.00     0.089 C 
ATOM     51  C1  NAG d1177      13.875 -17.997  11.998  0.00  0.00     0.154 C 
ATOM     52  O3  NAG d1177      14.814 -18.764   8.465  0.00  0.00    -0.348 OA
ATOM     53  H   NAG d1177      12.614 -22.143  11.095  0.00  0.00     0.078 H 
ATOM     54  H   NAG d1177      11.465 -21.422  12.206  0.00  0.00     0.078 H 
ATOM     55  H   NAG d1177      13.397 -20.706   8.193  0.00  0.00     0.210 HD
ATOM     56  H   NAG d1177      15.645 -18.297  10.883  0.00  0.00     0.084 H 
ATOM     57  H   NAG d1177      13.071 -18.151   9.350  0.00  0.00     0.091 H 
ATOM     58  H   NAG d1177      13.992 -16.044   9.956  0.00  0.00     0.163 HD
ATOM     59  H   NAG d1177      14.759 -14.090  10.101  0.00  0.00     0.040 H 
ATOM     60  H   NAG d1177      16.286 -14.003   9.256  0.00  0.00     0.040 H 
ATOM     61  H   NAG d1177      16.242 -13.872  10.998  0.00  0.00     0.040 H 
ATOM     62  H   NAG d1177      14.244 -21.776  12.681  0.00  0.00     0.209 HD
ATOM     63  H   NAG d1177      14.508 -20.659  10.223  0.00  0.00     0.091 H 
ATOM     64  H   NAG d1177      11.926 -19.522  11.155  0.00  0.00     0.090 H 
ATOM     65  H   NAG d1177      12.924 -17.523  11.875  0.00  0.00     0.132 H 
ATOM     66  C6  NAG d1175      12.126 -10.964  19.090  0.00  0.00     0.043 C 
ATOM     67  O3  NAG d1175      13.180 -15.656  18.099  0.00  0.00    -0.348 OA
ATOM     68  C2  NAG d1175      13.640 -14.797  20.286  0.00  0.00     0.087 C 
ATOM     69  O6  NAG d1175      12.452  -9.864  19.908  0.00  0.00    -0.398 OA
ATOM     70  O1  NAG d1175      13.705 -13.817  22.503  0.00  0.00    -0.369 OA
ATOM     71  C7  NAG d1175      14.360 -16.809  21.473  0.00  0.00     0.214 C 
ATOM     72  N2  NAG d1175      14.629 -15.815  20.625  0.00  0.00    -0.349 N 
ATOM     73  C5  NAG d1175      13.091 -12.098  19.413  0.00  0.00     0.089 C 
ATOM     74  O5  NAG d1175      12.866 -12.566  20.735  0.00  0.00    -0.349 OA
ATOM     75  C4  NAG d1175      12.950 -13.218  18.381  0.00  0.00     0.089 C 
ATOM     76  O4  NAG d1175      13.424 -12.712  17.146  0.00  0.00    -0.390 OA
ATOM     77  O7  NAG d1175      13.406 -17.582  21.322  0.00  0.00    -0.274 OA
ATOM     78  C1  NAG d1175      13.834 -13.527  21.125  0.00  0.00     0.151 C 
ATOM     79  C8  NAG d1175      15.302 -16.953  22.637  0.00  0.00    -0.003 C 
ATOM     80  C3  NAG d1175      13.691 -14.509  18.776  0.00  0.00     0.093 C 
ATOM     81  H   NAG d1175      11.121 -11.276  19.286  0.00  0.00     0.078 H 
ATOM     82  H   NAG d1175      12.204 -10.694  18.058  0.00  0.00     0.078 H 
ATOM     83  H   NAG d1175      12.664 -15.166  20.523  0.00  0.00     0.084 H 
ATOM     84  H   NAG d1175      12.378 -10.121  20.841  0.00  0.00     0.209 HD
ATOM     85  H   NAG d1175      14.370 -14.474  22.759  0.00  0.00     0.212 HD
ATOM     86  H   NAG d1175      15.523 -15.766  20.215  0.00  0.00     0.163 HD
ATOM     87  H   NAG d1175      14.097 -11.737  19.364  0.00  0.00     0.090 H 
ATOM     88  H   NAG d1175      11.920 -13.503  18.313  0.00  0.00     0.091 H 
ATOM     89  H   NAG d1175      14.357 -12.463  17.236  0.00  0.00     0.210 HD
ATOM     90  H   NAG d1175      14.818 -13.138  20.958  0.00  0.00     0.132 H 
ATOM     91  H   NAG d1175      16.053 -16.192  22.585  0.00  0.00     0.040 H 
ATOM     92  H   NAG d1175      15.768 -17.915  22.601  0.00  0.00     0.040 H 
ATOM     93  H   NAG d1175      14.757 -16.854  23.552  0.00  0.00     0.040 H 
ATOM     94  H   NAG d1175      14.706 -14.331  18.486  0.00  0.00     0.091 H 
ATOM     95  C4  NAG d1181       4.037 -12.754  -5.752  0.00  0.00     0.089 C 
ATOM     96  C3  NAG d1181       4.294 -14.189  -6.222  0.00  0.00     0.086 C 
ATOM     97  C6  NAG d1181       4.823 -10.856  -4.274  0.00  0.00     0.043 C 
ATOM     98  C5  NAG d1181       5.200 -12.190  -4.924  0.00  0.00     0.089 C 
ATOM     99  C7  NAG d1181       4.621 -17.463  -5.232  0.00  0.00     0.214 C 
ATOM    100  C8  NAG d1181       4.645 -17.876  -3.785  0.00  0.00    -0.003 C 
ATOM    101  N2  NAG d1181       5.276 -16.348  -5.553  0.00  0.00    -0.349 N 
ATOM    102  O3  NAG d1181       3.099 -14.765  -6.730  0.00  0.00    -0.391 OA
ATOM    103  C1  NAG d1181       6.000 -14.347  -4.363  0.00  0.00     0.154 C 
ATOM    104  O6  NAG d1181       5.990 -10.149  -3.906  0.00  0.00    -0.398 OA
ATOM    105  O5  NAG d1181       5.583 -13.087  -3.896  0.00  0.00    -0.349 OA
ATOM    106  O7  NAG d1181       4.014 -18.133  -6.072  0.00  0.00    -0.274 OA
ATOM    107  O4  NAG d1181       3.814 -11.930  -6.875  0.00  0.00    -0.390 OA
ATOM    108  C2  NAG d1181       4.842 -15.043  -5.076  0.00  0.00     0.087 C 
ATOM    109  H   NAG d1181       3.174 -12.770  -5.118  0.00  0.00     0.091 H 
ATOM    110  H   NAG d1181       5.023 -14.159  -7.004  0.00  0.00     0.090 H 
ATOM    111  H   NAG d1181       4.232 -11.041  -3.402  0.00  0.00     0.078 H 
ATOM    112  H   NAG d1181       4.265 -10.270  -4.974  0.00  0.00     0.078 H 
ATOM    113  H   NAG d1181       6.016 -12.046  -5.602  0.00  0.00     0.090 H 
ATOM    114  H   NAG d1181       5.219 -17.170  -3.222  0.00  0.00     0.040 H 
ATOM    115  H   NAG d1181       5.089 -18.846  -3.699  0.00  0.00     0.040 H 
ATOM    116  H   NAG d1181       3.645 -17.907  -3.405  0.00  0.00     0.040 H 
ATOM    117  H   NAG d1181       6.074 -16.408  -6.127  0.00  0.00     0.163 HD
ATOM    118  H   NAG d1181       2.431 -14.796  -6.027  0.00  0.00     0.210 HD
ATOM    119  H   NAG d1181       6.821 -14.184  -5.031  0.00  0.00     0.132 H 
ATOM    120  H   NAG d1181       6.500 -10.676  -3.272  0.00  0.00     0.209 HD
ATOM    121  H   NAG d1181       4.605 -11.928  -7.435  0.00  0.00     0.210 HD
ATOM    122  H   NAG d1181       4.043 -15.177  -4.377  0.00  0.00     0.084 H 
ATOM    123  C7  NAG d1179      10.336 -15.092   3.359  0.00  0.00     0.214 C 
ATOM    124  C1  NAG d1179      12.806 -17.264   2.358  0.00  0.00     0.154 C 
ATOM    125  C2  NAG d1179      11.844 -16.208   1.829  0.00  0.00     0.087 C 
ATOM    126  O5  NAG d1179      13.934 -17.353   1.515  0.00  0.00    -0.349 OA
ATOM    127  O7  NAG d1179      10.637 -13.950   3.018  0.00  0.00    -0.274 OA
ATOM    128  O4  NAG d1179      12.471 -16.881  -1.798  0.00  0.00    -0.390 OA
ATOM    129  N2  NAG d1179      10.633 -16.169   2.633  0.00  0.00    -0.349 N 
ATOM    130  C8  NAG d1179       9.603 -15.310   4.647  0.00  0.00    -0.003 C 
ATOM    131  O3  NAG d1179      10.901 -15.157  -0.094  0.00  0.00    -0.348 OA
ATOM    132  C4  NAG d1179      12.795 -16.580  -0.457  0.00  0.00     0.089 C 
ATOM    133  C5  NAG d1179      13.615 -17.704   0.180  0.00  0.00     0.089 C 
ATOM    134  O6  NAG d1179      15.706 -16.824  -0.674  0.00  0.00    -0.398 OA
ATOM    135  C3  NAG d1179      11.518 -16.353   0.345  0.00  0.00     0.093 C 
ATOM    136  C6  NAG d1179      14.908 -17.990  -0.585  0.00  0.00     0.043 C 
ATOM    137  H   NAG d1179      12.387 -18.249   2.381  0.00  0.00     0.132 H 
ATOM    138  H   NAG d1179      12.355 -15.272   1.918  0.00  0.00     0.084 H 
ATOM    139  H   NAG d1179      11.952 -16.153  -2.176  0.00  0.00     0.210 HD
ATOM    140  H   NAG d1179      10.026 -16.944   2.640  0.00  0.00     0.163 HD
ATOM    141  H   NAG d1179       9.425 -16.355   4.784  0.00  0.00     0.040 H 
ATOM    142  H   NAG d1179       8.668 -14.789   4.617  0.00  0.00     0.040 H 
ATOM    143  H   NAG d1179      10.191 -14.938   5.460  0.00  0.00     0.040 H 
ATOM    144  H   NAG d1179      13.388 -15.689  -0.448  0.00  0.00     0.091 H 
ATOM    145  H   NAG d1179      13.018 -18.592   0.151  0.00  0.00     0.090 H 
ATOM    146  H   NAG d1179      16.520 -17.026  -1.162  0.00  0.00     0.209 HD
ATOM    147  H   NAG d1179      10.867 -17.190   0.200  0.00  0.00     0.091 H 
ATOM    148  H   NAG d1179      14.665 -18.325  -1.572  0.00  0.00     0.078 H 
ATOM    149  H   NAG d1179      15.457 -18.744  -0.060  0.00  0.00     0.078 H 
ATOM    150  C6  BDP d1180       8.702 -16.919  -3.889  0.00  0.00     0.206 C 
ATOM    151  O3  BDP d1180       7.177 -12.753  -1.718  0.00  0.00    -0.390 OA
ATOM    152  C1  BDP d1180       9.612 -15.389  -0.682  0.00  0.00     0.160 C 
ATOM    153  O2  BDP d1180       8.359 -13.995   0.776  0.00  0.00    -0.388 OA
ATOM    154  C3  BDP d1180       7.524 -14.098  -1.457  0.00  0.00     0.092 C 
ATOM    155  O4  BDP d1180       6.426 -15.196  -3.285  0.00  0.00    -0.348 OA
ATOM    156  O5  BDP d1180       9.750 -15.780  -2.030  0.00  0.00    -0.340 OA
ATOM    157  C5  BDP d1180       8.503 -16.123  -2.598  0.00  0.00     0.152 C 
ATOM    158  O6B BDP d1180       9.462 -16.445  -4.769  0.00  0.00    -0.646 OA
ATOM    159  O6A BDP d1180       8.102 -18.016  -3.990  0.00  0.00    -0.646 OA
ATOM    160  C2  BDP d1180       8.775 -14.115  -0.569  0.00  0.00     0.110 C 
ATOM    161  C4  BDP d1180       7.696 -14.841  -2.786  0.00  0.00     0.103 C 
ATOM    162  H   BDP d1180       7.067 -12.279  -0.878  0.00  0.00     0.210 HD
ATOM    163  H   BDP d1180       9.118 -16.181  -0.160  0.00  0.00     0.133 H 
ATOM    164  H   BDP d1180       9.136 -14.004   1.356  0.00  0.00     0.210 HD
ATOM    165  H   BDP d1180       6.753 -14.612  -0.923  0.00  0.00     0.091 H 
ATOM    166  H   BDP d1180       7.947 -16.768  -1.950  0.00  0.00     0.104 H 
ATOM    167  H   BDP d1180       9.392 -13.305  -0.897  0.00  0.00     0.094 H 
ATOM    168  H   BDP d1180       8.213 -14.193  -3.463  0.00  0.00     0.092 H 
ENDROOT
TORSDOF 43
ENDMDL
MODEL 37
REMARK VINA RESULT:      -6.3      3.496     19.519
REMARK  0 active torsions:
REMARK  status: ('A' for Active; 'I' for Inactive)
REMARK       I    between atoms: C1_1  and  O3_15 
REMARK       I    between atoms: C1_2  and  O3_93 
REMARK       I    between atoms: C6_3  and  C5_89 
REMARK       I    between atoms: C6_3  and  O6_76 
REMARK       I    between atoms: O3_4  and  C3_22 
REMARK       I    between atoms: C6_5  and  C5_48 
REMARK       I    between atoms: C6_5  and  O6_31 
REMARK       I    between atoms: C4_6  and  O4_74 
REMARK       I    between atoms: C7_7  and  C8_62 
REMARK       I    between atoms: C7_7  and  N2_60 
REMARK       I    between atoms: C6_8  and  C5_52 
REMARK       I    between atoms: C3_9  and  O3_38 
REMARK       I    between atoms: C1_10  and  O4_75 
REMARK       I    between atoms: C6_12  and  C5_51 
REMARK       I    between atoms: O3_13  and  C3_42 
REMARK       I    between atoms: O4_14  and  C4_84 
REMARK       I    between atoms: O3_15  and  C3_86 
REMARK       I    between atoms: C6_16  and  C5_23 
REMARK       I    between atoms: C6_16  and  O6_58 
REMARK       I    between atoms: C1_17  and  O3_63 
REMARK       I    between atoms: C2_18  and  N2_60 
REMARK       I    between atoms: C2_19  and  N2_53 
REMARK       I    between atoms: O2_20  and  C2_66 
REMARK       I    between atoms: C3_25  and  O3_93 
REMARK       I    between atoms: C7_26  and  C8_32 
REMARK       I    between atoms: C7_26  and  N2_37 
REMARK       I    between atoms: C2_28  and  N2_44 
REMARK       I    between atoms: C7_29  and  C8_54 
REMARK       I    between atoms: C7_29  and  N2_53 
REMARK       I    between atoms: O1_33  and  C1_80 
REMARK       I    between atoms: O4_34  and  C4_40 
REMARK       I    between atoms: O4_34  and  C1_92 
REMARK       I    between atoms: C7_36  and  C8_81 
REMARK       I    between atoms: C7_36  and  N2_44 
REMARK       I    between atoms: N2_37  and  C2_83 
REMARK       I    between atoms: O3_39  and  C3_61 
REMARK       I    between atoms: C1_41  and  O4_46 
REMARK       I    between atoms: O2_43  and  C2_73 
REMARK       I    between atoms: C6_45  and  C5_87 
REMARK       I    between atoms: O4_46  and  C4_67 
REMARK       I    between atoms: C4_50  and  O4_65 
REMARK       I    between atoms: C2_55  and  O2_82 
REMARK       I    between atoms: O4_57  and  C4_71 
REMARK       I    between atoms: O3_63  and  C3_85 
REMARK       I    between atoms: O4_75  and  C4_91 
REMARK       I    between atoms: C5_77  and  C6_90 
REMARK       I    between atoms: O6_79  and  C6_90 
ROOT
ATOM      1  C1  BDP d1176      13.134 -15.387   1.704  0.00  0.00     0.160 C 
ATOM      2  O3  BDP d1176      11.865 -12.070   2.955  0.00  0.00    -0.390 OA
ATOM      3  O5  BDP d1176      12.575 -16.007   2.828  0.00  0.00    -0.340 OA
ATOM      4  O6A BDP d1176      11.330 -16.694   5.135  0.00  0.00    -0.646 OA
ATOM      5  C3  BDP d1176      12.727 -13.189   2.997  0.00  0.00     0.092 C 
ATOM      6  O4  BDP d1176      12.884 -13.444   5.365  0.00  0.00    -0.348 OA
ATOM      7  C4  BDP d1176      12.367 -14.052   4.197  0.00  0.00     0.103 C 
ATOM      8  C6  BDP d1176      12.537 -16.383   5.133  0.00  0.00     0.206 C 
ATOM      9  C2  BDP d1176      12.702 -13.916   1.654  0.00  0.00     0.110 C 
ATOM     10  O6B BDP d1176      13.399 -16.783   5.943  0.00  0.00    -0.646 OA
ATOM     11  O2  BDP d1176      13.592 -13.215   0.820  0.00  0.00    -0.388 OA
ATOM     12  C5  BDP d1176      12.982 -15.437   4.038  0.00  0.00     0.152 C 
ATOM     13  H   BDP d1176      14.202 -15.413   1.750  0.00  0.00     0.133 H 
ATOM     14  H   BDP d1176      12.090 -11.517   2.191  0.00  0.00     0.210 HD
ATOM     15  H   BDP d1176      13.745 -12.892   3.139  0.00  0.00     0.091 H 
ATOM     16  H   BDP d1176      11.304 -14.146   4.269  0.00  0.00     0.092 H 
ATOM     17  H   BDP d1176      11.690 -13.932   1.306  0.00  0.00     0.094 H 
ATOM     18  H   BDP d1176      14.483 -13.245   1.200  0.00  0.00     0.210 HD
ATOM     19  H   BDP d1176      14.042 -15.303   4.078  0.00  0.00     0.104 H 
ATOM     20  C1  BDP d1178      11.530 -12.014  10.822  0.00  0.00     0.160 C 
ATOM     21  C6  BDP d1178       8.322 -11.707  12.694  0.00  0.00     0.206 C 
ATOM     22  O6B BDP d1178       7.532 -12.547  13.189  0.00  0.00    -0.646 OA
ATOM     23  O6A BDP d1178       8.047 -10.494  12.520  0.00  0.00    -0.646 OA
ATOM     24  O3  BDP d1178      12.900 -12.048  14.289  0.00  0.00    -0.390 OA
ATOM     25  O2  BDP d1178      13.799 -11.976  11.635  0.00  0.00    -0.388 OA
ATOM     26  C5  BDP d1178       9.709 -12.229  12.315  0.00  0.00     0.152 C 
ATOM     27  C3  BDP d1178      12.073 -12.398  13.203  0.00  0.00     0.092 C 
ATOM     28  C2  BDP d1178      12.474 -11.643  11.961  0.00  0.00     0.110 C 
ATOM     29  O4  BDP d1178      10.229 -13.078  14.455  0.00  0.00    -0.348 OA
ATOM     30  O5  BDP d1178      10.226 -11.591  11.153  0.00  0.00    -0.340 OA
ATOM     31  C4  BDP d1178      10.619 -12.102  13.531  0.00  0.00     0.103 C 
ATOM     32  H   BDP d1178      11.470 -13.070  10.660  0.00  0.00     0.133 H 
ATOM     33  H   BDP d1178      13.824 -12.242  14.067  0.00  0.00     0.210 HD
ATOM     34  H   BDP d1178      14.067 -11.495  10.836  0.00  0.00     0.210 HD
ATOM     35  H   BDP d1178       9.645 -13.262  12.043  0.00  0.00     0.104 H 
ATOM     36  H   BDP d1178      12.187 -13.446  13.021  0.00  0.00     0.091 H 
ATOM     37  H   BDP d1178      12.412 -10.588  12.127  0.00  0.00     0.094 H 
ATOM     38  H   BDP d1178      10.536 -11.100  13.896  0.00  0.00     0.092 H 
ATOM     39  C6  NAG d1177       9.653  -9.957   5.586  0.00  0.00     0.043 C 
ATOM     40  O4  NAG d1177       9.787 -10.169   8.562  0.00  0.00    -0.390 OA
ATOM     41  C2  NAG d1177      12.459 -12.575   7.568  0.00  0.00     0.087 C 
ATOM     42  C3  NAG d1177      11.432 -11.873   8.446  0.00  0.00     0.093 C 
ATOM     43  C7  NAG d1177      14.134 -14.138   8.476  0.00  0.00     0.214 C 
ATOM     44  N2  NAG d1177      12.869 -13.802   8.237  0.00  0.00    -0.349 N 
ATOM     45  C8  NAG d1177      14.348 -15.581   8.823  0.00  0.00    -0.003 C 
ATOM     46  O7  NAG d1177      15.087 -13.353   8.445  0.00  0.00    -0.274 OA
ATOM     47  O6  NAG d1177      10.525  -9.547   4.547  0.00  0.00    -0.398 OA
ATOM     48  C4  NAG d1177      10.810 -10.682   7.732  0.00  0.00     0.089 C 
ATOM     49  O5  NAG d1177      11.305 -11.698   5.607  0.00  0.00    -0.349 OA
ATOM     50  C5  NAG d1177      10.269 -11.115   6.370  0.00  0.00     0.089 C 
ATOM     51  C1  NAG d1177      11.863 -12.864   6.190  0.00  0.00     0.154 C 
ATOM     52  O3  NAG d1177      12.048 -11.409   9.625  0.00  0.00    -0.348 OA
ATOM     53  H   NAG d1177       9.482  -9.134   6.247  0.00  0.00     0.078 H 
ATOM     54  H   NAG d1177       8.728 -10.280   5.155  0.00  0.00     0.078 H 
ATOM     55  H   NAG d1177      10.165  -9.905   9.415  0.00  0.00     0.210 HD
ATOM     56  H   NAG d1177      13.316 -11.951   7.422  0.00  0.00     0.084 H 
ATOM     57  H   NAG d1177      10.665 -12.583   8.674  0.00  0.00     0.091 H 
ATOM     58  H   NAG d1177      12.164 -14.423   8.531  0.00  0.00     0.163 HD
ATOM     59  H   NAG d1177      13.411 -16.097   8.797  0.00  0.00     0.040 H 
ATOM     60  H   NAG d1177      14.768 -15.654   9.804  0.00  0.00     0.040 H 
ATOM     61  H   NAG d1177      15.017 -16.023   8.114  0.00  0.00     0.040 H 
ATOM     62  H   NAG d1177      11.367  -9.253   4.928  0.00  0.00     0.209 HD
ATOM     63  H   NAG d1177      11.538  -9.919   7.552  0.00  0.00     0.091 H 
ATOM     64  H   NAG d1177       9.491 -11.827   6.553  0.00  0.00     0.090 H 
ATOM     65  H   NAG d1177      11.054 -13.558   6.288  0.00  0.00     0.132 H 
ATOM     66  C6  NAG d1175      13.002 -20.988   0.228  0.00  0.00     0.043 C 
ATOM     67  O3  NAG d1175      12.685 -16.097   0.528  0.00  0.00    -0.348 OA
ATOM     68  C2  NAG d1175      13.663 -17.083  -1.423  0.00  0.00     0.087 C 
ATOM     69  O6  NAG d1175      13.711 -22.057  -0.355  0.00  0.00    -0.398 OA
ATOM     70  O1  NAG d1175      14.298 -18.294  -3.425  0.00  0.00    -0.369 OA
ATOM     71  C7  NAG d1175      14.021 -15.127  -2.846  0.00  0.00     0.214 C 
ATOM     72  N2  NAG d1175      14.404 -15.889  -1.820  0.00  0.00    -0.349 N 
ATOM     73  C5  NAG d1175      13.688 -19.688  -0.175  0.00  0.00     0.089 C 
ATOM     74  O5  NAG d1175      13.550 -19.479  -1.573  0.00  0.00    -0.349 OA
ATOM     75  C4  NAG d1175      13.119 -18.521   0.635  0.00  0.00     0.089 C 
ATOM     76  O4  NAG d1175      13.518 -18.710   1.980  0.00  0.00    -0.390 OA
ATOM     77  O7  NAG d1175      12.892 -14.629  -2.929  0.00  0.00    -0.274 OA
ATOM     78  C1  NAG d1175      14.292 -18.353  -2.012  0.00  0.00     0.151 C 
ATOM     79  C8  NAG d1175      15.058 -14.890  -3.910  0.00  0.00    -0.003 C 
ATOM     80  C3  NAG d1175      13.562 -17.142   0.111  0.00  0.00     0.093 C 
ATOM     81  H   NAG d1175      11.991 -20.988  -0.124  0.00  0.00     0.078 H 
ATOM     82  H   NAG d1175      12.992 -21.086   1.293  0.00  0.00     0.078 H 
ATOM     83  H   NAG d1175      12.672 -17.026  -1.821  0.00  0.00     0.084 H 
ATOM     84  H   NAG d1175      13.713 -21.956  -1.320  0.00  0.00     0.209 HD
ATOM     85  H   NAG d1175      14.807 -17.522  -3.715  0.00  0.00     0.212 HD
ATOM     86  H   NAG d1175      15.211 -15.639  -1.314  0.00  0.00     0.163 HD
ATOM     87  H   NAG d1175      14.734 -19.753   0.042  0.00  0.00     0.090 H 
ATOM     88  H   NAG d1175      12.052 -18.519   0.543  0.00  0.00     0.091 H 
ATOM     89  H   NAG d1175      14.487 -18.707   2.033  0.00  0.00     0.210 HD
ATOM     90  H   NAG d1175      15.306 -18.435  -1.678  0.00  0.00     0.132 H 
ATOM     91  H   NAG d1175      15.960 -15.404  -3.651  0.00  0.00     0.040 H 
ATOM     92  H   NAG d1175      15.256 -13.841  -3.986  0.00  0.00     0.040 H 
ATOM     93  H   NAG d1175      14.696 -15.254  -4.848  0.00  0.00     0.040 H 
ATOM     94  H   NAG d1175      14.535 -16.998   0.534  0.00  0.00     0.091 H 
ATOM     95  C4  NAG d1181       1.154 -18.166  23.411  0.00  0.00     0.089 C 
ATOM     96  C3  NAG d1181       0.970 -16.665  23.659  0.00  0.00     0.086 C 
ATOM     97  C6  NAG d1181       2.601 -19.958  22.364  0.00  0.00     0.043 C 
ATOM     98  C5  NAG d1181       2.531 -18.498  22.818  0.00  0.00     0.089 C 
ATOM     99  C7  NAG d1181       0.606 -13.587  22.175  0.00  0.00     0.214 C 
ATOM    100  C8  NAG d1181       0.739 -13.379  20.691  0.00  0.00    -0.003 C 
ATOM    101  N2  NAG d1181       1.466 -14.430  22.747  0.00  0.00    -0.349 N 
ATOM    102  O3  NAG d1181      -0.393 -16.372  23.933  0.00  0.00    -0.391 OA
ATOM    103  C1  NAG d1181       2.836 -16.299  21.993  0.00  0.00     0.154 C 
ATOM    104  O6  NAG d1181       3.949 -20.365  22.246  0.00  0.00    -0.398 OA
ATOM    105  O5  NAG d1181       2.822 -17.676  21.701  0.00  0.00    -0.349 OA
ATOM    106  O7  NAG d1181      -0.266 -13.001  22.822  0.00  0.00    -0.274 OA
ATOM    107  O4  NAG d1181       0.982 -18.861  24.625  0.00  0.00    -0.390 OA
ATOM    108  C2  NAG d1181       1.448 -15.855  22.451  0.00  0.00     0.087 C 
ATOM    109  H   NAG d1181       0.418 -18.468  22.695  0.00  0.00     0.091 H 
ATOM    110  H   NAG d1181       1.559 -16.392  24.508  0.00  0.00     0.090 H 
ATOM    111  H   NAG d1181       2.117 -20.058  21.415  0.00  0.00     0.078 H 
ATOM    112  H   NAG d1181       2.111 -20.575  23.088  0.00  0.00     0.078 H 
ATOM    113  H   NAG d1181       3.247 -18.324  23.594  0.00  0.00     0.090 H 
ATOM    114  H   NAG d1181       1.548 -13.972  20.319  0.00  0.00     0.040 H 
ATOM    115  H   NAG d1181       0.932 -12.345  20.492  0.00  0.00     0.040 H 
ATOM    116  H   NAG d1181      -0.170 -13.672  20.207  0.00  0.00     0.040 H 
ATOM    117  H   NAG d1181       2.129 -14.080  23.385  0.00  0.00     0.163 HD
ATOM    118  H   NAG d1181      -0.936 -16.617  23.167  0.00  0.00     0.210 HD
ATOM    119  H   NAG d1181       3.564 -16.144  22.762  0.00  0.00     0.132 H 
ATOM    120  H   NAG d1181       4.398 -19.809  21.591  0.00  0.00     0.209 HD
ATOM    121  H   NAG d1181       1.657 -18.574  25.260  0.00  0.00     0.210 HD
ATOM    122  H   NAG d1181       0.753 -16.037  21.658  0.00  0.00     0.084 H 
ATOM    123  C7  NAG d1179       7.935 -15.442  14.764  0.00  0.00     0.214 C 
ATOM    124  C1  NAG d1179       9.604 -12.570  15.646  0.00  0.00     0.154 C 
ATOM    125  C2  NAG d1179       8.872 -13.767  16.238  0.00  0.00     0.087 C 
ATOM    126  O5  NAG d1179      10.537 -12.067  16.578  0.00  0.00    -0.349 OA
ATOM    127  O7  NAG d1179       8.459 -16.404  15.322  0.00  0.00    -0.274 OA
ATOM    128  O4  NAG d1179       8.768 -12.473  19.748  0.00  0.00    -0.390 OA
ATOM    129  N2  NAG d1179       7.841 -14.239  15.328  0.00  0.00    -0.349 N 
ATOM    130  C8  NAG d1179       7.368 -15.606  13.387  0.00  0.00    -0.003 C 
ATOM    131  O3  NAG d1179       7.950 -14.768  18.198  0.00  0.00    -0.348 OA
ATOM    132  C4  NAG d1179       9.351 -12.850  18.518  0.00  0.00     0.089 C 
ATOM    133  C5  NAG d1179       9.947 -11.641  17.794  0.00  0.00     0.089 C 
ATOM    134  O6  NAG d1179      12.043 -11.800  19.002  0.00  0.00    -0.398 OA
ATOM    135  C3  NAG d1179       8.304 -13.519  17.634  0.00  0.00     0.093 C 
ATOM    136  C6  NAG d1179      10.999 -10.917  18.634  0.00  0.00     0.043 C 
ATOM    137  H   NAG d1179       8.959 -11.748  15.414  0.00  0.00     0.132 H 
ATOM    138  H   NAG d1179       9.609 -14.533  16.362  0.00  0.00     0.084 H 
ATOM    139  H   NAG d1179       8.399 -13.257  20.185  0.00  0.00     0.210 HD
ATOM    140  H   NAG d1179       7.067 -13.665  15.126  0.00  0.00     0.163 HD
ATOM    141  H   NAG d1179       6.956 -14.675  13.058  0.00  0.00     0.040 H 
ATOM    142  H   NAG d1179       6.600 -16.351  13.404  0.00  0.00     0.040 H 
ATOM    143  H   NAG d1179       8.144 -15.908  12.715  0.00  0.00     0.040 H 
ATOM    144  H   NAG d1179      10.143 -13.540  18.722  0.00  0.00     0.091 H 
ATOM    145  H   NAG d1179       9.148 -10.952  17.610  0.00  0.00     0.090 H 
ATOM    146  H   NAG d1179      12.699 -11.322  19.533  0.00  0.00     0.209 HD
ATOM    147  H   NAG d1179       7.451 -12.878  17.566  0.00  0.00     0.091 H 
ATOM    148  H   NAG d1179      10.537 -10.532  19.519  0.00  0.00     0.078 H 
ATOM    149  H   NAG d1179      11.412 -10.119  18.053  0.00  0.00     0.078 H 
ATOM    150  C6  BDP d1180       4.845 -13.179  21.388  0.00  0.00     0.206 C 
ATOM    151  O3  BDP d1180       4.752 -17.853  19.793  0.00  0.00    -0.390 OA
ATOM    152  C1  BDP d1180       6.572 -14.818  18.598  0.00  0.00     0.160 C 
ATOM    153  O2  BDP d1180       5.939 -16.680  17.268  0.00  0.00    -0.388 OA
ATOM    154  C3  BDP d1180       4.785 -16.511  19.350  0.00  0.00     0.092 C 
ATOM    155  O4  BDP d1180       3.189 -15.518  20.840  0.00  0.00    -0.348 OA
ATOM    156  O5  BDP d1180       6.407 -14.228  19.868  0.00  0.00    -0.340 OA
ATOM    157  C5  BDP d1180       5.044 -14.163  20.234  0.00  0.00     0.152 C 
ATOM    158  O6B BDP d1180       5.561 -13.308  22.410  0.00  0.00    -0.646 OA
ATOM    159  O6A BDP d1180       3.980 -12.282  21.239  0.00  0.00    -0.646 OA
ATOM    160  C2  BDP d1180       6.108 -16.274  18.610  0.00  0.00     0.110 C 
ATOM    161  C4  BDP d1180       4.567 -15.580  20.546  0.00  0.00     0.103 C 
ATOM    162  H   BDP d1180       4.890 -18.446  19.038  0.00  0.00     0.210 HD
ATOM    163  H   BDP d1180       5.977 -14.266  17.901  0.00  0.00     0.133 H 
ATOM    164  H   BDP d1180       6.765 -16.539  16.781  0.00  0.00     0.210 HD
ATOM    165  H   BDP d1180       3.996 -16.301  18.658  0.00  0.00     0.091 H 
ATOM    166  H   BDP d1180       4.446 -13.785  19.432  0.00  0.00     0.104 H 
ATOM    167  H   BDP d1180       6.853 -16.835  19.133  0.00  0.00     0.094 H 
ATOM    168  H   BDP d1180       5.124 -15.967  21.374  0.00  0.00     0.092 H 
ENDROOT
TORSDOF 43
ENDMDL
MODEL 38
REMARK VINA RESULT:      -6.3      3.914     19.431
REMARK  0 active torsions:
REMARK  status: ('A' for Active; 'I' for Inactive)
REMARK       I    between atoms: C1_1  and  O3_15 
REMARK       I    between atoms: C1_2  and  O3_93 
REMARK       I    between atoms: C6_3  and  C5_89 
REMARK       I    between atoms: C6_3  and  O6_76 
REMARK       I    between atoms: O3_4  and  C3_22 
REMARK       I    between atoms: C6_5  and  C5_48 
REMARK       I    between atoms: C6_5  and  O6_31 
REMARK       I    between atoms: C4_6  and  O4_74 
REMARK       I    between atoms: C7_7  and  C8_62 
REMARK       I    between atoms: C7_7  and  N2_60 
REMARK       I    between atoms: C6_8  and  C5_52 
REMARK       I    between atoms: C3_9  and  O3_38 
REMARK       I    between atoms: C1_10  and  O4_75 
REMARK       I    between atoms: C6_12  and  C5_51 
REMARK       I    between atoms: O3_13  and  C3_42 
REMARK       I    between atoms: O4_14  and  C4_84 
REMARK       I    between atoms: O3_15  and  C3_86 
REMARK       I    between atoms: C6_16  and  C5_23 
REMARK       I    between atoms: C6_16  and  O6_58 
REMARK       I    between atoms: C1_17  and  O3_63 
REMARK       I    between atoms: C2_18  and  N2_60 
REMARK       I    between atoms: C2_19  and  N2_53 
REMARK       I    between atoms: O2_20  and  C2_66 
REMARK       I    between atoms: C3_25  and  O3_93 
REMARK       I    between atoms: C7_26  and  C8_32 
REMARK       I    between atoms: C7_26  and  N2_37 
REMARK       I    between atoms: C2_28  and  N2_44 
REMARK       I    between atoms: C7_29  and  C8_54 
REMARK       I    between atoms: C7_29  and  N2_53 
REMARK       I    between atoms: O1_33  and  C1_80 
REMARK       I    between atoms: O4_34  and  C4_40 
REMARK       I    between atoms: O4_34  and  C1_92 
REMARK       I    between atoms: C7_36  and  C8_81 
REMARK       I    between atoms: C7_36  and  N2_44 
REMARK       I    between atoms: N2_37  and  C2_83 
REMARK       I    between atoms: O3_39  and  C3_61 
REMARK       I    between atoms: C1_41  and  O4_46 
REMARK       I    between atoms: O2_43  and  C2_73 
REMARK       I    between atoms: C6_45  and  C5_87 
REMARK       I    between atoms: O4_46  and  C4_67 
REMARK       I    between atoms: C4_50  and  O4_65 
REMARK       I    between atoms: C2_55  and  O2_82 
REMARK       I    between atoms: O4_57  and  C4_71 
REMARK       I    between atoms: O3_63  and  C3_85 
REMARK       I    between atoms: O4_75  and  C4_91 
REMARK       I    between atoms: C5_77  and  C6_90 
REMARK       I    between atoms: O6_79  and  C6_90 
ROOT
ATOM      1  C1  BDP d1176      14.485 -12.531  -4.771  0.00  0.00     0.160 C 
ATOM      2  O3  BDP d1176      14.882  -9.191  -3.080  0.00  0.00    -0.390 OA
ATOM      3  O5  BDP d1176      13.848 -13.019  -3.624  0.00  0.00    -0.340 OA
ATOM      4  O6A BDP d1176      12.698 -13.450  -1.208  0.00  0.00    -0.646 OA
ATOM      5  C3  BDP d1176      15.190 -10.557  -3.263  0.00  0.00     0.092 C 
ATOM      6  O4  BDP d1176      15.492 -11.176  -0.977  0.00  0.00    -0.348 OA
ATOM      7  C4  BDP d1176      14.639 -11.356  -2.091  0.00  0.00     0.103 C 
ATOM      8  C6  BDP d1176      13.915 -13.659  -1.379  0.00  0.00     0.206 C 
ATOM      9  C2  BDP d1176      14.710 -11.019  -4.637  0.00  0.00     0.110 C 
ATOM     10  O6B BDP d1176      14.613 -14.481  -0.750  0.00  0.00    -0.646 OA
ATOM     11  O2  BDP d1176      15.713 -10.633  -5.546  0.00  0.00    -0.388 OA
ATOM     12  C5  BDP d1176      14.590 -12.834  -2.454  0.00  0.00     0.152 C 
ATOM     13  H   BDP d1176      15.440 -12.995  -4.898  0.00  0.00     0.133 H 
ATOM     14  H   BDP d1176      15.232  -8.677  -3.825  0.00  0.00     0.210 HD
ATOM     15  H   BDP d1176      16.248 -10.722  -3.263  0.00  0.00     0.091 H 
ATOM     16  H   BDP d1176      13.651 -11.018  -1.858  0.00  0.00     0.092 H 
ATOM     17  H   BDP d1176      13.754 -10.576  -4.819  0.00  0.00     0.094 H 
ATOM     18  H   BDP d1176      16.545 -11.075  -5.316  0.00  0.00     0.210 HD
ATOM     19  H   BDP d1176      15.605 -13.150  -2.573  0.00  0.00     0.104 H 
ATOM     20  C1  BDP d1178      15.492 -10.083   4.720  0.00  0.00     0.160 C 
ATOM     21  C6  BDP d1178      12.945  -8.759   7.099  0.00  0.00     0.206 C 
ATOM     22  O6B BDP d1178      11.937  -9.266   7.647  0.00  0.00    -0.646 OA
ATOM     23  O6A BDP d1178      13.190  -7.528   7.065  0.00  0.00    -0.646 OA
ATOM     24  O3  BDP d1178      17.101 -11.145   7.911  0.00  0.00    -0.390 OA
ATOM     25  O2  BDP d1178      17.642 -11.081   5.160  0.00  0.00    -0.388 OA
ATOM     26  C5  BDP d1178      13.931  -9.742   6.463  0.00  0.00     0.152 C 
ATOM     27  C3  BDP d1178      16.087 -10.976   6.947  0.00  0.00     0.092 C 
ATOM     28  C2  BDP d1178      16.626 -10.286   5.719  0.00  0.00     0.110 C 
ATOM     29  O4  BDP d1178      14.282 -11.014   8.421  0.00  0.00    -0.348 OA
ATOM     30  O5  BDP d1178      14.534  -9.216   5.287  0.00  0.00    -0.340 OA
ATOM     31  C4  BDP d1178      14.941 -10.164   7.525  0.00  0.00     0.103 C 
ATOM     32  H   BDP d1178      14.975 -10.991   4.488  0.00  0.00     0.133 H 
ATOM     33  H   BDP d1178      17.826 -11.665   7.530  0.00  0.00     0.210 HD
ATOM     34  H   BDP d1178      17.995 -10.645   4.369  0.00  0.00     0.210 HD
ATOM     35  H   BDP d1178      13.407 -10.612   6.126  0.00  0.00     0.104 H 
ATOM     36  H   BDP d1178      15.728 -11.945   6.668  0.00  0.00     0.091 H 
ATOM     37  H   BDP d1178      17.033  -9.331   5.975  0.00  0.00     0.094 H 
ATOM     38  H   BDP d1178      15.329  -9.274   7.975  0.00  0.00     0.092 H 
ATOM     39  C6  NAG d1177      14.080  -6.744   0.026  0.00  0.00     0.043 C 
ATOM     40  O4  NAG d1177      14.446  -7.398   2.918  0.00  0.00    -0.390 OA
ATOM     41  C2  NAG d1177      15.724 -10.521   1.326  0.00  0.00     0.087 C 
ATOM     42  C3  NAG d1177      15.195  -9.589   2.409  0.00  0.00     0.093 C 
ATOM     43  C7  NAG d1177      16.675 -12.738   1.831  0.00  0.00     0.214 C 
ATOM     44  N2  NAG d1177      15.652 -11.887   1.824  0.00  0.00    -0.349 N 
ATOM     45  C8  NAG d1177      16.298 -14.175   2.026  0.00  0.00    -0.003 C 
ATOM     46  O7  NAG d1177      17.860 -12.410   1.709  0.00  0.00    -0.274 OA
ATOM     47  O6  NAG d1177      14.919  -6.585  -1.103  0.00  0.00    -0.398 OA
ATOM     48  C4  NAG d1177      15.057  -8.163   1.897  0.00  0.00     0.089 C 
ATOM     49  O5  NAG d1177      14.834  -8.990  -0.352  0.00  0.00    -0.349 OA
ATOM     50  C5  NAG d1177      14.233  -8.147   0.610  0.00  0.00     0.089 C 
ATOM     51  C1  NAG d1177      14.910 -10.351   0.043  0.00  0.00     0.154 C 
ATOM     52  O3  NAG d1177      16.078  -9.582   3.507  0.00  0.00    -0.348 OA
ATOM     53  H   NAG d1177      14.347  -6.021   0.768  0.00  0.00     0.078 H 
ATOM     54  H   NAG d1177      13.062  -6.601  -0.274  0.00  0.00     0.078 H 
ATOM     55  H   NAG d1177      14.994  -7.430   3.717  0.00  0.00     0.210 HD
ATOM     56  H   NAG d1177      16.742 -10.285   1.094  0.00  0.00     0.084 H 
ATOM     57  H   NAG d1177      14.231  -9.951   2.700  0.00  0.00     0.091 H 
ATOM     58  H   NAG d1177      14.789 -12.202   2.177  0.00  0.00     0.163 HD
ATOM     59  H   NAG d1177      15.235 -14.258   2.111  0.00  0.00     0.040 H 
ATOM     60  H   NAG d1177      16.757 -14.547   2.919  0.00  0.00     0.040 H 
ATOM     61  H   NAG d1177      16.634 -14.749   1.187  0.00  0.00     0.040 H 
ATOM     62  H   NAG d1177      15.844  -6.713  -0.840  0.00  0.00     0.209 HD
ATOM     63  H   NAG d1177      16.013  -7.744   1.664  0.00  0.00     0.091 H 
ATOM     64  H   NAG d1177      13.255  -8.500   0.859  0.00  0.00     0.090 H 
ATOM     65  H   NAG d1177      13.901 -10.662   0.214  0.00  0.00     0.132 H 
ATOM     66  C6  NAG d1175      11.839 -17.335  -6.637  0.00  0.00     0.043 C 
ATOM     67  O3  NAG d1175      13.649 -12.829  -5.911  0.00  0.00    -0.348 OA
ATOM     68  C2  NAG d1175      13.894 -13.849  -8.064  0.00  0.00     0.087 C 
ATOM     69  O6  NAG d1175      11.961 -18.509  -7.406  0.00  0.00    -0.398 OA
ATOM     70  O1  NAG d1175      13.728 -14.927 -10.230  0.00  0.00    -0.369 OA
ATOM     71  C7  NAG d1175      14.879 -12.033  -9.370  0.00  0.00     0.214 C 
ATOM     72  N2  NAG d1175      15.018 -13.017  -8.480  0.00  0.00    -0.349 N 
ATOM     73  C5  NAG d1175      12.959 -16.385  -7.042  0.00  0.00     0.089 C 
ATOM     74  O5  NAG d1175      12.765 -15.947  -8.379  0.00  0.00    -0.349 OA
ATOM     75  C4  NAG d1175      13.030 -15.210  -6.064  0.00  0.00     0.089 C 
ATOM     76  O4  NAG d1175      13.461 -15.727  -4.818  0.00  0.00    -0.390 OA
ATOM     77  O7  NAG d1175      14.064 -11.113  -9.233  0.00  0.00    -0.274 OA
ATOM     78  C1  NAG d1175      13.858 -15.171  -8.843  0.00  0.00     0.151 C 
ATOM     79  C8  NAG d1175      15.792 -12.093 -10.564  0.00  0.00    -0.003 C 
ATOM     80  C3  NAG d1175      13.951 -14.072  -6.543  0.00  0.00     0.093 C 
ATOM     81  H   NAG d1175      10.889 -16.877  -6.822  0.00  0.00     0.078 H 
ATOM     82  H   NAG d1175      11.909 -17.567  -5.594  0.00  0.00     0.078 H 
ATOM     83  H   NAG d1175      12.980 -13.341  -8.293  0.00  0.00     0.084 H 
ATOM     84  H   NAG d1175      11.896 -18.287  -8.349  0.00  0.00     0.209 HD
ATOM     85  H   NAG d1175      14.480 -14.396 -10.536  0.00  0.00     0.212 HD
ATOM     86  H   NAG d1175      15.907 -13.188  -8.092  0.00  0.00     0.163 HD
ATOM     87  H   NAG d1175      13.897 -16.898  -7.001  0.00  0.00     0.090 H 
ATOM     88  H   NAG d1175      12.061 -14.763  -5.984  0.00  0.00     0.091 H 
ATOM     89  H   NAG d1175      14.340 -16.125  -4.921  0.00  0.00     0.210 HD
ATOM     90  H   NAG d1175      14.773 -15.703  -8.683  0.00  0.00     0.132 H 
ATOM     91  H   NAG d1175      16.416 -12.960 -10.493  0.00  0.00     0.040 H 
ATOM     92  H   NAG d1175      16.404 -11.216 -10.589  0.00  0.00     0.040 H 
ATOM     93  H   NAG d1175      15.208 -12.147 -11.458  0.00  0.00     0.040 H 
ATOM     94  H   NAG d1175      14.934 -14.395  -6.271  0.00  0.00     0.091 H 
ATOM     95  C4  NAG d1181       4.982 -13.154  18.289  0.00  0.00     0.089 C 
ATOM     96  C3  NAG d1181       5.477 -11.757  18.679  0.00  0.00     0.086 C 
ATOM     97  C6  NAG d1181       5.411 -15.218  16.888  0.00  0.00     0.043 C 
ATOM     98  C5  NAG d1181       6.014 -13.932  17.460  0.00  0.00     0.089 C 
ATOM     99  C7  NAG d1181       6.280  -8.625  17.516  0.00  0.00     0.214 C 
ATOM    100  C8  NAG d1181       6.320  -8.288  16.050  0.00  0.00    -0.003 C 
ATOM    101  N2  NAG d1181       6.763  -9.814  17.876  0.00  0.00    -0.349 N 
ATOM    102  O3  NAG d1181       4.406 -10.977  19.188  0.00  0.00    -0.391 OA
ATOM    103  C1  NAG d1181       7.123 -11.956  16.770  0.00  0.00     0.154 C 
ATOM    104  O6  NAG d1181       6.439 -16.116  16.526  0.00  0.00    -0.398 OA
ATOM    105  O5  NAG d1181       6.497 -13.154  16.378  0.00  0.00    -0.349 OA
ATOM    106  O7  NAG d1181       5.815  -7.830  18.337  0.00  0.00    -0.274 OA
ATOM    107  O4  NAG d1181       4.672 -13.879  19.457  0.00  0.00    -0.390 OA
ATOM    108  C2  NAG d1181       6.113 -11.054  17.477  0.00  0.00     0.087 C 
ATOM    109  H   NAG d1181       4.112 -13.030  17.678  0.00  0.00     0.091 H 
ATOM    110  H   NAG d1181       6.219 -11.866  19.441  0.00  0.00     0.090 H 
ATOM    111  H   NAG d1181       4.827 -14.981  16.024  0.00  0.00     0.078 H 
ATOM    112  H   NAG d1181       4.792 -15.675  17.632  0.00  0.00     0.078 H 
ATOM    113  H   NAG d1181       6.820 -14.172  18.122  0.00  0.00     0.090 H 
ATOM    114  H   NAG d1181       6.756  -9.101  15.509  0.00  0.00     0.040 H 
ATOM    115  H   NAG d1181       6.907  -7.405  15.904  0.00  0.00     0.040 H 
ATOM    116  H   NAG d1181       5.324  -8.117  15.696  0.00  0.00     0.040 H 
ATOM    117  H   NAG d1181       7.579  -9.855  18.425  0.00  0.00     0.163 HD
ATOM    118  H   NAG d1181       3.727 -10.873  18.503  0.00  0.00     0.210 HD
ATOM    119  H   NAG d1181       7.930 -12.217  17.423  0.00  0.00     0.132 H 
ATOM    120  H   NAG d1181       7.003 -15.706  15.852  0.00  0.00     0.209 HD
ATOM    121  H   NAG d1181       5.471 -13.981  19.996  0.00  0.00     0.210 HD
ATOM    122  H   NAG d1181       5.321 -10.828  16.793  0.00  0.00     0.084 H 
ATOM    123  C7  NAG d1179      11.257 -12.261   8.908  0.00  0.00     0.214 C 
ATOM    124  C1  NAG d1179      14.069 -10.464   9.732  0.00  0.00     0.154 C 
ATOM    125  C2  NAG d1179      12.972 -11.330  10.339  0.00  0.00     0.087 C 
ATOM    126  O5  NAG d1179      15.225 -10.516  10.539  0.00  0.00    -0.349 OA
ATOM    127  O7  NAG d1179      11.386 -13.419   9.298  0.00  0.00    -0.274 OA
ATOM    128  O4  NAG d1179      13.820 -10.599  13.910  0.00  0.00    -0.390 OA
ATOM    129  N2  NAG d1179      11.743 -11.213   9.571  0.00  0.00    -0.349 N 
ATOM    130  C8  NAG d1179      10.522 -11.989   7.630  0.00  0.00    -0.003 C 
ATOM    131  O3  NAG d1179      11.942 -12.129  12.337  0.00  0.00    -0.348 OA
ATOM    132  C4  NAG d1179      14.047 -11.009  12.577  0.00  0.00     0.089 C 
ATOM    133  C5  NAG d1179      15.011 -10.059  11.863  0.00  0.00     0.089 C 
ATOM    134  O6  NAG d1179      16.966 -11.219  12.705  0.00  0.00    -0.398 OA
ATOM    135  C3  NAG d1179      12.723 -11.067  11.822  0.00  0.00     0.093 C 
ATOM    136  C6  NAG d1179      16.358  -9.947  12.578  0.00  0.00     0.043 C 
ATOM    137  H   NAG d1179      13.809  -9.428   9.670  0.00  0.00     0.132 H 
ATOM    138  H   NAG d1179      13.327 -12.338  10.284  0.00  0.00     0.084 H 
ATOM    139  H   NAG d1179      13.207 -11.218  14.338  0.00  0.00     0.210 HD
ATOM    140  H   NAG d1179      11.265 -10.352   9.540  0.00  0.00     0.163 HD
ATOM    141  H   NAG d1179      10.507 -10.936   7.445  0.00  0.00     0.040 H 
ATOM    142  H   NAG d1179       9.519 -12.353   7.712  0.00  0.00     0.040 H 
ATOM    143  H   NAG d1179      11.017 -12.486   6.822  0.00  0.00     0.040 H 
ATOM    144  H   NAG d1179      14.492 -11.982  12.598  0.00  0.00     0.091 H 
ATOM    145  H   NAG d1179      14.562  -9.087  11.863  0.00  0.00     0.090 H 
ATOM    146  H   NAG d1179      17.818 -11.127  13.160  0.00  0.00     0.209 HD
ATOM    147  H   NAG d1179      12.217 -10.132  11.941  0.00  0.00     0.091 H 
ATOM    148  H   NAG d1179      16.204  -9.533  13.553  0.00  0.00     0.078 H 
ATOM    149  H   NAG d1179      17.000  -9.314  12.002  0.00  0.00     0.078 H 
ATOM    150  C6  BDP d1180      10.177  -9.869  16.095  0.00  0.00     0.206 C 
ATOM    151  O3  BDP d1180       7.944 -13.836  14.178  0.00  0.00    -0.390 OA
ATOM    152  C1  BDP d1180      10.726 -11.669  12.947  0.00  0.00     0.160 C 
ATOM    153  O2  BDP d1180       9.221 -12.912  11.595  0.00  0.00    -0.388 OA
ATOM    154  C3  BDP d1180       8.489 -12.577  13.841  0.00  0.00     0.092 C 
ATOM    155  O4  BDP d1180       7.640 -11.236  15.639  0.00  0.00    -0.348 OA
ATOM    156  O5  BDP d1180      10.970 -11.244  14.269  0.00  0.00    -0.340 OA
ATOM    157  C5  BDP d1180       9.812 -10.682  14.851  0.00  0.00     0.152 C 
ATOM    158  O6B BDP d1180      10.883 -10.417  16.977  0.00  0.00    -0.646 OA
ATOM    159  O6A BDP d1180       9.760  -8.688  16.157  0.00  0.00    -0.646 OA
ATOM    160  C2  BDP d1180       9.696 -12.798  12.920  0.00  0.00     0.110 C 
ATOM    161  C4  BDP d1180       8.821 -11.810  15.125  0.00  0.00     0.103 C 
ATOM    162  H   BDP d1180       7.733 -14.325  13.367  0.00  0.00     0.210 HD
ATOM    163  H   BDP d1180      10.345 -10.833  12.399  0.00  0.00     0.133 H 
ATOM    164  H   BDP d1180       9.970 -13.053  10.994  0.00  0.00     0.210 HD
ATOM    165  H   BDP d1180       7.790 -11.972  13.302  0.00  0.00     0.091 H 
ATOM    166  H   BDP d1180       9.343  -9.987  14.187  0.00  0.00     0.104 H 
ATOM    167  H   BDP d1180      10.189 -13.679  13.272  0.00  0.00     0.094 H 
ATOM    168  H   BDP d1180       9.252 -12.500  15.821  0.00  0.00     0.092 H 
ENDROOT
TORSDOF 43
ENDMDL
MODEL 39
REMARK VINA RESULT:      -6.3      4.775      6.416
REMARK  0 active torsions:
REMARK  status: ('A' for Active; 'I' for Inactive)
REMARK       I    between atoms: C1_1  and  O3_15 
REMARK       I    between atoms: C1_2  and  O3_93 
REMARK       I    between atoms: C6_3  and  C5_89 
REMARK       I    between atoms: C6_3  and  O6_76 
REMARK       I    between atoms: O3_4  and  C3_22 
REMARK       I    between atoms: C6_5  and  C5_48 
REMARK       I    between atoms: C6_5  and  O6_31 
REMARK       I    between atoms: C4_6  and  O4_74 
REMARK       I    between atoms: C7_7  and  C8_62 
REMARK       I    between atoms: C7_7  and  N2_60 
REMARK       I    between atoms: C6_8  and  C5_52 
REMARK       I    between atoms: C3_9  and  O3_38 
REMARK       I    between atoms: C1_10  and  O4_75 
REMARK       I    between atoms: C6_12  and  C5_51 
REMARK       I    between atoms: O3_13  and  C3_42 
REMARK       I    between atoms: O4_14  and  C4_84 
REMARK       I    between atoms: O3_15  and  C3_86 
REMARK       I    between atoms: C6_16  and  C5_23 
REMARK       I    between atoms: C6_16  and  O6_58 
REMARK       I    between atoms: C1_17  and  O3_63 
REMARK       I    between atoms: C2_18  and  N2_60 
REMARK       I    between atoms: C2_19  and  N2_53 
REMARK       I    between atoms: O2_20  and  C2_66 
REMARK       I    between atoms: C3_25  and  O3_93 
REMARK       I    between atoms: C7_26  and  C8_32 
REMARK       I    between atoms: C7_26  and  N2_37 
REMARK       I    between atoms: C2_28  and  N2_44 
REMARK       I    between atoms: C7_29  and  C8_54 
REMARK       I    between atoms: C7_29  and  N2_53 
REMARK       I    between atoms: O1_33  and  C1_80 
REMARK       I    between atoms: O4_34  and  C4_40 
REMARK       I    between atoms: O4_34  and  C1_92 
REMARK       I    between atoms: C7_36  and  C8_81 
REMARK       I    between atoms: C7_36  and  N2_44 
REMARK       I    between atoms: N2_37  and  C2_83 
REMARK       I    between atoms: O3_39  and  C3_61 
REMARK       I    between atoms: C1_41  and  O4_46 
REMARK       I    between atoms: O2_43  and  C2_73 
REMARK       I    between atoms: C6_45  and  C5_87 
REMARK       I    between atoms: O4_46  and  C4_67 
REMARK       I    between atoms: C4_50  and  O4_65 
REMARK       I    between atoms: C2_55  and  O2_82 
REMARK       I    between atoms: O4_57  and  C4_71 
REMARK       I    between atoms: O3_63  and  C3_85 
REMARK       I    between atoms: O4_75  and  C4_91 
REMARK       I    between atoms: C5_77  and  C6_90 
REMARK       I    between atoms: O6_79  and  C6_90 
ROOT
ATOM      1  C1  BDP d1176      14.592 -14.454  18.090  0.00  0.00     0.160 C 
ATOM      2  O3  BDP d1176      16.306 -12.087  15.716  0.00  0.00    -0.390 OA
ATOM      3  O5  BDP d1176      14.092 -15.166  16.994  0.00  0.00    -0.340 OA
ATOM      4  O6A BDP d1176      13.400 -16.169  14.573  0.00  0.00    -0.646 OA
ATOM      5  C3  BDP d1176      15.169 -12.633  16.353  0.00  0.00     0.092 C 
ATOM      6  O4  BDP d1176      13.649 -12.569  14.512  0.00  0.00    -0.348 OA
ATOM      7  C4  BDP d1176      14.376 -13.452  15.345  0.00  0.00     0.103 C 
ATOM      8  C6  BDP d1176      12.690 -15.309  15.131  0.00  0.00     0.206 C 
ATOM      9  C2  BDP d1176      15.590 -13.393  17.608  0.00  0.00     0.110 C 
ATOM     10  O6B BDP d1176      11.460 -15.163  14.980  0.00  0.00    -0.646 OA
ATOM     11  O2  BDP d1176      15.735 -12.423  18.616  0.00  0.00    -0.388 OA
ATOM     12  C5  BDP d1176      13.403 -14.367  16.077  0.00  0.00     0.152 C 
ATOM     13  H   BDP d1176      13.802 -13.950  18.605  0.00  0.00     0.133 H 
ATOM     14  H   BDP d1176      16.814 -11.563  16.355  0.00  0.00     0.210 HD
ATOM     15  H   BDP d1176      14.507 -11.864  16.696  0.00  0.00     0.091 H 
ATOM     16  H   BDP d1176      15.045 -14.047  14.758  0.00  0.00     0.092 H 
ATOM     17  H   BDP d1176      16.486 -13.933  17.381  0.00  0.00     0.094 H 
ATOM     18  H   BDP d1176      14.885 -11.980  18.763  0.00  0.00     0.210 HD
ATOM     19  H   BDP d1176      12.693 -13.728  16.561  0.00  0.00     0.104 H 
ATOM     20  C1  BDP d1178      12.273 -11.511   8.977  0.00  0.00     0.160 C 
ATOM     21  C6  BDP d1178      13.652 -12.649   5.706  0.00  0.00     0.206 C 
ATOM     22  O6B BDP d1178      13.558 -13.721   5.061  0.00  0.00    -0.646 OA
ATOM     23  O6A BDP d1178      14.490 -11.746   5.462  0.00  0.00    -0.646 OA
ATOM     24  O3  BDP d1178       9.399 -10.566   6.798  0.00  0.00    -0.390 OA
ATOM     25  O2  BDP d1178      10.247 -10.296   9.457  0.00  0.00    -0.388 OA
ATOM     26  C5  BDP d1178      12.645 -12.457   6.842  0.00  0.00     0.152 C 
ATOM     27  C3  BDP d1178      10.417 -11.369   7.350  0.00  0.00     0.092 C 
ATOM     28  C2  BDP d1178      11.154 -10.627   8.436  0.00  0.00     0.110 C 
ATOM     29  O4  BDP d1178      10.726 -12.751   5.499  0.00  0.00    -0.348 OA
ATOM     30  O5  BDP d1178      13.204 -11.752   7.945  0.00  0.00    -0.340 OA
ATOM     31  C4  BDP d1178      11.397 -11.795   6.269  0.00  0.00     0.103 C 
ATOM     32  H   BDP d1178      11.926 -12.471   9.298  0.00  0.00     0.133 H 
ATOM     33  H   BDP d1178       8.781 -10.301   7.497  0.00  0.00     0.210 HD
ATOM     34  H   BDP d1178      10.712  -9.818  10.161  0.00  0.00     0.210 HD
ATOM     35  H   BDP d1178      12.371 -13.409   7.247  0.00  0.00     0.104 H 
ATOM     36  H   BDP d1178       9.961 -12.238   7.775  0.00  0.00     0.091 H 
ATOM     37  H   BDP d1178      11.585  -9.727   8.049  0.00  0.00     0.094 H 
ATOM     38  H   BDP d1178      11.710 -10.934   5.718  0.00  0.00     0.092 H 
ATOM     39  C6  NAG d1177      17.386 -11.103  11.955  0.00  0.00     0.043 C 
ATOM     40  O4  NAG d1177      15.571 -10.961   9.587  0.00  0.00    -0.390 OA
ATOM     41  C2  NAG d1177      13.140 -11.829  12.280  0.00  0.00     0.087 C 
ATOM     42  C3  NAG d1177      13.703 -11.645  10.877  0.00  0.00     0.093 C 
ATOM     43  C7  NAG d1177      10.756 -12.287  12.704  0.00  0.00     0.214 C 
ATOM     44  N2  NAG d1177      11.930 -12.634  12.185  0.00  0.00    -0.349 N 
ATOM     45  C8  NAG d1177       9.763 -13.404  12.821  0.00  0.00    -0.003 C 
ATOM     46  O7  NAG d1177      10.457 -11.142  13.058  0.00  0.00    -0.274 OA
ATOM     47  O6  NAG d1177      17.523 -10.413  13.184  0.00  0.00    -0.398 OA
ATOM     48  C4  NAG d1177      15.070 -10.979  10.909  0.00  0.00     0.089 C 
ATOM     49  O5  NAG d1177      15.421 -11.805  13.142  0.00  0.00    -0.349 OA
ATOM     50  C5  NAG d1177      16.000 -11.738  11.855  0.00  0.00     0.089 C 
ATOM     51  C1  NAG d1177      14.182 -12.493  13.182  0.00  0.00     0.154 C 
ATOM     52  O3  NAG d1177      12.835 -10.837  10.116  0.00  0.00    -0.348 OA
ATOM     53  H   NAG d1177      17.518 -10.415  11.147  0.00  0.00     0.078 H 
ATOM     54  H   NAG d1177      18.127 -11.875  11.905  0.00  0.00     0.078 H 
ATOM     55  H   NAG d1177      14.958 -10.472   9.016  0.00  0.00     0.210 HD
ATOM     56  H   NAG d1177      12.898 -10.881  12.714  0.00  0.00     0.084 H 
ATOM     57  H   NAG d1177      13.798 -12.616  10.440  0.00  0.00     0.091 H 
ATOM     58  H   NAG d1177      11.986 -13.492  11.706  0.00  0.00     0.163 HD
ATOM     59  H   NAG d1177      10.204 -14.312  12.467  0.00  0.00     0.040 H 
ATOM     60  H   NAG d1177       8.898 -13.175  12.234  0.00  0.00     0.040 H 
ATOM     61  H   NAG d1177       9.478 -13.522  13.846  0.00  0.00     0.040 H 
ATOM     62  H   NAG d1177      16.855  -9.712  13.238  0.00  0.00     0.209 HD
ATOM     63  H   NAG d1177      15.001  -9.976  11.276  0.00  0.00     0.091 H 
ATOM     64  H   NAG d1177      16.126 -12.720  11.449  0.00  0.00     0.090 H 
ATOM     65  H   NAG d1177      14.385 -13.481  12.827  0.00  0.00     0.132 H 
ATOM     66  C6  NAG d1175      12.956 -19.509  20.400  0.00  0.00     0.043 C 
ATOM     67  O3  NAG d1175      15.229 -15.393  18.985  0.00  0.00    -0.348 OA
ATOM     68  C2  NAG d1175      15.158 -15.941  21.315  0.00  0.00     0.087 C 
ATOM     69  O6  NAG d1175      12.290 -20.140  21.469  0.00  0.00    -0.398 OA
ATOM     70  O1  NAG d1175      15.255 -16.858  23.557  0.00  0.00    -0.369 OA
ATOM     71  C7  NAG d1175      16.567 -14.194  22.284  0.00  0.00     0.214 C 
ATOM     72  N2  NAG d1175      15.392 -14.578  21.781  0.00  0.00    -0.349 N 
ATOM     73  C5  NAG d1175      13.280 -18.080  20.822  0.00  0.00     0.089 C 
ATOM     74  O5  NAG d1175      14.235 -18.089  21.873  0.00  0.00    -0.349 OA
ATOM     75  C4  NAG d1175      13.768 -17.275  19.616  0.00  0.00     0.089 C 
ATOM     76  O4  NAG d1175      12.666 -17.126  18.738  0.00  0.00    -0.390 OA
ATOM     77  O7  NAG d1175      17.635 -14.321  21.671  0.00  0.00    -0.274 OA
ATOM     78  C1  NAG d1175      14.461 -16.787  22.389  0.00  0.00     0.151 C 
ATOM     79  C8  NAG d1175      16.525 -13.574  23.653  0.00  0.00    -0.003 C 
ATOM     80  C3  NAG d1175      14.365 -15.907  19.997  0.00  0.00     0.093 C 
ATOM     81  H   NAG d1175      13.860 -20.034  20.175  0.00  0.00     0.078 H 
ATOM     82  H   NAG d1175      12.336 -19.505  19.528  0.00  0.00     0.078 H 
ATOM     83  H   NAG d1175      16.100 -16.412  21.126  0.00  0.00     0.084 H 
ATOM     84  H   NAG d1175      12.861 -20.137  22.254  0.00  0.00     0.209 HD
ATOM     85  H   NAG d1175      15.404 -15.964  23.902  0.00  0.00     0.212 HD
ATOM     86  H   NAG d1175      14.661 -13.922  21.723  0.00  0.00     0.163 HD
ATOM     87  H   NAG d1175      12.395 -17.606  21.192  0.00  0.00     0.090 H 
ATOM     88  H   NAG d1175      14.570 -17.803  19.144  0.00  0.00     0.091 H 
ATOM     89  H   NAG d1175      11.956 -16.645  19.191  0.00  0.00     0.210 HD
ATOM     90  H   NAG d1175      13.527 -16.333  22.648  0.00  0.00     0.132 H 
ATOM     91  H   NAG d1175      15.515 -13.557  24.006  0.00  0.00     0.040 H 
ATOM     92  H   NAG d1175      16.901 -12.574  23.604  0.00  0.00     0.040 H 
ATOM     93  H   NAG d1175      17.127 -14.149  24.325  0.00  0.00     0.040 H 
ATOM     94  H   NAG d1175      13.514 -15.270  20.115  0.00  0.00     0.091 H 
ATOM     95  C4  NAG d1181       9.934 -20.819  -5.579  0.00  0.00     0.089 C 
ATOM     96  C3  NAG d1181      10.607 -19.585  -6.188  0.00  0.00     0.086 C 
ATOM     97  C6  NAG d1181       8.673 -21.759  -3.596  0.00  0.00     0.043 C 
ATOM     98  C5  NAG d1181       9.136 -20.486  -4.310  0.00  0.00     0.089 C 
ATOM     99  C7  NAG d1181      13.067 -17.222  -5.770  0.00  0.00     0.214 C 
ATOM    100  C8  NAG d1181      13.878 -17.107  -4.508  0.00  0.00    -0.003 C 
ATOM    101  N2  NAG d1181      11.767 -17.483  -5.632  0.00  0.00    -0.349 N 
ATOM    102  O3  NAG d1181      11.551 -19.973  -7.176  0.00  0.00    -0.391 OA
ATOM    103  C1  NAG d1181      10.366 -18.501  -3.917  0.00  0.00     0.154 C 
ATOM    104  O6  NAG d1181       7.603 -21.463  -2.723  0.00  0.00    -0.398 OA
ATOM    105  O5  NAG d1181       9.912 -19.728  -3.398  0.00  0.00    -0.349 OA
ATOM    106  O7  NAG d1181      13.594 -17.083  -6.877  0.00  0.00    -0.274 OA
ATOM    107  O4  NAG d1181       9.077 -21.400  -6.536  0.00  0.00    -0.390 OA
ATOM    108  C2  NAG d1181      11.295 -18.754  -5.102  0.00  0.00     0.087 C 
ATOM    109  H   NAG d1181      10.706 -21.504  -5.298  0.00  0.00     0.091 H 
ATOM    110  H   NAG d1181       9.852 -18.985  -6.649  0.00  0.00     0.090 H 
ATOM    111  H   NAG d1181       9.487 -22.165  -3.033  0.00  0.00     0.078 H 
ATOM    112  H   NAG d1181       8.344 -22.470  -4.325  0.00  0.00     0.078 H 
ATOM    113  H   NAG d1181       8.286 -19.917  -4.625  0.00  0.00     0.090 H 
ATOM    114  H   NAG d1181      13.242 -17.259  -3.661  0.00  0.00     0.040 H 
ATOM    115  H   NAG d1181      14.317 -16.133  -4.454  0.00  0.00     0.040 H 
ATOM    116  H   NAG d1181      14.650 -17.848  -4.511  0.00  0.00     0.040 H 
ATOM    117  H   NAG d1181      11.110 -16.799  -5.895  0.00  0.00     0.163 HD
ATOM    118  H   NAG d1181      12.241 -20.519  -6.766  0.00  0.00     0.210 HD
ATOM    119  H   NAG d1181       9.503 -17.942  -4.216  0.00  0.00     0.132 H 
ATOM    120  H   NAG d1181       7.896 -20.818  -2.060  0.00  0.00     0.209 HD
ATOM    121  H   NAG d1181       8.385 -20.765  -6.778  0.00  0.00     0.210 HD
ATOM    122  H   NAG d1181      12.136 -19.322  -4.761  0.00  0.00     0.084 H 
ATOM    123  C7  NAG d1179      11.105 -15.898   4.549  0.00  0.00     0.214 C 
ATOM    124  C1  NAG d1179      10.747 -12.511   4.082  0.00  0.00     0.154 C 
ATOM    125  C2  NAG d1179      10.398 -13.856   3.458  0.00  0.00     0.087 C 
ATOM    126  O5  NAG d1179       9.808 -11.537   3.681  0.00  0.00    -0.349 OA
ATOM    127  O7  NAG d1179       9.995 -16.428   4.551  0.00  0.00    -0.274 OA
ATOM    128  O4  NAG d1179       9.141 -12.476   0.215  0.00  0.00    -0.390 OA
ATOM    129  N2  NAG d1179      11.408 -14.851   3.785  0.00  0.00    -0.349 N 
ATOM    130  C8  NAG d1179      12.182 -16.438   5.439  0.00  0.00    -0.003 C 
ATOM    131  O3  NAG d1179       9.525 -15.004   1.557  0.00  0.00    -0.348 OA
ATOM    132  C4  NAG d1179       9.230 -12.626   1.616  0.00  0.00     0.089 C 
ATOM    133  C5  NAG d1179       9.753 -11.349   2.278  0.00  0.00     0.089 C 
ATOM    134  O6  NAG d1179       7.544 -10.356   2.380  0.00  0.00    -0.398 OA
ATOM    135  C3  NAG d1179      10.148 -13.796   1.953  0.00  0.00     0.093 C 
ATOM    136  C6  NAG d1179       8.880 -10.132   1.969  0.00  0.00     0.043 C 
ATOM    137  H   NAG d1179      11.700 -12.134   3.776  0.00  0.00     0.132 H 
ATOM    138  H   NAG d1179       9.463 -14.150   3.890  0.00  0.00     0.084 H 
ATOM    139  H   NAG d1179       8.808 -13.299  -0.178  0.00  0.00     0.210 HD
ATOM    140  H   NAG d1179      12.324 -14.749   3.438  0.00  0.00     0.163 HD
ATOM    141  H   NAG d1179      13.073 -15.861   5.310  0.00  0.00     0.040 H 
ATOM    142  H   NAG d1179      12.377 -17.459   5.184  0.00  0.00     0.040 H 
ATOM    143  H   NAG d1179      11.865 -16.380   6.459  0.00  0.00     0.040 H 
ATOM    144  H   NAG d1179       8.248 -12.820   1.995  0.00  0.00     0.091 H 
ATOM    145  H   NAG d1179      10.728 -11.158   1.880  0.00  0.00     0.090 H 
ATOM    146  H   NAG d1179       7.007  -9.574   2.176  0.00  0.00     0.209 HD
ATOM    147  H   NAG d1179      11.077 -13.664   1.440  0.00  0.00     0.091 H 
ATOM    148  H   NAG d1179       8.897  -9.946   0.916  0.00  0.00     0.078 H 
ATOM    149  H   NAG d1179       9.267  -9.289   2.502  0.00  0.00     0.078 H 
ATOM    150  C6  BDP d1180      10.693 -14.864  -3.021  0.00  0.00     0.206 C 
ATOM    151  O3  BDP d1180       9.513 -19.105  -0.781  0.00  0.00    -0.390 OA
ATOM    152  C1  BDP d1180      10.255 -15.686   0.527  0.00  0.00     0.160 C 
ATOM    153  O2  BDP d1180      10.585 -17.729   1.692  0.00  0.00    -0.388 OA
ATOM    154  C3  BDP d1180      10.339 -17.964  -0.670  0.00  0.00     0.092 C 
ATOM    155  O4  BDP d1180      11.100 -17.752  -2.935  0.00  0.00    -0.348 OA
ATOM    156  O5  BDP d1180       9.945 -15.144  -0.737  0.00  0.00    -0.340 OA
ATOM    157  C5  BDP d1180      10.736 -15.722  -1.755  0.00  0.00     0.152 C 
ATOM    158  O6B BDP d1180       9.571 -14.535  -3.479  0.00  0.00    -0.646 OA
ATOM    159  O6A BDP d1180      11.790 -14.522  -3.525  0.00  0.00    -0.646 OA
ATOM    160  C2  BDP d1180       9.917 -17.176   0.577  0.00  0.00     0.110 C 
ATOM    161  C4  BDP d1180      10.261 -17.157  -1.970  0.00  0.00     0.103 C 
ATOM    162  H   BDP d1180       9.559 -19.619   0.041  0.00  0.00     0.210 HD
ATOM    163  H   BDP d1180      11.305 -15.559   0.689  0.00  0.00     0.133 H 
ATOM    164  H   BDP d1180      10.332 -17.244   2.493  0.00  0.00     0.210 HD
ATOM    165  H   BDP d1180      11.367 -18.228  -0.541  0.00  0.00     0.091 H 
ATOM    166  H   BDP d1180      11.767 -15.756  -1.471  0.00  0.00     0.104 H 
ATOM    167  H   BDP d1180       8.852 -17.252   0.639  0.00  0.00     0.094 H 
ATOM    168  H   BDP d1180       9.242 -17.148  -2.294  0.00  0.00     0.092 H 
ENDROOT
TORSDOF 43
ENDMDL
MODEL 40
REMARK VINA RESULT:      -6.3      3.264     18.935
REMARK  0 active torsions:
REMARK  status: ('A' for Active; 'I' for Inactive)
REMARK       I    between atoms: C1_1  and  O3_15 
REMARK       I    between atoms: C1_2  and  O3_93 
REMARK       I    between atoms: C6_3  and  C5_89 
REMARK       I    between atoms: C6_3  and  O6_76 
REMARK       I    between atoms: O3_4  and  C3_22 
REMARK       I    between atoms: C6_5  and  C5_48 
REMARK       I    between atoms: C6_5  and  O6_31 
REMARK       I    between atoms: C4_6  and  O4_74 
REMARK       I    between atoms: C7_7  and  C8_62 
REMARK       I    between atoms: C7_7  and  N2_60 
REMARK       I    between atoms: C6_8  and  C5_52 
REMARK       I    between atoms: C3_9  and  O3_38 
REMARK       I    between atoms: C1_10  and  O4_75 
REMARK       I    between atoms: C6_12  and  C5_51 
REMARK       I    between atoms: O3_13  and  C3_42 
REMARK       I    between atoms: O4_14  and  C4_84 
REMARK       I    between atoms: O3_15  and  C3_86 
REMARK       I    between atoms: C6_16  and  C5_23 
REMARK       I    between atoms: C6_16  and  O6_58 
REMARK       I    between atoms: C1_17  and  O3_63 
REMARK       I    between atoms: C2_18  and  N2_60 
REMARK       I    between atoms: C2_19  and  N2_53 
REMARK       I    between atoms: O2_20  and  C2_66 
REMARK       I    between atoms: C3_25  and  O3_93 
REMARK       I    between atoms: C7_26  and  C8_32 
REMARK       I    between atoms: C7_26  and  N2_37 
REMARK       I    between atoms: C2_28  and  N2_44 
REMARK       I    between atoms: C7_29  and  C8_54 
REMARK       I    between atoms: C7_29  and  N2_53 
REMARK       I    between atoms: O1_33  and  C1_80 
REMARK       I    between atoms: O4_34  and  C4_40 
REMARK       I    between atoms: O4_34  and  C1_92 
REMARK       I    between atoms: C7_36  and  C8_81 
REMARK       I    between atoms: C7_36  and  N2_44 
REMARK       I    between atoms: N2_37  and  C2_83 
REMARK       I    between atoms: O3_39  and  C3_61 
REMARK       I    between atoms: C1_41  and  O4_46 
REMARK       I    between atoms: O2_43  and  C2_73 
REMARK       I    between atoms: C6_45  and  C5_87 
REMARK       I    between atoms: O4_46  and  C4_67 
REMARK       I    between atoms: C4_50  and  O4_65 
REMARK       I    between atoms: C2_55  and  O2_82 
REMARK       I    between atoms: O4_57  and  C4_71 
REMARK       I    between atoms: O3_63  and  C3_85 
REMARK       I    between atoms: O4_75  and  C4_91 
REMARK       I    between atoms: C5_77  and  C6_90 
REMARK       I    between atoms: O6_79  and  C6_90 
ROOT
ATOM      1  C1  BDP d1176       7.755 -15.725  -1.329  0.00  0.00     0.160 C 
ATOM      2  O3  BDP d1176       8.361 -12.163  -0.269  0.00  0.00    -0.390 OA
ATOM      3  O5  BDP d1176       7.409 -16.042  -0.011  0.00  0.00    -0.340 OA
ATOM      4  O6A BDP d1176       6.841 -16.119   2.638  0.00  0.00    -0.646 OA
ATOM      5  C3  BDP d1176       8.684 -13.538  -0.319  0.00  0.00     0.092 C 
ATOM      6  O4  BDP d1176       9.510 -13.802   1.906  0.00  0.00    -0.348 OA
ATOM      7  C4  BDP d1176       8.441 -14.158   1.050  0.00  0.00     0.103 C 
ATOM      8  C6  BDP d1176       7.999 -16.336   2.230  0.00  0.00     0.206 C 
ATOM      9  C2  BDP d1176       7.935 -14.208  -1.469  0.00  0.00     0.110 C 
ATOM     10  O6B BDP d1176       8.855 -17.046   2.798  0.00  0.00    -0.646 OA
ATOM     11  O2  BDP d1176       8.694 -13.950  -2.625  0.00  0.00    -0.388 OA
ATOM     12  C5  BDP d1176       8.382 -15.674   0.924  0.00  0.00     0.152 C 
ATOM     13  H   BDP d1176       8.679 -16.191  -1.599  0.00  0.00     0.133 H 
ATOM     14  H   BDP d1176       8.515 -11.764  -1.140  0.00  0.00     0.210 HD
ATOM     15  H   BDP d1176       9.722 -13.688  -0.532  0.00  0.00     0.091 H 
ATOM     16  H   BDP d1176       7.515 -13.801   1.448  0.00  0.00     0.092 H 
ATOM     17  H   BDP d1176       6.943 -13.808  -1.492  0.00  0.00     0.094 H 
ATOM     18  H   BDP d1176       9.576 -14.342  -2.527  0.00  0.00     0.210 HD
ATOM     19  H   BDP d1176       9.359 -15.992   0.627  0.00  0.00     0.104 H 
ATOM     20  C1  BDP d1178      10.715 -11.864   7.240  0.00  0.00     0.160 C 
ATOM     21  C6  BDP d1178       8.697 -10.229   9.914  0.00  0.00     0.206 C 
ATOM     22  O6B BDP d1178       7.858 -10.660  10.741  0.00  0.00    -0.646 OA
ATOM     23  O6A BDP d1178       8.872  -9.014   9.649  0.00  0.00    -0.646 OA
ATOM     24  O3  BDP d1178      13.034 -12.414  10.106  0.00  0.00    -0.390 OA
ATOM     25  O2  BDP d1178      12.952 -12.758   7.324  0.00  0.00    -0.388 OA
ATOM     26  C5  BDP d1178       9.562 -11.284   9.221  0.00  0.00     0.152 C 
ATOM     27  C3  BDP d1178      11.826 -12.405   9.380  0.00  0.00     0.092 C 
ATOM     28  C2  BDP d1178      12.049 -11.901   7.976  0.00  0.00     0.110 C 
ATOM     29  O4  BDP d1178      10.394 -12.242  11.212  0.00  0.00    -0.348 OA
ATOM     30  O5  BDP d1178       9.867 -10.934   7.876  0.00  0.00    -0.340 OA
ATOM     31  C4  BDP d1178      10.799 -11.529  10.078  0.00  0.00     0.103 C 
ATOM     32  H   BDP d1178      10.201 -12.803   7.262  0.00  0.00     0.133 H 
ATOM     33  H   BDP d1178      13.680 -12.976   9.651  0.00  0.00     0.210 HD
ATOM     34  H   BDP d1178      13.102 -12.442   6.420  0.00  0.00     0.210 HD
ATOM     35  H   BDP d1178       9.017 -12.202   9.139  0.00  0.00     0.104 H 
ATOM     36  H   BDP d1178      11.459 -13.408   9.332  0.00  0.00     0.091 H 
ATOM     37  H   BDP d1178      12.459 -10.913   7.994  0.00  0.00     0.094 H 
ATOM     38  H   BDP d1178      11.236 -10.577  10.296  0.00  0.00     0.092 H 
ATOM     39  C6  NAG d1177       8.152  -9.287   2.552  0.00  0.00     0.043 C 
ATOM     40  O4  NAG d1177       9.176  -9.494   5.351  0.00  0.00    -0.390 OA
ATOM     41  C2  NAG d1177      10.214 -12.805   3.979  0.00  0.00     0.087 C 
ATOM     42  C3  NAG d1177       9.894 -11.728   5.007  0.00  0.00     0.093 C 
ATOM     43  C7  NAG d1177      11.352 -14.908   4.571  0.00  0.00     0.214 C 
ATOM     44  N2  NAG d1177      10.315 -14.082   4.672  0.00  0.00    -0.349 N 
ATOM     45  C8  NAG d1177      11.094 -16.305   5.051  0.00  0.00    -0.003 C 
ATOM     46  O7  NAG d1177      12.465 -14.589   4.141  0.00  0.00    -0.274 OA
ATOM     47  O6  NAG d1177       8.714  -9.290   1.252  0.00  0.00    -0.398 OA
ATOM     48  C4  NAG d1177       9.582 -10.397   4.340  0.00  0.00     0.089 C 
ATOM     49  O5  NAG d1177       8.907 -11.556   2.342  0.00  0.00    -0.349 OA
ATOM     50  C5  NAG d1177       8.495 -10.585   3.282  0.00  0.00     0.089 C 
ATOM     51  C1  NAG d1177       9.130 -12.840   2.901  0.00  0.00     0.154 C 
ATOM     52  O3  NAG d1177      10.996 -11.544   5.866  0.00  0.00    -0.348 OA
ATOM     53  H   NAG d1177       8.544  -8.458   3.103  0.00  0.00     0.078 H 
ATOM     54  H   NAG d1177       7.088  -9.204   2.471  0.00  0.00     0.078 H 
ATOM     55  H   NAG d1177       9.887  -9.398   6.003  0.00  0.00     0.210 HD
ATOM     56  H   NAG d1177      11.143 -12.594   3.493  0.00  0.00     0.084 H 
ATOM     57  H   NAG d1177       9.036 -12.053   5.557  0.00  0.00     0.091 H 
ATOM     58  H   NAG d1177       9.567 -14.350   5.251  0.00  0.00     0.163 HD
ATOM     59  H   NAG d1177      10.080 -16.387   5.383  0.00  0.00     0.040 H 
ATOM     60  H   NAG d1177      11.754 -16.532   5.861  0.00  0.00     0.040 H 
ATOM     61  H   NAG d1177      11.263 -16.994   4.249  0.00  0.00     0.040 H 
ATOM     62  H   NAG d1177       9.679  -9.365   1.317  0.00  0.00     0.209 HD
ATOM     63  H   NAG d1177      10.443 -10.006   3.840  0.00  0.00     0.091 H 
ATOM     64  H   NAG d1177       7.612 -10.908   3.793  0.00  0.00     0.090 H 
ATOM     65  H   NAG d1177       8.199 -13.134   3.337  0.00  0.00     0.132 H 
ATOM     66  C6  NAG d1175       4.985 -20.788  -1.842  0.00  0.00     0.043 C 
ATOM     67  O3  NAG d1175       6.703 -16.201  -2.198  0.00  0.00    -0.348 OA
ATOM     68  C2  NAG d1175       6.514 -17.531  -4.181  0.00  0.00     0.087 C 
ATOM     69  O6  NAG d1175       4.988 -22.062  -2.442  0.00  0.00    -0.398 OA
ATOM     70  O1  NAG d1175       5.925 -18.924  -6.075  0.00  0.00    -0.369 OA
ATOM     71  C7  NAG d1175       7.104 -15.920  -5.922  0.00  0.00     0.214 C 
ATOM     72  N2  NAG d1175       7.480 -16.757  -4.954  0.00  0.00    -0.349 N 
ATOM     73  C5  NAG d1175       5.944 -19.895  -2.621  0.00  0.00     0.089 C 
ATOM     74  O5  NAG d1175       5.440 -19.666  -3.929  0.00  0.00    -0.349 OA
ATOM     75  C4  NAG d1175       6.175 -18.586  -1.863  0.00  0.00     0.089 C 
ATOM     76  O4  NAG d1175       6.893 -18.904  -0.685  0.00  0.00    -0.390 OA
ATOM     77  O7  NAG d1175       6.297 -14.999  -5.740  0.00  0.00    -0.274 OA
ATOM     78  C1  NAG d1175       6.368 -18.955  -4.733  0.00  0.00     0.151 C 
ATOM     79  C8  NAG d1175       7.733 -16.147  -7.269  0.00  0.00    -0.003 C 
ATOM     80  C3  NAG d1175       6.915 -17.522  -2.696  0.00  0.00     0.093 C 
ATOM     81  H   NAG d1175       3.999 -20.374  -1.873  0.00  0.00     0.078 H 
ATOM     82  H   NAG d1175       5.294 -20.858  -0.820  0.00  0.00     0.078 H 
ATOM     83  H   NAG d1175       5.550 -17.074  -4.270  0.00  0.00     0.084 H 
ATOM     84  H   NAG d1175       4.708 -21.985  -3.368  0.00  0.00     0.209 HD
ATOM     85  H   NAG d1175       6.565 -18.436  -6.616  0.00  0.00     0.212 HD
ATOM     86  H   NAG d1175       8.439 -16.857  -4.755  0.00  0.00     0.163 HD
ATOM     87  H   NAG d1175       6.890 -20.384  -2.718  0.00  0.00     0.090 H 
ATOM     88  H   NAG d1175       5.228 -18.143  -1.632  0.00  0.00     0.091 H 
ATOM     89  H   NAG d1175       7.745 -19.302  -0.924  0.00  0.00     0.210 HD
ATOM     90  H   NAG d1175       7.319 -19.445  -4.708  0.00  0.00     0.132 H 
ATOM     91  H   NAG d1175       8.396 -16.986  -7.216  0.00  0.00     0.040 H 
ATOM     92  H   NAG d1175       8.284 -15.277  -7.557  0.00  0.00     0.040 H 
ATOM     93  H   NAG d1175       6.969 -16.342  -7.992  0.00  0.00     0.040 H 
ATOM     94  H   NAG d1175       7.948 -17.788  -2.608  0.00  0.00     0.091 H 
ATOM     95  C4  NAG d1181       3.604 -12.988  23.119  0.00  0.00     0.089 C 
ATOM     96  C3  NAG d1181       4.108 -11.543  23.182  0.00  0.00     0.086 C 
ATOM     97  C6  NAG d1181       3.807 -15.233  21.970  0.00  0.00     0.043 C 
ATOM     98  C5  NAG d1181       4.462 -13.869  22.200  0.00  0.00     0.089 C 
ATOM     99  C7  NAG d1181       4.491  -8.611  21.431  0.00  0.00     0.214 C 
ATOM    100  C8  NAG d1181       4.191  -8.498  19.961  0.00  0.00    -0.003 C 
ATOM    101  N2  NAG d1181       5.095  -9.727  21.840  0.00  0.00    -0.349 N 
ATOM    102  O3  NAG d1181       3.140 -10.708  23.802  0.00  0.00    -0.391 OA
ATOM    103  C1  NAG d1181       5.300 -12.006  21.002  0.00  0.00     0.154 C 
ATOM    104  O6  NAG d1181       4.770 -16.163  21.519  0.00  0.00    -0.398 OA
ATOM    105  O5  NAG d1181       4.659 -13.257  20.937  0.00  0.00    -0.349 OA
ATOM    106  O7  NAG d1181       4.182  -7.708  22.212  0.00  0.00    -0.274 OA
ATOM    107  O4  NAG d1181       3.592 -13.533  24.419  0.00  0.00    -0.390 OA
ATOM    108  C2  NAG d1181       4.431 -11.020  21.780  0.00  0.00     0.087 C 
ATOM    109  H   NAG d1181       2.616 -12.968  22.708  0.00  0.00     0.091 H 
ATOM    110  H   NAG d1181       5.003 -11.526  23.767  0.00  0.00     0.090 H 
ATOM    111  H   NAG d1181       3.037 -15.137  21.234  0.00  0.00     0.078 H 
ATOM    112  H   NAG d1181       3.389 -15.581  22.891  0.00  0.00     0.078 H 
ATOM    113  H   NAG d1181       5.404 -13.996  22.692  0.00  0.00     0.090 H 
ATOM    114  H   NAG d1181       4.534  -9.378  19.458  0.00  0.00     0.040 H 
ATOM    115  H   NAG d1181       4.691  -7.640  19.561  0.00  0.00     0.040 H 
ATOM    116  H   NAG d1181       3.135  -8.394  19.818  0.00  0.00     0.040 H 
ATOM    117  H   NAG d1181       6.013  -9.674  22.192  0.00  0.00     0.163 HD
ATOM    118  H   NAG d1181       2.323 -10.716  23.279  0.00  0.00     0.210 HD
ATOM    119  H   NAG d1181       6.242 -12.156  21.487  0.00  0.00     0.132 H 
ATOM    120  H   NAG d1181       5.153 -15.852  20.684  0.00  0.00     0.209 HD
ATOM    121  H   NAG d1181       4.494 -13.542  24.774  0.00  0.00     0.210 HD
ATOM    122  H   NAG d1181       3.498 -10.909  21.267  0.00  0.00     0.084 H 
ATOM    123  C7  NAG d1179       7.610 -13.439  12.540  0.00  0.00     0.214 C 
ATOM    124  C1  NAG d1179      10.449 -11.504  12.444  0.00  0.00     0.154 C 
ATOM    125  C2  NAG d1179       9.554 -12.282  13.400  0.00  0.00     0.087 C 
ATOM    126  O5  NAG d1179      11.756 -11.420  12.970  0.00  0.00    -0.349 OA
ATOM    127  O7  NAG d1179       7.875 -14.524  13.054  0.00  0.00    -0.274 OA
ATOM    128  O4  NAG d1179      11.133 -11.012  16.546  0.00  0.00    -0.390 OA
ATOM    129  N2  NAG d1179       8.182 -12.298  12.919  0.00  0.00    -0.349 N 
ATOM    130  C8  NAG d1179       6.601 -13.372  11.435  0.00  0.00    -0.003 C 
ATOM    131  O3  NAG d1179       9.027 -12.784  15.672  0.00  0.00    -0.348 OA
ATOM    132  C4  NAG d1179      11.080 -11.615  15.270  0.00  0.00     0.089 C 
ATOM    133  C5  NAG d1179      11.818 -10.771  14.228  0.00  0.00     0.089 C 
ATOM    134  O6  NAG d1179      13.962 -11.767  14.767  0.00  0.00    -0.398 OA
ATOM    135  C3  NAG d1179       9.626 -11.802  14.847  0.00  0.00     0.093 C 
ATOM    136  C6  NAG d1179      13.283 -10.536  14.599  0.00  0.00     0.043 C 
ATOM    137  H   NAG d1179      10.135 -10.492  12.294  0.00  0.00     0.132 H 
ATOM    138  H   NAG d1179       9.934 -13.283  13.412  0.00  0.00     0.084 H 
ATOM    139  H   NAG d1179      10.658 -11.567  17.185  0.00  0.00     0.210 HD
ATOM    140  H   NAG d1179       7.671 -11.457  12.873  0.00  0.00     0.163 HD
ATOM    141  H   NAG d1179       6.496 -12.359  11.108  0.00  0.00     0.040 H 
ATOM    142  H   NAG d1179       5.658 -13.732  11.791  0.00  0.00     0.040 H 
ATOM    143  H   NAG d1179       6.927 -13.978  10.616  0.00  0.00     0.040 H 
ATOM    144  H   NAG d1179      11.562 -12.568  15.329  0.00  0.00     0.091 H 
ATOM    145  H   NAG d1179      11.337  -9.816  14.189  0.00  0.00     0.090 H 
ATOM    146  H   NAG d1179      14.888 -11.597  15.001  0.00  0.00     0.209 HD
ATOM    147  H   NAG d1179       9.117 -10.866  14.942  0.00  0.00     0.091 H 
ATOM    148  H   NAG d1179      13.329  -9.982  15.513  0.00  0.00     0.078 H 
ATOM    149  H   NAG d1179      13.753  -9.990  13.808  0.00  0.00     0.078 H 
ATOM    150  C6  BDP d1180       8.032 -10.007  19.365  0.00  0.00     0.206 C 
ATOM    151  O3  BDP d1180       5.615 -14.244  18.590  0.00  0.00    -0.390 OA
ATOM    152  C1  BDP d1180       7.956 -12.253  16.467  0.00  0.00     0.160 C 
ATOM    153  O2  BDP d1180       6.248 -13.704  15.681  0.00  0.00    -0.388 OA
ATOM    154  C3  BDP d1180       6.014 -13.043  17.961  0.00  0.00     0.092 C 
ATOM    155  O4  BDP d1180       5.522 -11.458  19.692  0.00  0.00    -0.348 OA
ATOM    156  O5  BDP d1180       8.465 -11.630  17.625  0.00  0.00    -0.340 OA
ATOM    157  C5  BDP d1180       7.439 -11.001  18.366  0.00  0.00     0.152 C 
ATOM    158  O6B BDP d1180       8.939 -10.407  20.136  0.00  0.00    -0.646 OA
ATOM    159  O6A BDP d1180       7.585  -8.835  19.348  0.00  0.00    -0.646 OA
ATOM    160  C2  BDP d1180       6.997 -13.386  16.835  0.00  0.00     0.110 C 
ATOM    161  C4  BDP d1180       6.585 -12.088  19.014  0.00  0.00     0.103 C 
ATOM    162  H   BDP d1180       5.253 -14.852  17.926  0.00  0.00     0.210 HD
ATOM    163  H   BDP d1180       7.425 -11.514  15.904  0.00  0.00     0.133 H 
ATOM    164  H   BDP d1180       6.852 -13.924  14.954  0.00  0.00     0.210 HD
ATOM    165  H   BDP d1180       5.187 -12.535  17.512  0.00  0.00     0.091 H 
ATOM    166  H   BDP d1180       6.804 -10.421  17.731  0.00  0.00     0.104 H 
ATOM    167  H   BDP d1180       7.596 -14.198  17.190  0.00  0.00     0.094 H 
ATOM    168  H   BDP d1180       7.190 -12.660  19.687  0.00  0.00     0.092 H 
ENDROOT
TORSDOF 43
ENDMDL
MODEL 41
REMARK VINA RESULT:      -6.3      5.888      7.046
REMARK  0 active torsions:
REMARK  status: ('A' for Active; 'I' for Inactive)
REMARK       I    between atoms: C1_1  and  O3_15 
REMARK       I    between atoms: C1_2  and  O3_93 
REMARK       I    between atoms: C6_3  and  C5_89 
REMARK       I    between atoms: C6_3  and  O6_76 
REMARK       I    between atoms: O3_4  and  C3_22 
REMARK       I    between atoms: C6_5  and  C5_48 
REMARK       I    between atoms: C6_5  and  O6_31 
REMARK       I    between atoms: C4_6  and  O4_74 
REMARK       I    between atoms: C7_7  and  C8_62 
REMARK       I    between atoms: C7_7  and  N2_60 
REMARK       I    between atoms: C6_8  and  C5_52 
REMARK       I    between atoms: C3_9  and  O3_38 
REMARK       I    between atoms: C1_10  and  O4_75 
REMARK       I    between atoms: C6_12  and  C5_51 
REMARK       I    between atoms: O3_13  and  C3_42 
REMARK       I    between atoms: O4_14  and  C4_84 
REMARK       I    between atoms: O3_15  and  C3_86 
REMARK       I    between atoms: C6_16  and  C5_23 
REMARK       I    between atoms: C6_16  and  O6_58 
REMARK       I    between atoms: C1_17  and  O3_63 
REMARK       I    between atoms: C2_18  and  N2_60 
REMARK       I    between atoms: C2_19  and  N2_53 
REMARK       I    between atoms: O2_20  and  C2_66 
REMARK       I    between atoms: C3_25  and  O3_93 
REMARK       I    between atoms: C7_26  and  C8_32 
REMARK       I    between atoms: C7_26  and  N2_37 
REMARK       I    between atoms: C2_28  and  N2_44 
REMARK       I    between atoms: C7_29  and  C8_54 
REMARK       I    between atoms: C7_29  and  N2_53 
REMARK       I    between atoms: O1_33  and  C1_80 
REMARK       I    between atoms: O4_34  and  C4_40 
REMARK       I    between atoms: O4_34  and  C1_92 
REMARK       I    between atoms: C7_36  and  C8_81 
REMARK       I    between atoms: C7_36  and  N2_44 
REMARK       I    between atoms: N2_37  and  C2_83 
REMARK       I    between atoms: O3_39  and  C3_61 
REMARK       I    between atoms: C1_41  and  O4_46 
REMARK       I    between atoms: O2_43  and  C2_73 
REMARK       I    between atoms: C6_45  and  C5_87 
REMARK       I    between atoms: O4_46  and  C4_67 
REMARK       I    between atoms: C4_50  and  O4_65 
REMARK       I    between atoms: C2_55  and  O2_82 
REMARK       I    between atoms: O4_57  and  C4_71 
REMARK       I    between atoms: O3_63  and  C3_85 
REMARK       I    between atoms: O4_75  and  C4_91 
REMARK       I    between atoms: C5_77  and  C6_90 
REMARK       I    between atoms: O6_79  and  C6_90 
ROOT
ATOM      1  C1  BDP d1176      13.426 -11.598  16.916  0.00  0.00     0.160 C 
ATOM      2  O3  BDP d1176      14.299 -14.898  15.327  0.00  0.00    -0.390 OA
ATOM      3  O5  BDP d1176      12.761 -11.226  15.742  0.00  0.00    -0.340 OA
ATOM      4  O6A BDP d1176      11.631 -11.007  13.289  0.00  0.00    -0.646 OA
ATOM      5  C3  BDP d1176      14.422 -13.498  15.480  0.00  0.00     0.092 C 
ATOM      6  O4  BDP d1176      14.702 -12.901  13.185  0.00  0.00    -0.348 OA
ATOM      7  C4  BDP d1176      13.803 -12.808  14.274  0.00  0.00     0.103 C 
ATOM      8  C6  BDP d1176      12.805 -10.637  13.482  0.00  0.00     0.206 C 
ATOM      9  C2  BDP d1176      13.849 -13.070  16.829  0.00  0.00     0.110 C 
ATOM     10  O6B BDP d1176      13.407  -9.746  12.847  0.00  0.00    -0.646 OA
ATOM     11  O2  BDP d1176      14.869 -13.300  17.771  0.00  0.00    -0.388 OA
ATOM     12  C5  BDP d1176      13.552 -11.340  14.595  0.00  0.00     0.152 C 
ATOM     13  H   BDP d1176      14.309 -11.010  17.053  0.00  0.00     0.133 H 
ATOM     14  H   BDP d1176      14.693 -15.343  16.094  0.00  0.00     0.210 HD
ATOM     15  H   BDP d1176      15.449 -13.197  15.500  0.00  0.00     0.091 H 
ATOM     16  H   BDP d1176      12.874 -13.277  14.027  0.00  0.00     0.092 H 
ATOM     17  H   BDP d1176      12.954 -13.631  17.000  0.00  0.00     0.094 H 
ATOM     18  H   BDP d1176      15.642 -12.759  17.549  0.00  0.00     0.210 HD
ATOM     19  H   BDP d1176      14.515 -10.891  14.729  0.00  0.00     0.104 H 
ATOM     20  C1  BDP d1178      14.997 -14.121   7.522  0.00  0.00     0.160 C 
ATOM     21  C6  BDP d1178      12.709 -15.824   5.121  0.00  0.00     0.206 C 
ATOM     22  O6B BDP d1178      11.659 -15.467   4.536  0.00  0.00    -0.646 OA
ATOM     23  O6A BDP d1178      13.111 -17.011   5.195  0.00  0.00    -0.646 OA
ATOM     24  O3  BDP d1178      16.539 -12.935   4.342  0.00  0.00    -0.390 OA
ATOM     25  O2  BDP d1178      17.010 -12.862   7.105  0.00  0.00    -0.388 OA
ATOM     26  C5  BDP d1178      13.541 -14.706   5.753  0.00  0.00     0.152 C 
ATOM     27  C3  BDP d1178      15.530 -13.212   5.287  0.00  0.00     0.092 C 
ATOM     28  C2  BDP d1178      16.121 -13.796   6.545  0.00  0.00     0.110 C 
ATOM     29  O4  BDP d1178      13.776 -13.446   3.770  0.00  0.00    -0.348 OA
ATOM     30  O5  BDP d1178      14.176 -15.120   6.957  0.00  0.00    -0.340 OA
ATOM     31  C4  BDP d1178      14.515 -14.181   4.704  0.00  0.00     0.103 C 
ATOM     32  H   BDP d1178      14.360 -13.284   7.717  0.00  0.00     0.133 H 
ATOM     33  H   BDP d1178      17.180 -12.316   4.726  0.00  0.00     0.210 HD
ATOM     34  H   BDP d1178      17.395 -13.228   7.916  0.00  0.00     0.210 HD
ATOM     35  H   BDP d1178      12.899 -13.903   6.054  0.00  0.00     0.104 H 
ATOM     36  H   BDP d1178      15.041 -12.292   5.530  0.00  0.00     0.091 H 
ATOM     37  H   BDP d1178      16.656 -14.696   6.325  0.00  0.00     0.094 H 
ATOM     38  H   BDP d1178      15.028 -15.023   4.288  0.00  0.00     0.092 H 
ATOM     39  C6  NAG d1177      13.906 -17.503  12.271  0.00  0.00     0.043 C 
ATOM     40  O4  NAG d1177      14.261 -16.876   9.372  0.00  0.00    -0.390 OA
ATOM     41  C2  NAG d1177      15.080 -13.575  10.907  0.00  0.00     0.087 C 
ATOM     42  C3  NAG d1177      14.705 -14.594   9.839  0.00  0.00     0.093 C 
ATOM     43  C7  NAG d1177      15.746 -11.266  10.364  0.00  0.00     0.214 C 
ATOM     44  N2  NAG d1177      14.843 -12.242  10.371  0.00  0.00    -0.349 N 
ATOM     45  C8  NAG d1177      15.191  -9.895  10.121  0.00  0.00    -0.003 C 
ATOM     46  O7  NAG d1177      16.960 -11.432  10.523  0.00  0.00    -0.274 OA
ATOM     47  O6  NAG d1177      14.728 -17.523  13.424  0.00  0.00    -0.398 OA
ATOM     48  C4  NAG d1177      14.740 -16.013  10.385  0.00  0.00     0.089 C 
ATOM     49  O5  NAG d1177      14.351 -15.168  12.605  0.00  0.00    -0.349 OA
ATOM     50  C5  NAG d1177      13.891 -16.105  11.653  0.00  0.00     0.089 C 
ATOM     51  C1  NAG d1177      14.260 -13.819  12.175  0.00  0.00     0.154 C 
ATOM     52  O3  NAG d1177      15.611 -14.512   8.762  0.00  0.00    -0.348 OA
ATOM     53  H   NAG d1177      14.285 -18.201  11.556  0.00  0.00     0.078 H 
ATOM     54  H   NAG d1177      12.908 -17.769  12.552  0.00  0.00     0.078 H 
ATOM     55  H   NAG d1177      14.822 -16.792   8.585  0.00  0.00     0.210 HD
ATOM     56  H   NAG d1177      16.112 -13.671  11.170  0.00  0.00     0.084 H 
ATOM     57  H   NAG d1177      13.711 -14.368   9.515  0.00  0.00     0.091 H 
ATOM     58  H   NAG d1177      13.956 -12.052   9.989  0.00  0.00     0.163 HD
ATOM     59  H   NAG d1177      14.129  -9.955  10.010  0.00  0.00     0.040 H 
ATOM     60  H   NAG d1177      15.621  -9.488   9.230  0.00  0.00     0.040 H 
ATOM     61  H   NAG d1177      15.427  -9.262  10.952  0.00  0.00     0.040 H 
ATOM     62  H   NAG d1177      15.635 -17.281  13.179  0.00  0.00     0.209 HD
ATOM     63  H   NAG d1177      15.736 -16.297  10.653  0.00  0.00     0.091 H 
ATOM     64  H   NAG d1177      12.882 -15.890  11.371  0.00  0.00     0.090 H 
ATOM     65  H   NAG d1177      13.224 -13.647  11.972  0.00  0.00     0.132 H 
ATOM     66  C6  NAG d1175      10.127  -7.138  18.587  0.00  0.00     0.043 C 
ATOM     67  O3  NAG d1175      12.527 -11.385  18.028  0.00  0.00    -0.348 OA
ATOM     68  C2  NAG d1175      12.580 -10.289  20.158  0.00  0.00     0.087 C 
ATOM     69  O6  NAG d1175      10.075  -5.940  19.327  0.00  0.00    -0.398 OA
ATOM     70  O1  NAG d1175      12.217  -9.191  22.288  0.00  0.00    -0.369 OA
ATOM     71  C7  NAG d1175      13.758 -11.929  21.536  0.00  0.00     0.214 C 
ATOM     72  N2  NAG d1175      13.792 -10.957  20.622  0.00  0.00    -0.349 N 
ATOM     73  C5  NAG d1175      11.350  -7.924  19.045  0.00  0.00     0.089 C 
ATOM     74  O5  NAG d1175      11.179  -8.350  20.388  0.00  0.00    -0.349 OA
ATOM     75  C4  NAG d1175      11.600  -9.102  18.101  0.00  0.00     0.089 C 
ATOM     76  O4  NAG d1175      11.993  -8.563  16.852  0.00  0.00    -0.390 OA
ATOM     77  O7  NAG d1175      13.074 -12.951  21.405  0.00  0.00    -0.274 OA
ATOM     78  C1  NAG d1175      12.351  -8.965  20.898  0.00  0.00     0.151 C 
ATOM     79  C8  NAG d1175      14.623 -11.722  22.748  0.00  0.00    -0.003 C 
ATOM     80  C3  NAG d1175      12.648 -10.097  18.633  0.00  0.00     0.093 C 
ATOM     81  H   NAG d1175       9.241  -7.711  18.762  0.00  0.00     0.078 H 
ATOM     82  H   NAG d1175      10.195  -6.925  17.541  0.00  0.00     0.078 H 
ATOM     83  H   NAG d1175      11.734 -10.907  20.379  0.00  0.00     0.084 H 
ATOM     84  H   NAG d1175      10.015  -6.146  20.273  0.00  0.00     0.209 HD
ATOM     85  H   NAG d1175      13.023  -9.612  22.627  0.00  0.00     0.212 HD
ATOM     86  H   NAG d1175      14.660 -10.681  20.251  0.00  0.00     0.163 HD
ATOM     87  H   NAG d1175      12.214  -7.293  19.011  0.00  0.00     0.090 H 
ATOM     88  H   NAG d1175      10.700  -9.674  18.010  0.00  0.00     0.091 H 
ATOM     89  H   NAG d1175      12.810  -8.051  16.964  0.00  0.00     0.210 HD
ATOM     90  H   NAG d1175      13.193  -8.323  20.745  0.00  0.00     0.132 H 
ATOM     91  H   NAG d1175      15.130 -10.783  22.669  0.00  0.00     0.040 H 
ATOM     92  H   NAG d1175      15.343 -12.510  22.812  0.00  0.00     0.040 H 
ATOM     93  H   NAG d1175      14.013 -11.723  23.627  0.00  0.00     0.040 H 
ATOM     94  H   NAG d1175      13.588  -9.656  18.375  0.00  0.00     0.091 H 
ATOM     95  C4  NAG d1181       4.545 -12.780  -6.368  0.00  0.00     0.089 C 
ATOM     96  C3  NAG d1181       5.228 -14.108  -6.708  0.00  0.00     0.086 C 
ATOM     97  C6  NAG d1181       4.663 -10.644  -5.015  0.00  0.00     0.043 C 
ATOM     98  C5  NAG d1181       5.444 -11.853  -5.537  0.00  0.00     0.089 C 
ATOM     99  C7  NAG d1181       6.400 -17.080  -5.442  0.00  0.00     0.214 C 
ATOM    100  C8  NAG d1181       6.444 -17.374  -3.967  0.00  0.00    -0.003 C 
ATOM    101  N2  NAG d1181       6.733 -15.847  -5.822  0.00  0.00    -0.349 N 
ATOM    102  O3  NAG d1181       4.281 -15.034  -7.221  0.00  0.00    -0.391 OA
ATOM    103  C1  NAG d1181       6.782 -13.650  -4.768  0.00  0.00     0.154 C 
ATOM    104  O6  NAG d1181       5.556  -9.611  -4.654  0.00  0.00    -0.398 OA
ATOM    105  O5  NAG d1181       5.995 -12.535  -4.423  0.00  0.00    -0.349 OA
ATOM    106  O7  NAG d1181       6.065 -17.948  -6.251  0.00  0.00    -0.274 OA
ATOM    107  O4  NAG d1181       4.174 -12.130  -7.563  0.00  0.00    -0.390 OA
ATOM    108  C2  NAG d1181       5.917 -14.693  -5.473  0.00  0.00     0.087 C 
ATOM    109  H   NAG d1181       3.682 -13.002  -5.775  0.00  0.00     0.091 H 
ATOM    110  H   NAG d1181       5.969 -13.922  -7.456  0.00  0.00     0.090 H 
ATOM    111  H   NAG d1181       4.092 -10.934  -4.159  0.00  0.00     0.078 H 
ATOM    112  H   NAG d1181       4.011 -10.290  -5.785  0.00  0.00     0.078 H 
ATOM    113  H   NAG d1181       6.229 -11.526  -6.187  0.00  0.00     0.090 H 
ATOM    114  H   NAG d1181       6.756 -16.498  -3.438  0.00  0.00     0.040 H 
ATOM    115  H   NAG d1181       7.137 -18.168  -3.782  0.00  0.00     0.040 H 
ATOM    116  H   NAG d1181       5.470 -17.665  -3.631  0.00  0.00     0.040 H 
ATOM    117  H   NAG d1181       7.552 -15.713  -6.353  0.00  0.00     0.163 HD
ATOM    118  H   NAG d1181       3.603 -15.210  -6.549  0.00  0.00     0.210 HD
ATOM    119  H   NAG d1181       7.565 -13.302  -5.408  0.00  0.00     0.132 H 
ATOM    120  H   NAG d1181       6.150  -9.927  -3.956  0.00  0.00     0.209 HD
ATOM    121  H   NAG d1181       4.968 -11.937  -8.086  0.00  0.00     0.210 HD
ATOM    122  H   NAG d1181       5.144 -15.005  -4.802  0.00  0.00     0.084 H 
ATOM    123  C7  NAG d1179      10.628 -12.618   3.178  0.00  0.00     0.214 C 
ATOM    124  C1  NAG d1179      13.671 -14.051   2.470  0.00  0.00     0.154 C 
ATOM    125  C2  NAG d1179      12.488 -13.351   1.814  0.00  0.00     0.087 C 
ATOM    126  O5  NAG d1179      14.832 -13.867   1.688  0.00  0.00    -0.349 OA
ATOM    127  O7  NAG d1179      10.616 -11.462   2.759  0.00  0.00    -0.274 OA
ATOM    128  O4  NAG d1179      13.519 -14.050  -1.715  0.00  0.00    -0.390 OA
ATOM    129  N2  NAG d1179      11.264 -13.609   2.556  0.00  0.00    -0.349 N 
ATOM    130  C8  NAG d1179       9.902 -12.952   4.445  0.00  0.00    -0.003 C 
ATOM    131  O3  NAG d1179      11.416 -12.742  -0.229  0.00  0.00    -0.348 OA
ATOM    132  C4  NAG d1179      13.655 -13.582  -0.389  0.00  0.00     0.089 C 
ATOM    133  C5  NAG d1179      14.715 -14.381   0.373  0.00  0.00     0.089 C 
ATOM    134  O6  NAG d1179      16.525 -12.995  -0.454  0.00  0.00    -0.398 OA
ATOM    135  C3  NAG d1179      12.316 -13.680   0.333  0.00  0.00     0.093 C 
ATOM    136  C6  NAG d1179      16.084 -14.333  -0.307  0.00  0.00     0.043 C 
ATOM    137  H   NAG d1179      13.547 -15.110   2.554  0.00  0.00     0.132 H 
ATOM    138  H   NAG d1179      12.707 -12.304   1.850  0.00  0.00     0.084 H 
ATOM    139  H   NAG d1179      12.842 -13.527  -2.174  0.00  0.00     0.210 HD
ATOM    140  H   NAG d1179      10.902 -14.523   2.598  0.00  0.00     0.163 HD
ATOM    141  H   NAG d1179      10.018 -13.994   4.659  0.00  0.00     0.040 H 
ATOM    142  H   NAG d1179       8.862 -12.725   4.330  0.00  0.00     0.040 H 
ATOM    143  H   NAG d1179      10.305 -12.376   5.251  0.00  0.00     0.040 H 
ATOM    144  H   NAG d1179      13.970 -12.560  -0.426  0.00  0.00     0.091 H 
ATOM    145  H   NAG d1179      14.397 -15.402   0.389  0.00  0.00     0.090 H 
ATOM    146  H   NAG d1179      17.393 -12.986  -0.886  0.00  0.00     0.209 HD
ATOM    147  H   NAG d1179      11.939 -14.675   0.227  0.00  0.00     0.091 H 
ATOM    148  H   NAG d1179      16.012 -14.787  -1.273  0.00  0.00     0.078 H 
ATOM    149  H   NAG d1179      16.787 -14.862   0.302  0.00  0.00     0.078 H 
ATOM    150  C6  BDP d1180      10.063 -15.303  -3.964  0.00  0.00     0.206 C 
ATOM    151  O3  BDP d1180       7.282 -11.617  -2.210  0.00  0.00    -0.390 OA
ATOM    152  C1  BDP d1180      10.288 -13.371  -0.854  0.00  0.00     0.160 C 
ATOM    153  O2  BDP d1180       8.598 -12.303   0.427  0.00  0.00    -0.388 OA
ATOM    154  C3  BDP d1180       7.976 -12.786  -1.825  0.00  0.00     0.092 C 
ATOM    155  O4  BDP d1180       7.358 -14.269  -3.606  0.00  0.00    -0.348 OA
ATOM    156  O5  BDP d1180      10.620 -13.793  -2.158  0.00  0.00    -0.340 OA
ATOM    157  C5  BDP d1180       9.561 -14.515  -2.752  0.00  0.00     0.152 C 
ATOM    158  O6B BDP d1180      10.714 -14.689  -4.844  0.00  0.00    -0.646 OA
ATOM    159  O6A BDP d1180       9.805 -16.530  -4.003  0.00  0.00    -0.646 OA
ATOM    160  C2  BDP d1180       9.119 -12.386  -0.883  0.00  0.00     0.110 C 
ATOM    161  C4  BDP d1180       8.439 -13.533  -3.080  0.00  0.00     0.103 C 
ATOM    162  H   BDP d1180       6.987 -11.140  -1.417  0.00  0.00     0.210 HD
ATOM    163  H   BDP d1180      10.004 -14.236  -0.293  0.00  0.00     0.133 H 
ATOM    164  H   BDP d1180       9.305 -12.051   1.041  0.00  0.00     0.210 HD
ATOM    165  H   BDP d1180       7.348 -13.464  -1.287  0.00  0.00     0.091 H 
ATOM    166  H   BDP d1180       9.169 -15.249  -2.080  0.00  0.00     0.104 H 
ATOM    167  H   BDP d1180       9.502 -11.457  -1.247  0.00  0.00     0.094 H 
ATOM    168  H   BDP d1180       8.796 -12.810  -3.784  0.00  0.00     0.092 H 
ENDROOT
TORSDOF 43
ENDMDL
MODEL 42
REMARK VINA RESULT:      -6.3      4.865     18.414
REMARK  0 active torsions:
REMARK  status: ('A' for Active; 'I' for Inactive)
REMARK       I    between atoms: C1_1  and  O3_15 
REMARK       I    between atoms: C1_2  and  O3_93 
REMARK       I    between atoms: C6_3  and  C5_89 
REMARK       I    between atoms: C6_3  and  O6_76 
REMARK       I    between atoms: O3_4  and  C3_22 
REMARK       I    between atoms: C6_5  and  C5_48 
REMARK       I    between atoms: C6_5  and  O6_31 
REMARK       I    between atoms: C4_6  and  O4_74 
REMARK       I    between atoms: C7_7  and  C8_62 
REMARK       I    between atoms: C7_7  and  N2_60 
REMARK       I    between atoms: C6_8  and  C5_52 
REMARK       I    between atoms: C3_9  and  O3_38 
REMARK       I    between atoms: C1_10  and  O4_75 
REMARK       I    between atoms: C6_12  and  C5_51 
REMARK       I    between atoms: O3_13  and  C3_42 
REMARK       I    between atoms: O4_14  and  C4_84 
REMARK       I    between atoms: O3_15  and  C3_86 
REMARK       I    between atoms: C6_16  and  C5_23 
REMARK       I    between atoms: C6_16  and  O6_58 
REMARK       I    between atoms: C1_17  and  O3_63 
REMARK       I    between atoms: C2_18  and  N2_60 
REMARK       I    between atoms: C2_19  and  N2_53 
REMARK       I    between atoms: O2_20  and  C2_66 
REMARK       I    between atoms: C3_25  and  O3_93 
REMARK       I    between atoms: C7_26  and  C8_32 
REMARK       I    between atoms: C7_26  and  N2_37 
REMARK       I    between atoms: C2_28  and  N2_44 
REMARK       I    between atoms: C7_29  and  C8_54 
REMARK       I    between atoms: C7_29  and  N2_53 
REMARK       I    between atoms: O1_33  and  C1_80 
REMARK       I    between atoms: O4_34  and  C4_40 
REMARK       I    between atoms: O4_34  and  C1_92 
REMARK       I    between atoms: C7_36  and  C8_81 
REMARK       I    between atoms: C7_36  and  N2_44 
REMARK       I    between atoms: N2_37  and  C2_83 
REMARK       I    between atoms: O3_39  and  C3_61 
REMARK       I    between atoms: C1_41  and  O4_46 
REMARK       I    between atoms: O2_43  and  C2_73 
REMARK       I    between atoms: C6_45  and  C5_87 
REMARK       I    between atoms: O4_46  and  C4_67 
REMARK       I    between atoms: C4_50  and  O4_65 
REMARK       I    between atoms: C2_55  and  O2_82 
REMARK       I    between atoms: O4_57  and  C4_71 
REMARK       I    between atoms: O3_63  and  C3_85 
REMARK       I    between atoms: O4_75  and  C4_91 
REMARK       I    between atoms: C5_77  and  C6_90 
REMARK       I    between atoms: O6_79  and  C6_90 
ROOT
ATOM      1  C1  BDP d1176       7.282 -15.793  -4.264  0.00  0.00     0.160 C 
ATOM      2  O3  BDP d1176      10.662 -14.186  -3.852  0.00  0.00    -0.390 OA
ATOM      3  O5  BDP d1176       7.019 -15.551  -2.911  0.00  0.00    -0.340 OA
ATOM      4  O6A BDP d1176       7.016 -14.854  -0.292  0.00  0.00    -0.646 OA
ATOM      5  C3  BDP d1176       9.726 -15.227  -3.656  0.00  0.00     0.092 C 
ATOM      6  O4  BDP d1176      10.305 -15.824  -1.417  0.00  0.00    -0.348 OA
ATOM      7  C4  BDP d1176       9.285 -15.234  -2.200  0.00  0.00     0.103 C 
ATOM      8  C6  BDP d1176       7.441 -15.969  -0.652  0.00  0.00     0.206 C 
ATOM      9  C2  BDP d1176       8.592 -15.105  -4.670  0.00  0.00     0.110 C 
ATOM     10  O6B BDP d1176       7.438 -17.012   0.035  0.00  0.00    -0.646 OA
ATOM     11  O2  BDP d1176       9.065 -15.703  -5.852  0.00  0.00    -0.388 OA
ATOM     12  C5  BDP d1176       8.006 -16.048  -2.054  0.00  0.00     0.152 C 
ATOM     13  H   BDP d1176       7.393 -16.842  -4.445  0.00  0.00     0.133 H 
ATOM     14  H   BDP d1176      10.946 -14.178  -4.779  0.00  0.00     0.210 HD
ATOM     15  H   BDP d1176      10.166 -16.186  -3.837  0.00  0.00     0.091 H 
ATOM     16  H   BDP d1176       9.103 -14.231  -1.873  0.00  0.00     0.092 H 
ATOM     17  H   BDP d1176       8.346 -14.068  -4.767  0.00  0.00     0.094 H 
ATOM     18  H   BDP d1176       9.265 -16.637  -5.684  0.00  0.00     0.210 HD
ATOM     19  H   BDP d1176       8.263 -17.060  -2.288  0.00  0.00     0.104 H 
ATOM     20  C1  BDP d1178      13.331 -15.178   3.490  0.00  0.00     0.160 C 
ATOM     21  C6  BDP d1178      13.891 -12.328   5.826  0.00  0.00     0.206 C 
ATOM     22  O6B BDP d1178      13.184 -11.795   6.715  0.00  0.00    -0.646 OA
ATOM     23  O6A BDP d1178      14.935 -11.818   5.350  0.00  0.00    -0.646 OA
ATOM     24  O3  BDP d1178      14.623 -17.097   6.413  0.00  0.00    -0.390 OA
ATOM     25  O2  BDP d1178      13.896 -17.509   3.737  0.00  0.00    -0.388 OA
ATOM     26  C5  BDP d1178      13.430 -13.702   5.334  0.00  0.00     0.152 C 
ATOM     27  C3  BDP d1178      13.837 -16.173   5.695  0.00  0.00     0.092 C 
ATOM     28  C2  BDP d1178      14.169 -16.219   4.224  0.00  0.00     0.110 C 
ATOM     29  O4  BDP d1178      13.417 -14.717   7.465  0.00  0.00    -0.348 OA
ATOM     30  O5  BDP d1178      13.693 -13.895   3.949  0.00  0.00    -0.340 OA
ATOM     31  C4  BDP d1178      14.061 -14.767   6.224  0.00  0.00     0.103 C 
ATOM     32  H   BDP d1178      12.283 -15.280   3.678  0.00  0.00     0.133 H 
ATOM     33  H   BDP d1178      14.471 -17.990   6.066  0.00  0.00     0.210 HD
ATOM     34  H   BDP d1178      14.106 -17.548   2.791  0.00  0.00     0.210 HD
ATOM     35  H   BDP d1178      12.365 -13.777   5.415  0.00  0.00     0.104 H 
ATOM     36  H   BDP d1178      12.809 -16.440   5.825  0.00  0.00     0.091 H 
ATOM     37  H   BDP d1178      15.204 -16.000   4.067  0.00  0.00     0.094 H 
ATOM     38  H   BDP d1178      15.112 -14.570   6.270  0.00  0.00     0.092 H 
ATOM     39  C6  NAG d1177      13.277 -12.111  -1.587  0.00  0.00     0.043 C 
ATOM     40  O4  NAG d1177      14.098 -12.780   1.207  0.00  0.00    -0.390 OA
ATOM     41  C2  NAG d1177      11.813 -15.630   0.447  0.00  0.00     0.087 C 
ATOM     42  C3  NAG d1177      12.651 -14.657   1.267  0.00  0.00     0.093 C 
ATOM     43  C7  NAG d1177      10.846 -17.684   1.406  0.00  0.00     0.214 C 
ATOM     44  N2  NAG d1177      10.938 -16.357   1.355  0.00  0.00    -0.349 N 
ATOM     45  C8  NAG d1177       9.639 -18.205   2.125  0.00  0.00    -0.003 C 
ATOM     46  O7  NAG d1177      11.677 -18.463   0.928  0.00  0.00    -0.274 OA
ATOM     47  O6  NAG d1177      13.407 -12.708  -2.864  0.00  0.00    -0.398 OA
ATOM     48  C4  NAG d1177      13.453 -13.723   0.373  0.00  0.00     0.089 C 
ATOM     49  O5  NAG d1177      11.842 -14.024  -1.389  0.00  0.00    -0.349 OA
ATOM     50  C5  NAG d1177      12.528 -13.045  -0.637  0.00  0.00     0.089 C 
ATOM     51  C1  NAG d1177      11.011 -14.870  -0.610  0.00  0.00     0.154 C 
ATOM     52  O3  NAG d1177      13.551 -15.371   2.082  0.00  0.00    -0.348 OA
ATOM     53  H   NAG d1177      14.250 -11.911  -1.190  0.00  0.00     0.078 H 
ATOM     54  H   NAG d1177      12.726 -11.198  -1.684  0.00  0.00     0.078 H 
ATOM     55  H   NAG d1177      14.675 -13.243   1.833  0.00  0.00     0.210 HD
ATOM     56  H   NAG d1177      12.443 -16.325  -0.067  0.00  0.00     0.084 H 
ATOM     57  H   NAG d1177      11.978 -14.078   1.863  0.00  0.00     0.091 H 
ATOM     58  H   NAG d1177      10.378 -15.833   1.972  0.00  0.00     0.163 HD
ATOM     59  H   NAG d1177       9.043 -17.384   2.464  0.00  0.00     0.040 H 
ATOM     60  H   NAG d1177       9.949 -18.791   2.965  0.00  0.00     0.040 H 
ATOM     61  H   NAG d1177       9.061 -18.812   1.459  0.00  0.00     0.040 H 
ATOM     62  H   NAG d1177      13.905 -13.537  -2.785  0.00  0.00     0.209 HD
ATOM     63  H   NAG d1177      14.187 -14.263  -0.186  0.00  0.00     0.091 H 
ATOM     64  H   NAG d1177      11.838 -12.448  -0.079  0.00  0.00     0.090 H 
ATOM     65  H   NAG d1177      10.305 -14.225  -0.131  0.00  0.00     0.132 H 
ATOM     66  C6  NAG d1175       1.534 -16.408  -3.875  0.00  0.00     0.043 C 
ATOM     67  O3  NAG d1175       6.171 -15.285  -5.036  0.00  0.00    -0.348 OA
ATOM     68  C2  NAG d1175       4.701 -16.080  -6.752  0.00  0.00     0.087 C 
ATOM     69  O6  NAG d1175       0.418 -17.187  -4.240  0.00  0.00    -0.398 OA
ATOM     70  O1  NAG d1175       2.964 -16.572  -8.370  0.00  0.00    -0.369 OA
ATOM     71  C7  NAG d1175       6.088 -15.840  -8.751  0.00  0.00     0.214 C 
ATOM     72  N2  NAG d1175       5.766 -16.520  -7.648  0.00  0.00    -0.349 N 
ATOM     73  C5  NAG d1175       2.690 -16.776  -4.798  0.00  0.00     0.089 C 
ATOM     74  O5  NAG d1175       2.399 -16.369  -6.127  0.00  0.00    -0.349 OA
ATOM     75  C4  NAG d1175       3.990 -16.153  -4.284  0.00  0.00     0.089 C 
ATOM     76  O4  NAG d1175       4.312 -16.801  -3.067  0.00  0.00    -0.390 OA
ATOM     77  O7  NAG d1175       6.400 -14.643  -8.736  0.00  0.00    -0.274 OA
ATOM     78  C1  NAG d1175       3.386 -16.815  -7.043  0.00  0.00     0.151 C 
ATOM     79  C8  NAG d1175       6.068 -16.624 -10.034  0.00  0.00    -0.003 C 
ATOM     80  C3  NAG d1175       5.152 -16.251  -5.291  0.00  0.00     0.093 C 
ATOM     81  H   NAG d1175       1.302 -15.369  -3.981  0.00  0.00     0.078 H 
ATOM     82  H   NAG d1175       1.800 -16.596  -2.856  0.00  0.00     0.078 H 
ATOM     83  H   NAG d1175       4.508 -15.041  -6.923  0.00  0.00     0.084 H 
ATOM     84  H   NAG d1175       0.187 -17.008  -5.165  0.00  0.00     0.209 HD
ATOM     85  H   NAG d1175       3.646 -16.880  -8.988  0.00  0.00     0.212 HD
ATOM     86  H   NAG d1175       6.261 -17.342  -7.433  0.00  0.00     0.163 HD
ATOM     87  H   NAG d1175       2.819 -17.838  -4.805  0.00  0.00     0.090 H 
ATOM     88  H   NAG d1175       3.841 -15.104  -4.138  0.00  0.00     0.091 H 
ATOM     89  H   NAG d1175       4.441 -17.749  -3.230  0.00  0.00     0.210 HD
ATOM     90  H   NAG d1175       3.535 -17.869  -6.929  0.00  0.00     0.132 H 
ATOM     91  H   NAG d1175       5.775 -17.633  -9.832  0.00  0.00     0.040 H 
ATOM     92  H   NAG d1175       7.045 -16.618 -10.471  0.00  0.00     0.040 H 
ATOM     93  H   NAG d1175       5.371 -16.180 -10.713  0.00  0.00     0.040 H 
ATOM     94  H   NAG d1175       5.538 -17.240  -5.155  0.00  0.00     0.091 H 
ATOM     95  C4  NAG d1181      10.667  -8.329  19.300  0.00  0.00     0.089 C 
ATOM     96  C3  NAG d1181      12.132  -7.927  19.107  0.00  0.00     0.086 C 
ATOM     97  C6  NAG d1181       8.800  -9.874  18.569  0.00  0.00     0.043 C 
ATOM     98  C5  NAG d1181      10.310  -9.623  18.554  0.00  0.00     0.089 C 
ATOM     99  C7  NAG d1181      14.468  -6.779  16.864  0.00  0.00     0.214 C 
ATOM    100  C8  NAG d1181      14.176  -6.620  15.396  0.00  0.00    -0.003 C 
ATOM    101  N2  NAG d1181      13.969  -7.858  17.466  0.00  0.00    -0.349 N 
ATOM    102  O3  NAG d1181      12.346  -6.600  19.567  0.00  0.00    -0.391 OA
ATOM    103  C1  NAG d1181      12.121  -9.391  17.047  0.00  0.00     0.154 C 
ATOM    104  O6  NAG d1181       8.532 -11.233  18.292  0.00  0.00    -0.398 OA
ATOM    105  O5  NAG d1181      10.735  -9.572  17.203  0.00  0.00    -0.349 OA
ATOM    106  O7  NAG d1181      15.136  -5.939  17.472  0.00  0.00    -0.274 OA
ATOM    107  O4  NAG d1181      10.407  -8.491  20.676  0.00  0.00    -0.390 OA
ATOM    108  C2  NAG d1181      12.536  -8.044  17.635  0.00  0.00     0.087 C 
ATOM    109  H   NAG d1181      10.060  -7.549  18.890  0.00  0.00     0.091 H 
ATOM    110  H   NAG d1181      12.740  -8.594  19.681  0.00  0.00     0.090 H 
ATOM    111  H   NAG d1181       8.333  -9.262  17.826  0.00  0.00     0.078 H 
ATOM    112  H   NAG d1181       8.414  -9.630  19.536  0.00  0.00     0.078 H 
ATOM    113  H   NAG d1181      10.815 -10.418  19.064  0.00  0.00     0.090 H 
ATOM    114  H   NAG d1181      13.587  -7.447  15.059  0.00  0.00     0.040 H 
ATOM    115  H   NAG d1181      15.097  -6.592  14.851  0.00  0.00     0.040 H 
ATOM    116  H   NAG d1181      13.638  -5.709  15.236  0.00  0.00     0.040 H 
ATOM    117  H   NAG d1181      14.586  -8.547  17.805  0.00  0.00     0.163 HD
ATOM    118  H   NAG d1181      11.798  -5.988  19.052  0.00  0.00     0.210 HD
ATOM    119  H   NAG d1181      12.608 -10.199  17.553  0.00  0.00     0.132 H 
ATOM    120  H   NAG d1181       8.880 -11.459  17.416  0.00  0.00     0.209 HD
ATOM    121  H   NAG d1181      10.965  -9.201  21.029  0.00  0.00     0.210 HD
ATOM    122  H   NAG d1181      12.020  -7.268  17.108  0.00  0.00     0.084 H 
ATOM    123  C7  NAG d1179      11.054 -12.964   8.979  0.00  0.00     0.214 C 
ATOM    124  C1  NAG d1179      14.224 -14.223   8.547  0.00  0.00     0.154 C 
ATOM    125  C2  NAG d1179      13.223 -13.824   9.624  0.00  0.00     0.087 C 
ATOM    126  O5  NAG d1179      15.113 -15.195   9.053  0.00  0.00    -0.349 OA
ATOM    127  O7  NAG d1179      10.402 -13.737   9.678  0.00  0.00    -0.274 OA
ATOM    128  O4  NAG d1179      15.605 -14.086  12.498  0.00  0.00    -0.390 OA
ATOM    129  N2  NAG d1179      12.358 -12.755   9.150  0.00  0.00    -0.349 N 
ATOM    130  C8  NAG d1179      10.374 -12.211   7.877  0.00  0.00    -0.003 C 
ATOM    131  O3  NAG d1179      12.845 -13.438  11.948  0.00  0.00    -0.348 OA
ATOM    132  C4  NAG d1179      14.903 -14.511  11.349  0.00  0.00     0.089 C 
ATOM    133  C5  NAG d1179      15.855 -14.752  10.176  0.00  0.00     0.089 C 
ATOM    134  O6  NAG d1179      16.349 -17.017  10.888  0.00  0.00    -0.398 OA
ATOM    135  C3  NAG d1179      13.862 -13.466  10.963  0.00  0.00     0.093 C 
ATOM    136  C6  NAG d1179      16.934 -15.786  10.502  0.00  0.00     0.043 C 
ATOM    137  H   NAG d1179      14.842 -13.412   8.219  0.00  0.00     0.132 H 
ATOM    138  H   NAG d1179      12.632 -14.696   9.814  0.00  0.00     0.084 H 
ATOM    139  H   NAG d1179      14.978 -13.941  13.224  0.00  0.00     0.210 HD
ATOM    140  H   NAG d1179      12.740 -11.869   8.955  0.00  0.00     0.163 HD
ATOM    141  H   NAG d1179      11.086 -11.591   7.375  0.00  0.00     0.040 H 
ATOM    142  H   NAG d1179       9.597 -11.601   8.289  0.00  0.00     0.040 H 
ATOM    143  H   NAG d1179       9.951 -12.904   7.180  0.00  0.00     0.040 H 
ATOM    144  H   NAG d1179      14.415 -15.436  11.578  0.00  0.00     0.091 H 
ATOM    145  H   NAG d1179      16.348 -13.825   9.966  0.00  0.00     0.090 H 
ATOM    146  H   NAG d1179      17.049 -17.658  11.089  0.00  0.00     0.209 HD
ATOM    147  H   NAG d1179      14.342 -12.513  10.888  0.00  0.00     0.091 H 
ATOM    148  H   NAG d1179      17.541 -15.419  11.303  0.00  0.00     0.078 H 
ATOM    149  H   NAG d1179      17.529 -15.948   9.627  0.00  0.00     0.078 H 
ATOM    150  C6  BDP d1180      15.059 -10.684  15.087  0.00  0.00     0.206 C 
ATOM    151  O3  BDP d1180      10.142 -11.153  15.071  0.00  0.00    -0.390 OA
ATOM    152  C1  BDP d1180      12.779 -12.179  12.633  0.00  0.00     0.160 C 
ATOM    153  O2  BDP d1180      10.518 -11.670  12.113  0.00  0.00    -0.388 OA
ATOM    154  C3  BDP d1180      11.250 -10.872  14.240  0.00  0.00     0.092 C 
ATOM    155  O4  BDP d1180      12.502  -9.401  15.661  0.00  0.00    -0.348 OA
ATOM    156  O5  BDP d1180      13.740 -12.129  13.664  0.00  0.00    -0.340 OA
ATOM    157  C5  BDP d1180      13.772 -10.857  14.278  0.00  0.00     0.152 C 
ATOM    158  O6B BDP d1180      15.364 -11.574  15.918  0.00  0.00    -0.646 OA
ATOM    159  O6A BDP d1180      15.750  -9.661  14.861  0.00  0.00    -0.646 OA
ATOM    160  C2  BDP d1180      11.370 -11.989  13.194  0.00  0.00     0.110 C 
ATOM    161  C4  BDP d1180      12.500 -10.698  15.108  0.00  0.00     0.103 C 
ATOM    162  H   BDP d1180       9.348 -11.265  14.525  0.00  0.00     0.210 HD
ATOM    163  H   BDP d1180      12.993 -11.386  11.947  0.00  0.00     0.133 H 
ATOM    164  H   BDP d1180      10.579 -12.364  11.439  0.00  0.00     0.210 HD
ATOM    165  H   BDP d1180      11.124  -9.954  13.706  0.00  0.00     0.091 H 
ATOM    166  H   BDP d1180      13.788 -10.075  13.549  0.00  0.00     0.104 H 
ATOM    167  H   BDP d1180      11.106 -12.899  13.690  0.00  0.00     0.094 H 
ATOM    168  H   BDP d1180      12.480 -11.446  15.873  0.00  0.00     0.092 H 
ENDROOT
TORSDOF 43
ENDMDL
MODEL 43
REMARK VINA RESULT:      -6.2      4.995      7.356
REMARK  0 active torsions:
REMARK  status: ('A' for Active; 'I' for Inactive)
REMARK       I    between atoms: C1_1  and  O3_15 
REMARK       I    between atoms: C1_2  and  O3_93 
REMARK       I    between atoms: C6_3  and  C5_89 
REMARK       I    between atoms: C6_3  and  O6_76 
REMARK       I    between atoms: O3_4  and  C3_22 
REMARK       I    between atoms: C6_5  and  C5_48 
REMARK       I    between atoms: C6_5  and  O6_31 
REMARK       I    between atoms: C4_6  and  O4_74 
REMARK       I    between atoms: C7_7  and  C8_62 
REMARK       I    between atoms: C7_7  and  N2_60 
REMARK       I    between atoms: C6_8  and  C5_52 
REMARK       I    between atoms: C3_9  and  O3_38 
REMARK       I    between atoms: C1_10  and  O4_75 
REMARK       I    between atoms: C6_12  and  C5_51 
REMARK       I    between atoms: O3_13  and  C3_42 
REMARK       I    between atoms: O4_14  and  C4_84 
REMARK       I    between atoms: O3_15  and  C3_86 
REMARK       I    between atoms: C6_16  and  C5_23 
REMARK       I    between atoms: C6_16  and  O6_58 
REMARK       I    between atoms: C1_17  and  O3_63 
REMARK       I    between atoms: C2_18  and  N2_60 
REMARK       I    between atoms: C2_19  and  N2_53 
REMARK       I    between atoms: O2_20  and  C2_66 
REMARK       I    between atoms: C3_25  and  O3_93 
REMARK       I    between atoms: C7_26  and  C8_32 
REMARK       I    between atoms: C7_26  and  N2_37 
REMARK       I    between atoms: C2_28  and  N2_44 
REMARK       I    between atoms: C7_29  and  C8_54 
REMARK       I    between atoms: C7_29  and  N2_53 
REMARK       I    between atoms: O1_33  and  C1_80 
REMARK       I    between atoms: O4_34  and  C4_40 
REMARK       I    between atoms: O4_34  and  C1_92 
REMARK       I    between atoms: C7_36  and  C8_81 
REMARK       I    between atoms: C7_36  and  N2_44 
REMARK       I    between atoms: N2_37  and  C2_83 
REMARK       I    between atoms: O3_39  and  C3_61 
REMARK       I    between atoms: C1_41  and  O4_46 
REMARK       I    between atoms: O2_43  and  C2_73 
REMARK       I    between atoms: C6_45  and  C5_87 
REMARK       I    between atoms: O4_46  and  C4_67 
REMARK       I    between atoms: C4_50  and  O4_65 
REMARK       I    between atoms: C2_55  and  O2_82 
REMARK       I    between atoms: O4_57  and  C4_71 
REMARK       I    between atoms: O3_63  and  C3_85 
REMARK       I    between atoms: O4_75  and  C4_91 
REMARK       I    between atoms: C5_77  and  C6_90 
REMARK       I    between atoms: O6_79  and  C6_90 
ROOT
ATOM      1  C1  BDP d1176      13.108 -12.638  13.880  0.00  0.00     0.160 C 
ATOM      2  O3  BDP d1176      14.895 -15.368  12.001  0.00  0.00    -0.390 OA
ATOM      3  O5  BDP d1176      12.143 -12.594  12.867  0.00  0.00    -0.340 OA
ATOM      4  O6A BDP d1176      10.578 -12.912  10.678  0.00  0.00    -0.646 OA
ATOM      5  C3  BDP d1176      14.483 -14.030  12.195  0.00  0.00     0.092 C 
ATOM      6  O4  BDP d1176      14.067 -13.438   9.920  0.00  0.00    -0.348 OA
ATOM      7  C4  BDP d1176      13.427 -13.676  11.159  0.00  0.00     0.103 C 
ATOM      8  C6  BDP d1176      11.525 -12.102  10.669  0.00  0.00     0.206 C 
ATOM      9  C2  BDP d1176      14.053 -13.824  13.646  0.00  0.00     0.110 C 
ATOM     10  O6B BDP d1176      11.596 -11.064   9.977  0.00  0.00    -0.646 OA
ATOM     11  O2  BDP d1176      15.238 -13.604  14.372  0.00  0.00    -0.388 OA
ATOM     12  C5  BDP d1176      12.684 -12.419  11.590  0.00  0.00     0.152 C 
ATOM     13  H   BDP d1176      13.697 -11.745  13.879  0.00  0.00     0.133 H 
ATOM     14  H   BDP d1176      15.568 -15.598  12.659  0.00  0.00     0.210 HD
ATOM     15  H   BDP d1176      15.292 -13.346  12.040  0.00  0.00     0.091 H 
ATOM     16  H   BDP d1176      12.729 -14.482  11.065  0.00  0.00     0.092 H 
ATOM     17  H   BDP d1176      13.500 -14.687  13.952  0.00  0.00     0.094 H 
ATOM     18  H   BDP d1176      15.678 -12.807  14.037  0.00  0.00     0.210 HD
ATOM     19  H   BDP d1176      13.398 -11.622  11.566  0.00  0.00     0.104 H 
ATOM     20  C1  BDP d1178      13.748 -14.609   4.247  0.00  0.00     0.160 C 
ATOM     21  C6  BDP d1178      11.909 -17.147   2.230  0.00  0.00     0.206 C 
ATOM     22  O6B BDP d1178      10.713 -17.253   1.866  0.00  0.00    -0.646 OA
ATOM     23  O6A BDP d1178      12.753 -18.076   2.171  0.00  0.00    -0.646 OA
ATOM     24  O3  BDP d1178      14.071 -13.003   0.898  0.00  0.00    -0.390 OA
ATOM     25  O2  BDP d1178      14.985 -12.668   3.527  0.00  0.00    -0.388 OA
ATOM     26  C5  BDP d1178      12.336 -15.773   2.750  0.00  0.00     0.152 C 
ATOM     27  C3  BDP d1178      13.449 -13.629   1.998  0.00  0.00     0.092 C 
ATOM     28  C2  BDP d1178      14.448 -13.893   3.096  0.00  0.00     0.110 C 
ATOM     29  O4  BDP d1178      11.679 -14.582   0.821  0.00  0.00    -0.348 OA
ATOM     30  O5  BDP d1178      13.297 -15.866   3.795  0.00  0.00    -0.340 OA
ATOM     31  C4  BDP d1178      12.808 -14.937   1.566  0.00  0.00     0.103 C 
ATOM     32  H   BDP d1178      12.882 -14.086   4.596  0.00  0.00     0.133 H 
ATOM     33  H   BDP d1178      14.475 -12.170   1.186  0.00  0.00     0.210 HD
ATOM     34  H   BDP d1178      15.628 -12.828   4.235  0.00  0.00     0.210 HD
ATOM     35  H   BDP d1178      11.499 -15.282   3.202  0.00  0.00     0.104 H 
ATOM     36  H   BDP d1178      12.693 -12.971   2.371  0.00  0.00     0.091 H 
ATOM     37  H   BDP d1178      15.243 -14.514   2.739  0.00  0.00     0.094 H 
ATOM     38  H   BDP d1178      13.524 -15.519   1.023  0.00  0.00     0.092 H 
ATOM     39  C6  NAG d1177      14.992 -18.004   8.948  0.00  0.00     0.043 C 
ATOM     40  O4  NAG d1177      14.520 -17.374   6.067  0.00  0.00    -0.390 OA
ATOM     41  C2  NAG d1177      14.244 -13.975   7.581  0.00  0.00     0.087 C 
ATOM     42  C3  NAG d1177      14.108 -15.089   6.552  0.00  0.00     0.093 C 
ATOM     43  C7  NAG d1177      13.833 -11.607   7.036  0.00  0.00     0.214 C 
ATOM     44  N2  NAG d1177      13.406 -12.861   7.162  0.00  0.00    -0.349 N 
ATOM     45  C8  NAG d1177      12.747 -10.576   6.966  0.00  0.00    -0.003 C 
ATOM     46  O7  NAG d1177      15.020 -11.275   6.960  0.00  0.00    -0.274 OA
ATOM     47  O6  NAG d1177      15.957 -17.663   9.927  0.00  0.00    -0.398 OA
ATOM     48  C4  NAG d1177      14.801 -16.362   7.014  0.00  0.00     0.089 C 
ATOM     49  O5  NAG d1177      14.536 -15.675   9.306  0.00  0.00    -0.349 OA
ATOM     50  C5  NAG d1177      14.312 -16.745   8.411  0.00  0.00     0.089 C 
ATOM     51  C1  NAG d1177      13.842 -14.486   8.965  0.00  0.00     0.154 C 
ATOM     52  O3  NAG d1177      14.688 -14.688   5.333  0.00  0.00    -0.348 OA
ATOM     53  H   NAG d1177      15.474 -18.516   8.142  0.00  0.00     0.078 H 
ATOM     54  H   NAG d1177      14.252 -18.636   9.394  0.00  0.00     0.078 H 
ATOM     55  H   NAG d1177      14.843 -17.098   5.195  0.00  0.00     0.210 HD
ATOM     56  H   NAG d1177      15.261 -13.646   7.644  0.00  0.00     0.084 H 
ATOM     57  H   NAG d1177      13.063 -15.285   6.428  0.00  0.00     0.091 H 
ATOM     58  H   NAG d1177      12.461 -13.048   6.960  0.00  0.00     0.163 HD
ATOM     59  H   NAG d1177      11.794 -11.054   7.049  0.00  0.00     0.040 H 
ATOM     60  H   NAG d1177      12.806 -10.059   6.031  0.00  0.00     0.040 H 
ATOM     61  H   NAG d1177      12.866  -9.877   7.768  0.00  0.00     0.040 H 
ATOM     62  H   NAG d1177      16.632 -17.090   9.531  0.00  0.00     0.209 HD
ATOM     63  H   NAG d1177      15.860 -16.221   7.080  0.00  0.00     0.091 H 
ATOM     64  H   NAG d1177      13.267 -16.955   8.331  0.00  0.00     0.090 H 
ATOM     65  H   NAG d1177      12.804 -14.744   8.965  0.00  0.00     0.132 H 
ATOM     66  C6  NAG d1175       8.698  -9.800  16.342  0.00  0.00     0.043 C 
ATOM     67  O3  NAG d1175      12.425 -12.765  15.147  0.00  0.00    -0.348 OA
ATOM     68  C2  NAG d1175      12.441 -11.676  17.281  0.00  0.00     0.087 C 
ATOM     69  O6  NAG d1175       8.318  -8.699  17.135  0.00  0.00    -0.398 OA
ATOM     70  O1  NAG d1175      12.083 -10.748  19.491  0.00  0.00    -0.369 OA
ATOM     71  C7  NAG d1175      14.406 -12.674  18.337  0.00  0.00     0.214 C 
ATOM     72  N2  NAG d1175      13.882 -11.795  17.481  0.00  0.00    -0.349 N 
ATOM     73  C5  NAG d1175      10.194 -10.024  16.528  0.00  0.00     0.089 C 
ATOM     74  O5  NAG d1175      10.460 -10.443  17.858  0.00  0.00    -0.349 OA
ATOM     75  C4  NAG d1175      10.705 -11.034  15.499  0.00  0.00     0.089 C 
ATOM     76  O4  NAG d1175      10.611 -10.421  14.226  0.00  0.00    -0.390 OA
ATOM     77  O7  NAG d1175      14.168 -13.887  18.286  0.00  0.00    -0.274 OA
ATOM     78  C1  NAG d1175      11.853 -10.529  18.113  0.00  0.00     0.151 C 
ATOM     79  C8  NAG d1175      15.331 -12.105  19.378  0.00  0.00    -0.003 C 
ATOM     80  C3  NAG d1175      12.140 -11.517  15.780  0.00  0.00     0.093 C 
ATOM     81  H   NAG d1175       8.159 -10.672  16.649  0.00  0.00     0.078 H 
ATOM     82  H   NAG d1175       8.477  -9.608  15.312  0.00  0.00     0.078 H 
ATOM     83  H   NAG d1175      11.966 -12.571  17.624  0.00  0.00     0.084 H 
ATOM     84  H   NAG d1175       8.523  -8.884  18.065  0.00  0.00     0.209 HD
ATOM     85  H   NAG d1175      13.037 -10.805  19.655  0.00  0.00     0.212 HD
ATOM     86  H   NAG d1175      14.485 -11.209  16.970  0.00  0.00     0.163 HD
ATOM     87  H   NAG d1175      10.716  -9.104  16.366  0.00  0.00     0.090 H 
ATOM     88  H   NAG d1175      10.103 -11.918  15.548  0.00  0.00     0.091 H 
ATOM     89  H   NAG d1175      11.166  -9.624  14.210  0.00  0.00     0.210 HD
ATOM     90  H   NAG d1175      12.329  -9.610  17.839  0.00  0.00     0.132 H 
ATOM     91  H   NAG d1175      15.402 -11.045  19.252  0.00  0.00     0.040 H 
ATOM     92  H   NAG d1175      16.301 -12.542  19.270  0.00  0.00     0.040 H 
ATOM     93  H   NAG d1175      14.948 -12.323  20.353  0.00  0.00     0.040 H 
ATOM     94  H   NAG d1175      12.763 -10.747  15.375  0.00  0.00     0.091 H 
ATOM     95  C4  NAG d1181       1.204 -17.922  -7.399  0.00  0.00     0.089 C 
ATOM     96  C3  NAG d1181       2.277 -18.882  -7.922  0.00  0.00     0.086 C 
ATOM     97  C6  NAG d1181       0.724 -15.875  -5.990  0.00  0.00     0.043 C 
ATOM     98  C5  NAG d1181       1.804 -16.691  -6.704  0.00  0.00     0.089 C 
ATOM     99  C7  NAG d1181       4.741 -21.108  -7.037  0.00  0.00     0.214 C 
ATOM    100  C8  NAG d1181       5.173 -21.317  -5.612  0.00  0.00    -0.003 C 
ATOM    101  N2  NAG d1181       4.483 -19.855  -7.414  0.00  0.00    -0.349 N 
ATOM    102  O3  NAG d1181       1.694 -20.121  -8.296  0.00  0.00    -0.391 OA
ATOM    103  C1  NAG d1181       3.860 -17.789  -6.282  0.00  0.00     0.154 C 
ATOM    104  O6  NAG d1181       1.187 -14.563  -5.750  0.00  0.00    -0.398 OA
ATOM    105  O5  NAG d1181       2.778 -17.066  -5.745  0.00  0.00    -0.349 OA
ATOM    106  O7  NAG d1181       4.629 -22.061  -7.812  0.00  0.00    -0.274 OA
ATOM    107  O4  NAG d1181       0.389 -17.507  -8.473  0.00  0.00    -0.390 OA
ATOM    108  C2  NAG d1181       3.361 -19.109  -6.865  0.00  0.00     0.087 C 
ATOM    109  H   NAG d1181       0.627 -18.450  -6.669  0.00  0.00     0.091 H 
ATOM    110  H   NAG d1181       2.730 -18.439  -8.784  0.00  0.00     0.090 H 
ATOM    111  H   NAG d1181       0.485 -16.343  -5.058  0.00  0.00     0.078 H 
ATOM    112  H   NAG d1181      -0.148 -15.831  -6.609  0.00  0.00     0.078 H 
ATOM    113  H   NAG d1181       2.259 -16.100  -7.471  0.00  0.00     0.090 H 
ATOM    114  H   NAG d1181       5.208 -20.374  -5.108  0.00  0.00     0.040 H 
ATOM    115  H   NAG d1181       6.145 -21.766  -5.597  0.00  0.00     0.040 H 
ATOM    116  H   NAG d1181       4.475 -21.960  -5.117  0.00  0.00     0.040 H 
ATOM    117  H   NAG d1181       5.067 -19.424  -8.079  0.00  0.00     0.163 HD
ATOM    118  H   NAG d1181       1.280 -20.531  -7.520  0.00  0.00     0.210 HD
ATOM    119  H   NAG d1181       4.307 -17.178  -7.038  0.00  0.00     0.132 H 
ATOM    120  H   NAG d1181       1.978 -14.597  -5.190  0.00  0.00     0.209 HD
ATOM    121  H   NAG d1181       0.929 -17.032  -9.123  0.00  0.00     0.210 HD
ATOM    122  H   NAG d1181       2.914 -19.682  -6.079  0.00  0.00     0.084 H 
ATOM    123  C7  NAG d1179       8.409 -15.085   0.860  0.00  0.00     0.214 C 
ATOM    124  C1  NAG d1179      11.578 -15.217  -0.465  0.00  0.00     0.154 C 
ATOM    125  C2  NAG d1179      10.114 -15.062  -0.858  0.00  0.00     0.087 C 
ATOM    126  O5  NAG d1179      12.403 -14.612  -1.438  0.00  0.00    -0.349 OA
ATOM    127  O7  NAG d1179       7.863 -14.042   0.506  0.00  0.00    -0.274 OA
ATOM    128  O4  NAG d1179      10.653 -15.400  -4.546  0.00  0.00    -0.390 OA
ATOM    129  N2  NAG d1179       9.254 -15.761   0.084  0.00  0.00    -0.349 N 
ATOM    130  C8  NAG d1179       8.125 -15.642   2.221  0.00  0.00    -0.003 C 
ATOM    131  O3  NAG d1179       8.526 -14.988  -2.637  0.00  0.00    -0.348 OA
ATOM    132  C4  NAG d1179      10.841 -14.877  -3.247  0.00  0.00     0.089 C 
ATOM    133  C5  NAG d1179      12.252 -15.169  -2.732  0.00  0.00     0.089 C 
ATOM    134  O6  NAG d1179      13.179 -13.205  -3.811  0.00  0.00    -0.398 OA
ATOM    135  C3  NAG d1179       9.810 -15.476  -2.296  0.00  0.00     0.093 C 
ATOM    136  C6  NAG d1179      13.337 -14.603  -3.649  0.00  0.00     0.043 C 
ATOM    137  H   NAG d1179      11.899 -16.236  -0.411  0.00  0.00     0.132 H 
ATOM    138  H   NAG d1179       9.905 -14.013  -0.813  0.00  0.00     0.084 H 
ATOM    139  H   NAG d1179       9.752 -15.201  -4.846  0.00  0.00     0.210 HD
ATOM    140  H   NAG d1179       9.297 -16.743   0.148  0.00  0.00     0.163 HD
ATOM    141  H   NAG d1179       8.680 -16.546   2.359  0.00  0.00     0.040 H 
ATOM    142  H   NAG d1179       7.078 -15.849   2.311  0.00  0.00     0.040 H 
ATOM    143  H   NAG d1179       8.413 -14.930   2.965  0.00  0.00     0.040 H 
ATOM    144  H   NAG d1179      10.715 -13.816  -3.292  0.00  0.00     0.091 H 
ATOM    145  H   NAG d1179      12.371 -16.232  -2.706  0.00  0.00     0.090 H 
ATOM    146  H   NAG d1179      13.875 -12.866  -4.394  0.00  0.00     0.209 HD
ATOM    147  H   NAG d1179       9.843 -16.542  -2.378  0.00  0.00     0.091 H 
ATOM    148  H   NAG d1179      13.269 -15.076  -4.606  0.00  0.00     0.078 H 
ATOM    149  H   NAG d1179      14.293 -14.792  -3.207  0.00  0.00     0.078 H 
ATOM    150  C6  BDP d1180       7.614 -17.984  -6.177  0.00  0.00     0.206 C 
ATOM    151  O3  BDP d1180       3.990 -15.650  -3.765  0.00  0.00    -0.390 OA
ATOM    152  C1  BDP d1180       7.640 -16.030  -3.073  0.00  0.00     0.160 C 
ATOM    153  O2  BDP d1180       5.941 -15.681  -1.452  0.00  0.00    -0.388 OA
ATOM    154  C3  BDP d1180       5.147 -16.436  -3.572  0.00  0.00     0.092 C 
ATOM    155  O4  BDP d1180       4.840 -18.095  -5.277  0.00  0.00    -0.348 OA
ATOM    156  O5  BDP d1180       7.860 -16.324  -4.434  0.00  0.00    -0.340 OA
ATOM    157  C5  BDP d1180       7.080 -17.424  -4.857  0.00  0.00     0.152 C 
ATOM    158  O6B BDP d1180       7.793 -17.188  -7.132  0.00  0.00    -0.646 OA
ATOM    159  O6A BDP d1180       7.858 -19.213  -6.227  0.00  0.00    -0.646 OA
ATOM    160  C2  BDP d1180       6.196 -15.589  -2.838  0.00  0.00     0.110 C 
ATOM    161  C4  BDP d1180       5.622 -16.975  -4.925  0.00  0.00     0.103 C 
ATOM    162  H   BDP d1180       3.686 -15.305  -2.910  0.00  0.00     0.210 HD
ATOM    163  H   BDP d1180       7.831 -16.920  -2.511  0.00  0.00     0.133 H 
ATOM    164  H   BDP d1180       6.593 -15.151  -0.967  0.00  0.00     0.210 HD
ATOM    165  H   BDP d1180       4.951 -17.291  -2.960  0.00  0.00     0.091 H 
ATOM    166  H   BDP d1180       7.143 -18.233  -4.160  0.00  0.00     0.104 H 
ATOM    167  H   BDP d1180       6.106 -14.595  -3.222  0.00  0.00     0.094 H 
ATOM    168  H   BDP d1180       5.526 -16.192  -5.647  0.00  0.00     0.092 H 
ENDROOT
TORSDOF 43
ENDMDL
MODEL 44
REMARK VINA RESULT:      -6.1      4.324      6.266
REMARK  0 active torsions:
REMARK  status: ('A' for Active; 'I' for Inactive)
REMARK       I    between atoms: C1_1  and  O3_15 
REMARK       I    between atoms: C1_2  and  O3_93 
REMARK       I    between atoms: C6_3  and  C5_89 
REMARK       I    between atoms: C6_3  and  O6_76 
REMARK       I    between atoms: O3_4  and  C3_22 
REMARK       I    between atoms: C6_5  and  C5_48 
REMARK       I    between atoms: C6_5  and  O6_31 
REMARK       I    between atoms: C4_6  and  O4_74 
REMARK       I    between atoms: C7_7  and  C8_62 
REMARK       I    between atoms: C7_7  and  N2_60 
REMARK       I    between atoms: C6_8  and  C5_52 
REMARK       I    between atoms: C3_9  and  O3_38 
REMARK       I    between atoms: C1_10  and  O4_75 
REMARK       I    between atoms: C6_12  and  C5_51 
REMARK       I    between atoms: O3_13  and  C3_42 
REMARK       I    between atoms: O4_14  and  C4_84 
REMARK       I    between atoms: O3_15  and  C3_86 
REMARK       I    between atoms: C6_16  and  C5_23 
REMARK       I    between atoms: C6_16  and  O6_58 
REMARK       I    between atoms: C1_17  and  O3_63 
REMARK       I    between atoms: C2_18  and  N2_60 
REMARK       I    between atoms: C2_19  and  N2_53 
REMARK       I    between atoms: O2_20  and  C2_66 
REMARK       I    between atoms: C3_25  and  O3_93 
REMARK       I    between atoms: C7_26  and  C8_32 
REMARK       I    between atoms: C7_26  and  N2_37 
REMARK       I    between atoms: C2_28  and  N2_44 
REMARK       I    between atoms: C7_29  and  C8_54 
REMARK       I    between atoms: C7_29  and  N2_53 
REMARK       I    between atoms: O1_33  and  C1_80 
REMARK       I    between atoms: O4_34  and  C4_40 
REMARK       I    between atoms: O4_34  and  C1_92 
REMARK       I    between atoms: C7_36  and  C8_81 
REMARK       I    between atoms: C7_36  and  N2_44 
REMARK       I    between atoms: N2_37  and  C2_83 
REMARK       I    between atoms: O3_39  and  C3_61 
REMARK       I    between atoms: C1_41  and  O4_46 
REMARK       I    between atoms: O2_43  and  C2_73 
REMARK       I    between atoms: C6_45  and  C5_87 
REMARK       I    between atoms: O4_46  and  C4_67 
REMARK       I    between atoms: C4_50  and  O4_65 
REMARK       I    between atoms: C2_55  and  O2_82 
REMARK       I    between atoms: O4_57  and  C4_71 
REMARK       I    between atoms: O3_63  and  C3_85 
REMARK       I    between atoms: O4_75  and  C4_91 
REMARK       I    between atoms: C5_77  and  C6_90 
REMARK       I    between atoms: O6_79  and  C6_90 
ROOT
ATOM      1  C1  BDP d1176      13.854 -15.743  16.636  0.00  0.00     0.160 C 
ATOM      2  O3  BDP d1176      16.381 -16.699  14.014  0.00  0.00    -0.390 OA
ATOM      3  O5  BDP d1176      12.867 -15.691  15.644  0.00  0.00    -0.340 OA
ATOM      4  O6A BDP d1176      11.372 -15.736  13.384  0.00  0.00    -0.646 OA
ATOM      5  C3  BDP d1176      15.516 -15.788  14.661  0.00  0.00     0.092 C 
ATOM      6  O4  BDP d1176      14.737 -14.597  12.744  0.00  0.00    -0.348 OA
ATOM      7  C4  BDP d1176      14.328 -15.499  13.755  0.00  0.00     0.103 C 
ATOM      8  C6  BDP d1176      11.945 -14.690  13.746  0.00  0.00     0.206 C 
ATOM      9  C2  BDP d1176      15.152 -16.311  16.048  0.00  0.00     0.110 C 
ATOM     10  O6B BDP d1176      11.570 -13.525  13.497  0.00  0.00    -0.646 OA
ATOM     11  O2  BDP d1176      16.221 -15.950  16.889  0.00  0.00    -0.388 OA
ATOM     12  C5  BDP d1176      13.205 -14.867  14.566  0.00  0.00     0.152 C 
ATOM     13  H   BDP d1176      14.064 -14.764  17.010  0.00  0.00     0.133 H 
ATOM     14  H   BDP d1176      17.140 -16.887  14.588  0.00  0.00     0.210 HD
ATOM     15  H   BDP d1176      15.996 -14.847  14.830  0.00  0.00     0.091 H 
ATOM     16  H   BDP d1176      13.977 -16.410  13.318  0.00  0.00     0.092 H 
ATOM     17  H   BDP d1176      14.987 -17.366  15.970  0.00  0.00     0.094 H 
ATOM     18  H   BDP d1176      16.305 -14.984  16.907  0.00  0.00     0.210 HD
ATOM     19  H   BDP d1176      13.566 -13.914  14.892  0.00  0.00     0.104 H 
ATOM     20  C1  BDP d1178      14.446 -13.609   7.035  0.00  0.00     0.160 C 
ATOM     21  C6  BDP d1178      13.540 -15.708   4.090  0.00  0.00     0.206 C 
ATOM     22  O6B BDP d1178      12.446 -16.110   3.627  0.00  0.00    -0.646 OA
ATOM     23  O6A BDP d1178      14.662 -16.160   3.753  0.00  0.00    -0.646 OA
ATOM     24  O3  BDP d1178      13.889 -10.883   4.554  0.00  0.00    -0.390 OA
ATOM     25  O2  BDP d1178      14.810 -11.231   7.180  0.00  0.00    -0.388 OA
ATOM     26  C5  BDP d1178      13.461 -14.573   5.113  0.00  0.00     0.152 C 
ATOM     27  C3  BDP d1178      13.632 -12.054   5.294  0.00  0.00     0.092 C 
ATOM     28  C2  BDP d1178      14.738 -12.313   6.287  0.00  0.00     0.110 C 
ATOM     29  O4  BDP d1178      12.262 -13.091   3.721  0.00  0.00    -0.348 OA
ATOM     30  O5  BDP d1178      14.464 -14.680   6.117  0.00  0.00    -0.340 OA
ATOM     31  C4  BDP d1178      13.495 -13.246   4.362  0.00  0.00     0.103 C 
ATOM     32  H   BDP d1178      13.477 -13.618   7.488  0.00  0.00     0.133 H 
ATOM     33  H   BDP d1178      13.974 -10.130   5.160  0.00  0.00     0.210 HD
ATOM     34  H   BDP d1178      15.519 -11.388   7.822  0.00  0.00     0.210 HD
ATOM     35  H   BDP d1178      12.539 -14.636   5.653  0.00  0.00     0.104 H 
ATOM     36  H   BDP d1178      12.716 -11.916   5.828  0.00  0.00     0.091 H 
ATOM     37  H   BDP d1178      15.677 -12.411   5.783  0.00  0.00     0.094 H 
ATOM     38  H   BDP d1178      14.332 -13.272   3.696  0.00  0.00     0.092 H 
ATOM     39  C6  NAG d1177      17.223 -17.773  10.217  0.00  0.00     0.043 C 
ATOM     40  O4  NAG d1177      16.331 -16.346   7.750  0.00  0.00    -0.390 OA
ATOM     41  C2  NAG d1177      14.923 -14.121  10.393  0.00  0.00     0.087 C 
ATOM     42  C3  NAG d1177      15.134 -14.738   9.017  0.00  0.00     0.093 C 
ATOM     43  C7  NAG d1177      13.616 -12.060  10.737  0.00  0.00     0.214 C 
ATOM     44  N2  NAG d1177      13.699 -13.332  10.357  0.00  0.00    -0.349 N 
ATOM     45  C8  NAG d1177      12.222 -11.563  10.975  0.00  0.00    -0.003 C 
ATOM     46  O7  NAG d1177      14.584 -11.305  10.877  0.00  0.00    -0.274 OA
ATOM     47  O6  NAG d1177      18.062 -17.485  11.321  0.00  0.00    -0.398 OA
ATOM     48  C4  NAG d1177      16.285 -15.732   9.023  0.00  0.00     0.089 C 
ATOM     49  O5  NAG d1177      15.959 -16.097  11.379  0.00  0.00    -0.349 OA
ATOM     50  C5  NAG d1177      16.083 -16.758  10.138  0.00  0.00     0.089 C 
ATOM     51  C1  NAG d1177      14.847 -15.219  11.455  0.00  0.00     0.154 C 
ATOM     52  O3  NAG d1177      15.427 -13.728   8.079  0.00  0.00    -0.348 OA
ATOM     53  H   NAG d1177      17.798 -17.730   9.317  0.00  0.00     0.078 H 
ATOM     54  H   NAG d1177      16.808 -18.753  10.342  0.00  0.00     0.078 H 
ATOM     55  H   NAG d1177      16.460 -15.668   7.069  0.00  0.00     0.210 HD
ATOM     56  H   NAG d1177      15.744 -13.484  10.648  0.00  0.00     0.084 H 
ATOM     57  H   NAG d1177      14.232 -15.250   8.753  0.00  0.00     0.091 H 
ATOM     58  H   NAG d1177      12.880 -13.769  10.030  0.00  0.00     0.163 HD
ATOM     59  H   NAG d1177      11.526 -12.357  10.804  0.00  0.00     0.040 H 
ATOM     60  H   NAG d1177      12.013 -10.754  10.305  0.00  0.00     0.040 H 
ATOM     61  H   NAG d1177      12.133 -11.222  11.985  0.00  0.00     0.040 H 
ATOM     62  H   NAG d1177      18.442 -16.599  11.217  0.00  0.00     0.209 HD
ATOM     63  H   NAG d1177      17.216 -15.241   9.213  0.00  0.00     0.091 H 
ATOM     64  H   NAG d1177      15.189 -17.298   9.908  0.00  0.00     0.090 H 
ATOM     65  H   NAG d1177      13.983 -15.826  11.282  0.00  0.00     0.132 H 
ATOM     66  C6  NAG d1175       8.904 -15.892  19.644  0.00  0.00     0.043 C 
ATOM     67  O3  NAG d1175      13.366 -16.576  17.712  0.00  0.00    -0.348 OA
ATOM     68  C2  NAG d1175      13.137 -16.435  20.092  0.00  0.00     0.087 C 
ATOM     69  O6  NAG d1175       8.203 -15.392  20.759  0.00  0.00    -0.398 OA
ATOM     70  O1  NAG d1175      12.629 -16.600  22.456  0.00  0.00    -0.369 OA
ATOM     71  C7  NAG d1175      15.408 -16.941  20.844  0.00  0.00     0.214 C 
ATOM     72  N2  NAG d1175      14.529 -16.072  20.339  0.00  0.00    -0.349 N 
ATOM     73  C5  NAG d1175      10.385 -15.592  19.843  0.00  0.00     0.089 C 
ATOM     74  O5  NAG d1175      10.890 -16.342  20.938  0.00  0.00    -0.349 OA
ATOM     75  C4  NAG d1175      11.157 -15.879  18.553  0.00  0.00     0.089 C 
ATOM     76  O4  NAG d1175      10.744 -14.920  17.596  0.00  0.00    -0.390 OA
ATOM     77  O7  NAG d1175      15.637 -18.042  20.329  0.00  0.00    -0.274 OA
ATOM     78  C1  NAG d1175      12.229 -15.989  21.245  0.00  0.00     0.151 C 
ATOM     79  C8  NAG d1175      16.130 -16.497  22.087  0.00  0.00    -0.003 C 
ATOM     80  C3  NAG d1175      12.686 -15.857  18.740  0.00  0.00     0.093 C 
ATOM     81  H   NAG d1175       8.756 -16.949  19.566  0.00  0.00     0.078 H 
ATOM     82  H   NAG d1175       8.551 -15.430  18.746  0.00  0.00     0.078 H 
ATOM     83  H   NAG d1175      13.058 -17.501  20.042  0.00  0.00     0.084 H 
ATOM     84  H   NAG d1175       8.533 -15.818  21.566  0.00  0.00     0.209 HD
ATOM     85  H   NAG d1175      13.545 -16.352  22.657  0.00  0.00     0.212 HD
ATOM     86  H   NAG d1175      14.829 -15.159  20.128  0.00  0.00     0.163 HD
ATOM     87  H   NAG d1175      10.513 -14.555  20.073  0.00  0.00     0.090 H 
ATOM     88  H   NAG d1175      10.934 -16.873  18.227  0.00  0.00     0.091 H 
ATOM     89  H   NAG d1175      10.958 -14.030  17.918  0.00  0.00     0.210 HD
ATOM     90  H   NAG d1175      12.305 -14.928  21.367  0.00  0.00     0.132 H 
ATOM     91  H   NAG d1175      15.790 -15.522  22.368  0.00  0.00     0.040 H 
ATOM     92  H   NAG d1175      17.182 -16.466  21.896  0.00  0.00     0.040 H 
ATOM     93  H   NAG d1175      15.931 -17.187  22.880  0.00  0.00     0.040 H 
ATOM     94  H   NAG d1175      12.943 -14.819  18.696  0.00  0.00     0.091 H 
ATOM     95  C4  NAG d1181       3.197 -16.801  -5.897  0.00  0.00     0.089 C 
ATOM     96  C3  NAG d1181       4.507 -17.022  -6.659  0.00  0.00     0.086 C 
ATOM     97  C6  NAG d1181       2.096 -15.763  -3.869  0.00  0.00     0.043 C 
ATOM     98  C5  NAG d1181       3.345 -15.788  -4.753  0.00  0.00     0.089 C 
ATOM     99  C7  NAG d1181       7.684 -18.321  -6.485  0.00  0.00     0.214 C 
ATOM    100  C8  NAG d1181       8.271 -18.866  -5.211  0.00  0.00    -0.003 C 
ATOM    101  N2  NAG d1181       6.949 -17.213  -6.387  0.00  0.00    -0.349 N 
ATOM    102  O3  NAG d1181       4.402 -18.155  -7.508  0.00  0.00    -0.391 OA
ATOM    103  C1  NAG d1181       5.688 -16.108  -4.618  0.00  0.00     0.154 C 
ATOM    104  O6  NAG d1181       2.053 -14.562  -3.125  0.00  0.00    -0.398 OA
ATOM    105  O5  NAG d1181       4.459 -16.098  -3.933  0.00  0.00    -0.349 OA
ATOM    106  O7  NAG d1181       7.877 -18.886  -7.564  0.00  0.00    -0.274 OA
ATOM    107  O4  NAG d1181       2.207 -16.355  -6.797  0.00  0.00    -0.390 OA
ATOM    108  C2  NAG d1181       5.675 -17.202  -5.685  0.00  0.00     0.087 C 
ATOM    109  H   NAG d1181       2.916 -17.736  -5.459  0.00  0.00     0.091 H 
ATOM    110  H   NAG d1181       4.695 -16.156  -7.259  0.00  0.00     0.090 H 
ATOM    111  H   NAG d1181       2.121 -16.595  -3.197  0.00  0.00     0.078 H 
ATOM    112  H   NAG d1181       1.226 -15.822  -4.489  0.00  0.00     0.078 H 
ATOM    113  H   NAG d1181       3.486 -14.831  -5.210  0.00  0.00     0.090 H 
ATOM    114  H   NAG d1181       7.989 -18.237  -4.392  0.00  0.00     0.040 H 
ATOM    115  H   NAG d1181       9.337 -18.890  -5.292  0.00  0.00     0.040 H 
ATOM    116  H   NAG d1181       7.903 -19.857  -5.043  0.00  0.00     0.040 H 
ATOM    117  H   NAG d1181       7.278 -16.382  -6.800  0.00  0.00     0.163 HD
ATOM    118  H   NAG d1181       4.232 -18.946  -6.972  0.00  0.00     0.210 HD
ATOM    119  H   NAG d1181       5.816 -15.142  -5.059  0.00  0.00     0.132 H 
ATOM    120  H   NAG d1181       2.840 -14.504  -2.561  0.00  0.00     0.209 HD
ATOM    121  H   NAG d1181       2.479 -15.508  -7.183  0.00  0.00     0.210 HD
ATOM    122  H   NAG d1181       5.535 -18.147  -5.203  0.00  0.00     0.084 H 
ATOM    123  C7  NAG d1179       9.429 -14.756   3.330  0.00  0.00     0.214 C 
ATOM    124  C1  NAG d1179      12.307 -13.192   2.288  0.00  0.00     0.154 C 
ATOM    125  C2  NAG d1179      10.866 -13.462   1.874  0.00  0.00     0.087 C 
ATOM    126  O5  NAG d1179      12.770 -12.009   1.673  0.00  0.00    -0.349 OA
ATOM    127  O7  NAG d1179       8.508 -13.942   3.350  0.00  0.00    -0.274 OA
ATOM    128  O4  NAG d1179      11.209 -12.181  -1.625  0.00  0.00    -0.390 OA
ATOM    129  N2  NAG d1179      10.404 -14.727   2.423  0.00  0.00    -0.349 N 
ATOM    130  C8  NAG d1179       9.478 -15.840   4.363  0.00  0.00    -0.003 C 
ATOM    131  O3  NAG d1179       9.234 -13.333   0.138  0.00  0.00    -0.348 OA
ATOM    132  C4  NAG d1179      11.287 -12.148  -0.215  0.00  0.00     0.089 C 
ATOM    133  C5  NAG d1179      12.739 -12.059   0.257  0.00  0.00     0.089 C 
ATOM    134  O6  NAG d1179      12.781  -9.643   0.055  0.00  0.00    -0.398 OA
ATOM    135  C3  NAG d1179      10.629 -13.395   0.367  0.00  0.00     0.093 C 
ATOM    136  C6  NAG d1179      13.461 -10.832  -0.302  0.00  0.00     0.043 C 
ATOM    137  H   NAG d1179      12.988 -13.959   1.983  0.00  0.00     0.132 H 
ATOM    138  H   NAG d1179      10.285 -12.665   2.290  0.00  0.00     0.084 H 
ATOM    139  H   NAG d1179      10.279 -12.237  -1.896  0.00  0.00     0.210 HD
ATOM    140  H   NAG d1179      10.815 -15.570   2.122  0.00  0.00     0.163 HD
ATOM    141  H   NAG d1179      10.340 -16.452   4.196  0.00  0.00     0.040 H 
ATOM    142  H   NAG d1179       8.595 -16.440   4.292  0.00  0.00     0.040 H 
ATOM    143  H   NAG d1179       9.536 -15.403   5.337  0.00  0.00     0.040 H 
ATOM    144  H   NAG d1179      10.770 -11.276   0.128  0.00  0.00     0.091 H 
ATOM    145  H   NAG d1179      13.249 -12.927  -0.105  0.00  0.00     0.090 H 
ATOM    146  H   NAG d1179      13.253  -8.878  -0.308  0.00  0.00     0.209 HD
ATOM    147  H   NAG d1179      11.052 -14.258  -0.102  0.00  0.00     0.091 H 
ATOM    148  H   NAG d1179      13.502 -10.905  -1.369  0.00  0.00     0.078 H 
ATOM    149  H   NAG d1179      14.449 -10.799   0.107  0.00  0.00     0.078 H 
ATOM    150  C6  BDP d1180       9.239 -14.909  -4.318  0.00  0.00     0.206 C 
ATOM    151  O3  BDP d1180       5.201 -15.174  -1.485  0.00  0.00    -0.390 OA
ATOM    152  C1  BDP d1180       8.771 -14.389  -0.717  0.00  0.00     0.160 C 
ATOM    153  O2  BDP d1180       7.193 -15.328   0.788  0.00  0.00    -0.388 OA
ATOM    154  C3  BDP d1180       6.580 -15.482  -1.513  0.00  0.00     0.092 C 
ATOM    155  O4  BDP d1180       6.785 -16.375  -3.729  0.00  0.00    -0.348 OA
ATOM    156  O5  BDP d1180       8.980 -14.052  -2.070  0.00  0.00    -0.340 OA
ATOM    157  C5  BDP d1180       8.638 -15.122  -2.927  0.00  0.00     0.152 C 
ATOM    158  O6B BDP d1180       9.035 -13.812  -4.893  0.00  0.00    -0.646 OA
ATOM    159  O6A BDP d1180       9.920 -15.845  -4.802  0.00  0.00    -0.646 OA
ATOM    160  C2  BDP d1180       7.289 -14.642  -0.442  0.00  0.00     0.110 C 
ATOM    161  C4  BDP d1180       7.117 -15.261  -2.930  0.00  0.00     0.103 C 
ATOM    162  H   BDP d1180       4.857 -15.312  -0.588  0.00  0.00     0.210 HD
ATOM    163  H   BDP d1180       9.323 -15.283  -0.513  0.00  0.00     0.133 H 
ATOM    164  H   BDP d1180       7.636 -14.814   1.481  0.00  0.00     0.210 HD
ATOM    165  H   BDP d1180       6.764 -16.509  -1.278  0.00  0.00     0.091 H 
ATOM    166  H   BDP d1180       9.051 -16.045  -2.578  0.00  0.00     0.104 H 
ATOM    167  H   BDP d1180       6.805 -13.688  -0.435  0.00  0.00     0.094 H 
ATOM    168  H   BDP d1180       6.680 -14.363  -3.315  0.00  0.00     0.092 H 
ENDROOT
TORSDOF 43
ENDMDL
MODEL 45
REMARK VINA RESULT:      -6.0      5.962      7.453
REMARK  0 active torsions:
REMARK  status: ('A' for Active; 'I' for Inactive)
REMARK       I    between atoms: C1_1  and  O3_15 
REMARK       I    between atoms: C1_2  and  O3_93 
REMARK       I    between atoms: C6_3  and  C5_89 
REMARK       I    between atoms: C6_3  and  O6_76 
REMARK       I    between atoms: O3_4  and  C3_22 
REMARK       I    between atoms: C6_5  and  C5_48 
REMARK       I    between atoms: C6_5  and  O6_31 
REMARK       I    between atoms: C4_6  and  O4_74 
REMARK       I    between atoms: C7_7  and  C8_62 
REMARK       I    between atoms: C7_7  and  N2_60 
REMARK       I    between atoms: C6_8  and  C5_52 
REMARK       I    between atoms: C3_9  and  O3_38 
REMARK       I    between atoms: C1_10  and  O4_75 
REMARK       I    between atoms: C6_12  and  C5_51 
REMARK       I    between atoms: O3_13  and  C3_42 
REMARK       I    between atoms: O4_14  and  C4_84 
REMARK       I    between atoms: O3_15  and  C3_86 
REMARK       I    between atoms: C6_16  and  C5_23 
REMARK       I    between atoms: C6_16  and  O6_58 
REMARK       I    between atoms: C1_17  and  O3_63 
REMARK       I    between atoms: C2_18  and  N2_60 
REMARK       I    between atoms: C2_19  and  N2_53 
REMARK       I    between atoms: O2_20  and  C2_66 
REMARK       I    between atoms: C3_25  and  O3_93 
REMARK       I    between atoms: C7_26  and  C8_32 
REMARK       I    between atoms: C7_26  and  N2_37 
REMARK       I    between atoms: C2_28  and  N2_44 
REMARK       I    between atoms: C7_29  and  C8_54 
REMARK       I    between atoms: C7_29  and  N2_53 
REMARK       I    between atoms: O1_33  and  C1_80 
REMARK       I    between atoms: O4_34  and  C4_40 
REMARK       I    between atoms: O4_34  and  C1_92 
REMARK       I    between atoms: C7_36  and  C8_81 
REMARK       I    between atoms: C7_36  and  N2_44 
REMARK       I    between atoms: N2_37  and  C2_83 
REMARK       I    between atoms: O3_39  and  C3_61 
REMARK       I    between atoms: C1_41  and  O4_46 
REMARK       I    between atoms: O2_43  and  C2_73 
REMARK       I    between atoms: C6_45  and  C5_87 
REMARK       I    between atoms: O4_46  and  C4_67 
REMARK       I    between atoms: C4_50  and  O4_65 
REMARK       I    between atoms: C2_55  and  O2_82 
REMARK       I    between atoms: O4_57  and  C4_71 
REMARK       I    between atoms: O3_63  and  C3_85 
REMARK       I    between atoms: O4_75  and  C4_91 
REMARK       I    between atoms: C5_77  and  C6_90 
REMARK       I    between atoms: O6_79  and  C6_90 
ROOT
ATOM      1  C1  BDP d1176      13.666 -11.971  15.589  0.00  0.00     0.160 C 
ATOM      2  O3  BDP d1176      14.838 -15.273  14.210  0.00  0.00    -0.390 OA
ATOM      3  O5  BDP d1176      12.795 -11.843  14.501  0.00  0.00    -0.340 OA
ATOM      4  O6A BDP d1176      11.318 -12.086  12.242  0.00  0.00    -0.646 OA
ATOM      5  C3  BDP d1176      14.752 -13.862  14.207  0.00  0.00     0.092 C 
ATOM      6  O4  BDP d1176      14.613 -13.508  11.849  0.00  0.00    -0.348 OA
ATOM      7  C4  BDP d1176      13.869 -13.418  13.050  0.00  0.00     0.103 C 
ATOM      8  C6  BDP d1176      12.432 -11.528  12.215  0.00  0.00     0.206 C 
ATOM      9  C2  BDP d1176      14.308 -13.365  15.580  0.00  0.00     0.110 C 
ATOM     10  O6B BDP d1176      12.788 -10.640  11.412  0.00  0.00    -0.646 OA
ATOM     11  O2  BDP d1176      15.470 -13.329  16.372  0.00  0.00    -0.388 OA
ATOM     12  C5  BDP d1176      13.430 -11.976  13.262  0.00  0.00     0.152 C 
ATOM     13  H   BDP d1176      14.452 -11.248  15.531  0.00  0.00     0.133 H 
ATOM     14  H   BDP d1176      15.401 -15.560  14.946  0.00  0.00     0.210 HD
ATOM     15  H   BDP d1176      15.709 -13.413  14.039  0.00  0.00     0.091 H 
ATOM     16  H   BDP d1176      13.004 -14.045  12.995  0.00  0.00     0.092 H 
ATOM     17  H   BDP d1176      13.548 -14.026  15.940  0.00  0.00     0.094 H 
ATOM     18  H   BDP d1176      16.108 -12.710  15.981  0.00  0.00     0.210 HD
ATOM     19  H   BDP d1176      14.315 -11.378  13.202  0.00  0.00     0.104 H 
ATOM     20  C1  BDP d1178      14.323 -15.339   6.352  0.00  0.00     0.160 C 
ATOM     21  C6  BDP d1178      12.035 -17.632   4.508  0.00  0.00     0.206 C 
ATOM     22  O6B BDP d1178      10.870 -17.506   4.060  0.00  0.00    -0.646 OA
ATOM     23  O6A BDP d1178      12.632 -18.730   4.633  0.00  0.00    -0.646 OA
ATOM     24  O3  BDP d1178      15.201 -14.327   2.873  0.00  0.00    -0.390 OA
ATOM     25  O2  BDP d1178      16.028 -13.856   5.511  0.00  0.00    -0.388 OA
ATOM     26  C5  BDP d1178      12.753 -16.337   4.893  0.00  0.00     0.152 C 
ATOM     27  C3  BDP d1178      14.389 -14.634   3.984  0.00  0.00     0.092 C 
ATOM     28  C2  BDP d1178      15.235 -14.970   5.187  0.00  0.00     0.110 C 
ATOM     29  O4  BDP d1178      12.506 -15.302   2.786  0.00  0.00    -0.348 OA
ATOM     30  O5  BDP d1178      13.606 -16.507   6.019  0.00  0.00    -0.340 OA
ATOM     31  C4  BDP d1178      13.475 -15.803   3.661  0.00  0.00     0.103 C 
ATOM     32  H   BDP d1178      13.591 -14.586   6.562  0.00  0.00     0.133 H 
ATOM     33  H   BDP d1178      15.779 -13.579   3.092  0.00  0.00     0.210 HD
ATOM     34  H   BDP d1178      16.575 -14.062   6.284  0.00  0.00     0.210 HD
ATOM     35  H   BDP d1178      12.037 -15.607   5.211  0.00  0.00     0.104 H 
ATOM     36  H   BDP d1178      13.795 -13.774   4.210  0.00  0.00     0.091 H 
ATOM     37  H   BDP d1178      15.874 -15.801   4.975  0.00  0.00     0.094 H 
ATOM     38  H   BDP d1178      14.057 -16.604   3.254  0.00  0.00     0.092 H 
ATOM     39  C6  NAG d1177      14.459 -18.253  11.517  0.00  0.00     0.043 C 
ATOM     40  O4  NAG d1177      14.306 -17.931   8.551  0.00  0.00    -0.390 OA
ATOM     41  C2  NAG d1177      14.779 -14.386   9.616  0.00  0.00     0.087 C 
ATOM     42  C3  NAG d1177      14.433 -15.569   8.721  0.00  0.00     0.093 C 
ATOM     43  C7  NAG d1177      14.981 -12.086   8.757  0.00  0.00     0.214 C 
ATOM     44  N2  NAG d1177      14.258 -13.176   8.997  0.00  0.00    -0.349 N 
ATOM     45  C8  NAG d1177      14.182 -10.850   8.471  0.00  0.00    -0.003 C 
ATOM     46  O7  NAG d1177      16.215 -12.052   8.742  0.00  0.00    -0.274 OA
ATOM     47  O6  NAG d1177      15.424 -18.014  12.525  0.00  0.00    -0.398 OA
ATOM     48  C4  NAG d1177      14.773 -16.892   9.390  0.00  0.00     0.089 C 
ATOM     49  O5  NAG d1177      14.560 -15.855  11.551  0.00  0.00    -0.349 OA
ATOM     50  C5  NAG d1177      14.132 -16.956  10.776  0.00  0.00     0.089 C 
ATOM     51  C1  NAG d1177      14.193 -14.595  11.013  0.00  0.00     0.154 C 
ATOM     52  O3  NAG d1177      15.156 -15.484   7.515  0.00  0.00    -0.348 OA
ATOM     53  H   NAG d1177      14.845 -18.968  10.822  0.00  0.00     0.078 H 
ATOM     54  H   NAG d1177      13.565 -18.628  11.972  0.00  0.00     0.078 H 
ATOM     55  H   NAG d1177      14.732 -17.860   7.682  0.00  0.00     0.210 HD
ATOM     56  H   NAG d1177      15.840 -14.297   9.724  0.00  0.00     0.084 H 
ATOM     57  H   NAG d1177      13.380 -15.532   8.534  0.00  0.00     0.091 H 
ATOM     58  H   NAG d1177      13.308 -13.165   8.739  0.00  0.00     0.163 HD
ATOM     59  H   NAG d1177      13.138 -11.078   8.531  0.00  0.00     0.040 H 
ATOM     60  H   NAG d1177      14.414 -10.494   7.489  0.00  0.00     0.040 H 
ATOM     61  H   NAG d1177      14.423 -10.095   9.191  0.00  0.00     0.040 H 
ATOM     62  H   NAG d1177      16.237 -17.673  12.121  0.00  0.00     0.209 HD
ATOM     63  H   NAG d1177      15.829 -16.993   9.527  0.00  0.00     0.091 H 
ATOM     64  H   NAG d1177      13.073 -16.926  10.634  0.00  0.00     0.090 H 
ATOM     65  H   NAG d1177      13.124 -14.602  10.956  0.00  0.00     0.132 H 
ATOM     66  C6  NAG d1175       9.947  -7.876  17.311  0.00  0.00     0.043 C 
ATOM     67  O3  NAG d1175      12.906 -11.761  16.800  0.00  0.00    -0.348 OA
ATOM     68  C2  NAG d1175      13.071 -10.424  18.781  0.00  0.00     0.087 C 
ATOM     69  O6  NAG d1175       9.802  -6.619  17.931  0.00  0.00    -0.398 OA
ATOM     70  O1  NAG d1175      12.831  -9.144  20.826  0.00  0.00    -0.369 OA
ATOM     71  C7  NAG d1175      14.679 -11.697  20.112  0.00  0.00     0.214 C 
ATOM     72  N2  NAG d1175      14.428 -10.846  19.115  0.00  0.00    -0.349 N 
ATOM     73  C5  NAG d1175      11.333  -8.414  17.648  0.00  0.00     0.089 C 
ATOM     74  O5  NAG d1175      11.419  -8.698  19.036  0.00  0.00    -0.349 OA
ATOM     75  C4  NAG d1175      11.639  -9.647  16.795  0.00  0.00     0.089 C 
ATOM     76  O4  NAG d1175      11.764  -9.209  15.454  0.00  0.00    -0.390 OA
ATOM     77  O7  NAG d1175      14.158 -12.816  20.187  0.00  0.00    -0.274 OA
ATOM     78  C1  NAG d1175      12.734  -9.069  19.417  0.00  0.00     0.151 C 
ATOM     79  C8  NAG d1175      15.657 -11.221  21.151  0.00  0.00    -0.003 C 
ATOM     80  C3  NAG d1175      12.898 -10.407  17.252  0.00  0.00     0.093 C 
ATOM     81  H   NAG d1175       9.199  -8.549  17.675  0.00  0.00     0.078 H 
ATOM     82  H   NAG d1175       9.834  -7.782  16.251  0.00  0.00     0.078 H 
ATOM     83  H   NAG d1175      12.376 -11.128  19.188  0.00  0.00     0.084 H 
ATOM     84  H   NAG d1175       9.907  -6.718  18.890  0.00  0.00     0.209 HD
ATOM     85  H   NAG d1175      13.733  -9.399  21.075  0.00  0.00     0.212 HD
ATOM     86  H   NAG d1175      15.181 -10.492  18.590  0.00  0.00     0.163 HD
ATOM     87  H   NAG d1175      12.070  -7.672  17.421  0.00  0.00     0.090 H 
ATOM     88  H   NAG d1175      10.840 -10.351  16.900  0.00  0.00     0.091 H 
ATOM     89  H   NAG d1175      12.494  -8.573  15.389  0.00  0.00     0.210 HD
ATOM     90  H   NAG d1175      13.432  -8.332  19.075  0.00  0.00     0.132 H 
ATOM     91  H   NAG d1175      15.988 -10.234  20.904  0.00  0.00     0.040 H 
ATOM     92  H   NAG d1175      16.497 -11.882  21.179  0.00  0.00     0.040 H 
ATOM     93  H   NAG d1175      15.181 -11.208  22.109  0.00  0.00     0.040 H 
ATOM     94  H   NAG d1175      13.709  -9.866  16.811  0.00  0.00     0.091 H 
ATOM     95  C4  NAG d1181       1.987 -17.211  -5.825  0.00  0.00     0.089 C 
ATOM     96  C3  NAG d1181       2.823 -18.456  -6.136  0.00  0.00     0.086 C 
ATOM     97  C6  NAG d1181       1.941 -14.935  -4.719  0.00  0.00     0.043 C 
ATOM     98  C5  NAG d1181       2.829 -16.070  -5.235  0.00  0.00     0.089 C 
ATOM     99  C7  NAG d1181       4.626 -21.051  -4.785  0.00  0.00     0.214 C 
ATOM    100  C8  NAG d1181       4.919 -21.157  -3.313  0.00  0.00    -0.003 C 
ATOM    101  N2  NAG d1181       4.699 -19.836  -5.330  0.00  0.00    -0.349 N 
ATOM    102  O3  NAG d1181       1.978 -19.565  -6.406  0.00  0.00    -0.391 OA
ATOM    103  C1  NAG d1181       4.533 -17.546  -4.512  0.00  0.00     0.154 C 
ATOM    104  O6  NAG d1181       2.694 -13.746  -4.600  0.00  0.00    -0.398 OA
ATOM    105  O5  NAG d1181       3.631 -16.526  -4.159  0.00  0.00    -0.349 OA
ATOM    106  O7  NAG d1181       4.328 -22.049  -5.446  0.00  0.00    -0.274 OA
ATOM    107  O4  NAG d1181       1.355 -16.769  -7.005  0.00  0.00    -0.390 OA
ATOM    108  C2  NAG d1181       3.762 -18.782  -4.972  0.00  0.00     0.087 C 
ATOM    109  H   NAG d1181       1.261 -17.485  -5.087  0.00  0.00     0.091 H 
ATOM    110  H   NAG d1181       3.415 -18.253  -7.004  0.00  0.00     0.090 H 
ATOM    111  H   NAG d1181       1.547 -15.202  -3.760  0.00  0.00     0.078 H 
ATOM    112  H   NAG d1181       1.139 -14.775  -5.409  0.00  0.00     0.078 H 
ATOM    113  H   NAG d1181       3.453 -15.711  -6.027  0.00  0.00     0.090 H 
ATOM    114  H   NAG d1181       5.154 -20.188  -2.926  0.00  0.00     0.040 H 
ATOM    115  H   NAG d1181       5.751 -21.813  -3.162  0.00  0.00     0.040 H 
ATOM    116  H   NAG d1181       4.060 -21.546  -2.805  0.00  0.00     0.040 H 
ATOM    117  H   NAG d1181       5.404 -19.648  -5.991  0.00  0.00     0.163 HD
ATOM    118  H   NAG d1181       1.437 -19.757  -5.624  0.00  0.00     0.210 HD
ATOM    119  H   NAG d1181       5.155 -17.166  -5.296  0.00  0.00     0.132 H 
ATOM    120  H   NAG d1181       3.422 -13.886  -3.975  0.00  0.00     0.209 HD
ATOM    121  H   NAG d1181       2.027 -16.526  -7.660  0.00  0.00     0.210 HD
ATOM    122  H   NAG d1181       3.149 -19.121  -4.163  0.00  0.00     0.084 H 
ATOM    123  C7  NAG d1179       9.214 -15.021   2.609  0.00  0.00     0.214 C 
ATOM    124  C1  NAG d1179      12.323 -16.066   1.582  0.00  0.00     0.154 C 
ATOM    125  C2  NAG d1179      10.963 -15.631   1.052  0.00  0.00     0.087 C 
ATOM    126  O5  NAG d1179      13.321 -15.808   0.617  0.00  0.00    -0.349 OA
ATOM    127  O7  NAG d1179       8.956 -13.938   2.088  0.00  0.00    -0.274 OA
ATOM    128  O4  NAG d1179      11.600 -16.586  -2.510  0.00  0.00    -0.390 OA
ATOM    129  N2  NAG d1179       9.911 -15.975   1.995  0.00  0.00    -0.349 N 
ATOM    130  C8  NAG d1179       8.732 -15.305   3.999  0.00  0.00    -0.003 C 
ATOM    131  O3  NAG d1179       9.537 -15.434  -0.851  0.00  0.00    -0.348 OA
ATOM    132  C4  NAG d1179      11.839 -15.949  -1.272  0.00  0.00     0.089 C 
ATOM    133  C5  NAG d1179      13.109 -16.487  -0.609  0.00  0.00     0.089 C 
ATOM    134  O6  NAG d1179      14.538 -14.959  -1.835  0.00  0.00    -0.398 OA
ATOM    135  C3  NAG d1179      10.645 -16.155  -0.346  0.00  0.00     0.093 C 
ATOM    136  C6  NAG d1179      14.345 -16.320  -1.493  0.00  0.00     0.043 C 
ATOM    137  H   NAG d1179      12.385 -17.115   1.785  0.00  0.00     0.132 H 
ATOM    138  H   NAG d1179      11.011 -14.566   0.952  0.00  0.00     0.084 H 
ATOM    139  H   NAG d1179      10.791 -16.227  -2.907  0.00  0.00     0.210 HD
ATOM    140  H   NAG d1179       9.712 -16.921   2.181  0.00  0.00     0.163 HD
ATOM    141  H   NAG d1179       9.045 -16.285   4.292  0.00  0.00     0.040 H 
ATOM    142  H   NAG d1179       7.664 -15.248   4.025  0.00  0.00     0.040 H 
ATOM    143  H   NAG d1179       9.144 -14.584   4.674  0.00  0.00     0.040 H 
ATOM    144  H   NAG d1179      11.975 -14.904  -1.455  0.00  0.00     0.091 H 
ATOM    145  H   NAG d1179      12.966 -17.535  -0.446  0.00  0.00     0.090 H 
ATOM    146  H   NAG d1179      15.326 -14.875  -2.394  0.00  0.00     0.209 HD
ATOM    147  H   NAG d1179      10.424 -17.201  -0.296  0.00  0.00     0.091 H 
ATOM    148  H   NAG d1179      14.216 -16.891  -2.389  0.00  0.00     0.078 H 
ATOM    149  H   NAG d1179      15.202 -16.663  -0.952  0.00  0.00     0.078 H 
ATOM    150  C6  BDP d1180       8.118 -18.592  -4.069  0.00  0.00     0.206 C 
ATOM    151  O3  BDP d1180       5.042 -15.172  -2.269  0.00  0.00    -0.390 OA
ATOM    152  C1  BDP d1180       8.451 -16.291  -1.231  0.00  0.00     0.160 C 
ATOM    153  O2  BDP d1180       6.802 -15.338   0.187  0.00  0.00    -0.388 OA
ATOM    154  C3  BDP d1180       5.963 -16.172  -1.886  0.00  0.00     0.092 C 
ATOM    155  O4  BDP d1180       5.356 -17.931  -3.398  0.00  0.00    -0.348 OA
ATOM    156  O5  BDP d1180       8.665 -16.812  -2.524  0.00  0.00    -0.340 OA
ATOM    157  C5  BDP d1180       7.666 -17.748  -2.875  0.00  0.00     0.152 C 
ATOM    158  O6B BDP d1180       8.534 -17.998  -5.093  0.00  0.00    -0.646 OA
ATOM    159  O6A BDP d1180       8.060 -19.840  -3.949  0.00  0.00    -0.646 OA
ATOM    160  C2  BDP d1180       7.144 -15.499  -1.174  0.00  0.00     0.110 C 
ATOM    161  C4  BDP d1180       6.365 -16.987  -3.119  0.00  0.00     0.103 C 
ATOM    162  H   BDP d1180       4.785 -14.653  -1.491  0.00  0.00     0.210 HD
ATOM    163  H   BDP d1180       8.391 -17.116  -0.552  0.00  0.00     0.133 H 
ATOM    164  H   BDP d1180       7.536 -14.914   0.657  0.00  0.00     0.210 HD
ATOM    165  H   BDP d1180       5.534 -16.865  -1.194  0.00  0.00     0.091 H 
ATOM    166  H   BDP d1180       7.495 -18.446  -2.083  0.00  0.00     0.104 H 
ATOM    167  H   BDP d1180       7.318 -14.574  -1.681  0.00  0.00     0.094 H 
ATOM    168  H   BDP d1180       6.500 -16.309  -3.936  0.00  0.00     0.092 H 
ENDROOT
TORSDOF 43
ENDMDL
MODEL 46
REMARK VINA RESULT:      -6.0      6.086      7.829
REMARK  0 active torsions:
REMARK  status: ('A' for Active; 'I' for Inactive)
REMARK       I    between atoms: C1_1  and  O3_15 
REMARK       I    between atoms: C1_2  and  O3_93 
REMARK       I    between atoms: C6_3  and  C5_89 
REMARK       I    between atoms: C6_3  and  O6_76 
REMARK       I    between atoms: O3_4  and  C3_22 
REMARK       I    between atoms: C6_5  and  C5_48 
REMARK       I    between atoms: C6_5  and  O6_31 
REMARK       I    between atoms: C4_6  and  O4_74 
REMARK       I    between atoms: C7_7  and  C8_62 
REMARK       I    between atoms: C7_7  and  N2_60 
REMARK       I    between atoms: C6_8  and  C5_52 
REMARK       I    between atoms: C3_9  and  O3_38 
REMARK       I    between atoms: C1_10  and  O4_75 
REMARK       I    between atoms: C6_12  and  C5_51 
REMARK       I    between atoms: O3_13  and  C3_42 
REMARK       I    between atoms: O4_14  and  C4_84 
REMARK       I    between atoms: O3_15  and  C3_86 
REMARK       I    between atoms: C6_16  and  C5_23 
REMARK       I    between atoms: C6_16  and  O6_58 
REMARK       I    between atoms: C1_17  and  O3_63 
REMARK       I    between atoms: C2_18  and  N2_60 
REMARK       I    between atoms: C2_19  and  N2_53 
REMARK       I    between atoms: O2_20  and  C2_66 
REMARK       I    between atoms: C3_25  and  O3_93 
REMARK       I    between atoms: C7_26  and  C8_32 
REMARK       I    between atoms: C7_26  and  N2_37 
REMARK       I    between atoms: C2_28  and  N2_44 
REMARK       I    between atoms: C7_29  and  C8_54 
REMARK       I    between atoms: C7_29  and  N2_53 
REMARK       I    between atoms: O1_33  and  C1_80 
REMARK       I    between atoms: O4_34  and  C4_40 
REMARK       I    between atoms: O4_34  and  C1_92 
REMARK       I    between atoms: C7_36  and  C8_81 
REMARK       I    between atoms: C7_36  and  N2_44 
REMARK       I    between atoms: N2_37  and  C2_83 
REMARK       I    between atoms: O3_39  and  C3_61 
REMARK       I    between atoms: C1_41  and  O4_46 
REMARK       I    between atoms: O2_43  and  C2_73 
REMARK       I    between atoms: C6_45  and  C5_87 
REMARK       I    between atoms: O4_46  and  C4_67 
REMARK       I    between atoms: C4_50  and  O4_65 
REMARK       I    between atoms: C2_55  and  O2_82 
REMARK       I    between atoms: O4_57  and  C4_71 
REMARK       I    between atoms: O3_63  and  C3_85 
REMARK       I    between atoms: O4_75  and  C4_91 
REMARK       I    between atoms: C5_77  and  C6_90 
REMARK       I    between atoms: O6_79  and  C6_90 
ROOT
ATOM      1  C1  BDP d1176      13.806 -11.696  14.283  0.00  0.00     0.160 C 
ATOM      2  O3  BDP d1176      14.945 -15.014  12.916  0.00  0.00    -0.390 OA
ATOM      3  O5  BDP d1176      12.905 -11.583  13.217  0.00  0.00    -0.340 OA
ATOM      4  O6A BDP d1176      11.368 -11.858  11.002  0.00  0.00    -0.646 OA
ATOM      5  C3  BDP d1176      14.856 -13.604  12.896  0.00  0.00     0.092 C 
ATOM      6  O4  BDP d1176      14.653 -13.280  10.539  0.00  0.00    -0.348 OA
ATOM      7  C4  BDP d1176      13.942 -13.176  11.758  0.00  0.00     0.103 C 
ATOM      8  C6  BDP d1176      12.480 -11.298  10.938  0.00  0.00     0.206 C 
ATOM      9  C2  BDP d1176      14.449 -13.088  14.275  0.00  0.00     0.110 C 
ATOM     10  O6B BDP d1176      12.812 -10.421  10.114  0.00  0.00    -0.646 OA
ATOM     11  O2  BDP d1176      15.633 -13.041  15.034  0.00  0.00    -0.388 OA
ATOM     12  C5  BDP d1176      13.506 -11.731  11.963  0.00  0.00     0.152 C 
ATOM     13  H   BDP d1176      14.589 -10.973  14.193  0.00  0.00     0.133 H 
ATOM     14  H   BDP d1176      15.528 -15.291  13.640  0.00  0.00     0.210 HD
ATOM     15  H   BDP d1176      15.808 -13.155  12.696  0.00  0.00     0.091 H 
ATOM     16  H   BDP d1176      13.076 -13.805  11.735  0.00  0.00     0.092 H 
ATOM     17  H   BDP d1176      13.700 -13.746  14.664  0.00  0.00     0.094 H 
ATOM     18  H   BDP d1176      16.258 -12.426  14.618  0.00  0.00     0.210 HD
ATOM     19  H   BDP d1176      14.388 -11.133  11.871  0.00  0.00     0.104 H 
ATOM     20  C1  BDP d1178      14.217 -15.184   5.077  0.00  0.00     0.160 C 
ATOM     21  C6  BDP d1178      11.883 -17.505   3.326  0.00  0.00     0.206 C 
ATOM     22  O6B BDP d1178      10.706 -17.386   2.908  0.00  0.00    -0.646 OA
ATOM     23  O6A BDP d1178      12.484 -18.601   3.449  0.00  0.00    -0.646 OA
ATOM     24  O3  BDP d1178      14.998 -14.217   1.562  0.00  0.00    -0.390 OA
ATOM     25  O2  BDP d1178      15.895 -13.711   4.170  0.00  0.00    -0.388 OA
ATOM     26  C5  BDP d1178      12.609 -16.203   3.674  0.00  0.00     0.152 C 
ATOM     27  C3  BDP d1178      14.217 -14.511   2.699  0.00  0.00     0.092 C 
ATOM     28  C2  BDP d1178      15.096 -14.830   3.882  0.00  0.00     0.110 C 
ATOM     29  O4  BDP d1178      12.303 -15.197   1.561  0.00  0.00    -0.348 OA
ATOM     30  O5  BDP d1178      13.492 -16.357   4.779  0.00  0.00    -0.340 OA
ATOM     31  C4  BDP d1178      13.297 -15.686   2.416  0.00  0.00     0.103 C 
ATOM     32  H   BDP d1178      13.490 -14.430   5.296  0.00  0.00     0.133 H 
ATOM     33  H   BDP d1178      15.581 -13.466   1.755  0.00  0.00     0.210 HD
ATOM     34  H   BDP d1178      16.464 -13.906   4.930  0.00  0.00     0.210 HD
ATOM     35  H   BDP d1178      11.901 -15.471   4.001  0.00  0.00     0.104 H 
ATOM     36  H   BDP d1178      13.628 -13.648   2.929  0.00  0.00     0.091 H 
ATOM     37  H   BDP d1178      15.730 -15.663   3.664  0.00  0.00     0.094 H 
ATOM     38  H   BDP d1178      13.868 -16.491   2.004  0.00  0.00     0.092 H 
ATOM     39  C6  NAG d1177      14.497 -18.030  10.273  0.00  0.00     0.043 C 
ATOM     40  O4  NAG d1177      14.264 -17.747   7.309  0.00  0.00    -0.390 OA
ATOM     41  C2  NAG d1177      14.760 -14.188   8.314  0.00  0.00     0.087 C 
ATOM     42  C3  NAG d1177      14.391 -15.383   7.444  0.00  0.00     0.093 C 
ATOM     43  C7  NAG d1177      14.934 -11.899   7.419  0.00  0.00     0.214 C 
ATOM     44  N2  NAG d1177      14.220 -12.987   7.693  0.00  0.00    -0.349 N 
ATOM     45  C8  NAG d1177      14.126 -10.668   7.139  0.00  0.00    -0.003 C 
ATOM     46  O7  NAG d1177      16.168 -11.864   7.370  0.00  0.00    -0.274 OA
ATOM     47  O6  NAG d1177      15.489 -17.776  11.252  0.00  0.00    -0.398 OA
ATOM     48  C4  NAG d1177      14.751 -16.697   8.121  0.00  0.00     0.089 C 
ATOM     49  O5  NAG d1177      14.595 -15.631  10.273  0.00  0.00    -0.349 OA
ATOM     50  C5  NAG d1177      14.149 -16.743   9.525  0.00  0.00     0.089 C 
ATOM     51  C1  NAG d1177      14.212 -14.379   9.729  0.00  0.00     0.154 C 
ATOM     52  O3  NAG d1177      15.082 -15.313   6.218  0.00  0.00    -0.348 OA
ATOM     53  H   NAG d1177      14.865 -18.754   9.578  0.00  0.00     0.078 H 
ATOM     54  H   NAG d1177      13.617 -18.400  10.758  0.00  0.00     0.078 H 
ATOM     55  H   NAG d1177      14.666 -17.687   6.428  0.00  0.00     0.210 HD
ATOM     56  H   NAG d1177      15.823 -14.096   8.392  0.00  0.00     0.084 H 
ATOM     57  H   NAG d1177      13.333 -15.350   7.286  0.00  0.00     0.091 H 
ATOM     58  H   NAG d1177      13.263 -12.980   7.461  0.00  0.00     0.163 HD
ATOM     59  H   NAG d1177      13.085 -10.896   7.230  0.00  0.00     0.040 H 
ATOM     60  H   NAG d1177      14.330 -10.325   6.147  0.00  0.00     0.040 H 
ATOM     61  H   NAG d1177      14.385  -9.903   7.842  0.00  0.00     0.040 H 
ATOM     62  H   NAG d1177      16.290 -17.440  10.821  0.00  0.00     0.209 HD
ATOM     63  H   NAG d1177      15.811 -16.795   8.230  0.00  0.00     0.091 H 
ATOM     64  H   NAG d1177      13.085 -16.717   9.411  0.00  0.00     0.090 H 
ATOM     65  H   NAG d1177      13.142 -14.388   9.701  0.00  0.00     0.132 H 
ATOM     66  C6  NAG d1175      10.128  -7.583  16.051  0.00  0.00     0.043 C 
ATOM     67  O3  NAG d1175      13.079 -11.470  15.511  0.00  0.00    -0.348 OA
ATOM     68  C2  NAG d1175      13.295 -10.107  17.469  0.00  0.00     0.087 C 
ATOM     69  O6  NAG d1175       9.998  -6.318  16.658  0.00  0.00    -0.398 OA
ATOM     70  O1  NAG d1175      13.108  -8.801  19.502  0.00  0.00    -0.369 OA
ATOM     71  C7  NAG d1175      14.940 -11.360  18.773  0.00  0.00     0.214 C 
ATOM     72  N2  NAG d1175      14.661 -10.523  17.772  0.00  0.00    -0.349 N 
ATOM     73  C5  NAG d1175      11.523  -8.114  16.357  0.00  0.00     0.089 C 
ATOM     74  O5  NAG d1175      11.648  -8.379  17.746  0.00  0.00    -0.349 OA
ATOM     75  C4  NAG d1175      11.808  -9.358  15.512  0.00  0.00     0.089 C 
ATOM     76  O4  NAG d1175      11.896  -8.938  14.163  0.00  0.00    -0.390 OA
ATOM     77  O7  NAG d1175      14.424 -12.480  18.877  0.00  0.00    -0.274 OA
ATOM     78  C1  NAG d1175      12.973  -8.744  18.096  0.00  0.00     0.151 C 
ATOM     79  C8  NAG d1175      15.945 -10.870  19.778  0.00  0.00    -0.003 C 
ATOM     80  C3  NAG d1175      13.080 -10.111  15.945  0.00  0.00     0.093 C 
ATOM     81  H   NAG d1175       9.391  -8.251  16.444  0.00  0.00     0.078 H 
ATOM     82  H   NAG d1175       9.987  -7.502  14.993  0.00  0.00     0.078 H 
ATOM     83  H   NAG d1175      12.613 -10.807  17.904  0.00  0.00     0.084 H 
ATOM     84  H   NAG d1175      10.129  -6.404  17.615  0.00  0.00     0.209 HD
ATOM     85  H   NAG d1175      14.017  -9.051  19.730  0.00  0.00     0.212 HD
ATOM     86  H   NAG d1175      15.399 -10.175  17.221  0.00  0.00     0.163 HD
ATOM     87  H   NAG d1175      12.253  -7.375  16.101  0.00  0.00     0.090 H 
ATOM     88  H   NAG d1175      11.013 -10.062  15.648  0.00  0.00     0.091 H 
ATOM     89  H   NAG d1175      12.623  -8.302  14.070  0.00  0.00     0.210 HD
ATOM     90  H   NAG d1175      13.660  -8.011  17.725  0.00  0.00     0.132 H 
ATOM     91  H   NAG d1175      16.269  -9.886  19.509  0.00  0.00     0.040 H 
ATOM     92  H   NAG d1175      16.787 -11.530  19.792  0.00  0.00     0.040 H 
ATOM     93  H   NAG d1175      15.496 -10.844  20.749  0.00  0.00     0.040 H 
ATOM     94  H   NAG d1175      13.878  -9.574  15.476  0.00  0.00     0.091 H 
ATOM     95  C4  NAG d1181       1.557 -17.233  -6.735  0.00  0.00     0.089 C 
ATOM     96  C3  NAG d1181       2.387 -18.481  -7.053  0.00  0.00     0.086 C 
ATOM     97  C6  NAG d1181       1.537 -14.943  -5.658  0.00  0.00     0.043 C 
ATOM     98  C5  NAG d1181       2.413 -16.083  -6.183  0.00  0.00     0.089 C 
ATOM     99  C7  NAG d1181       4.229 -21.055  -5.717  0.00  0.00     0.214 C 
ATOM    100  C8  NAG d1181       4.563 -21.142  -4.252  0.00  0.00    -0.003 C 
ATOM    101  N2  NAG d1181       4.285 -19.848  -6.279  0.00  0.00    -0.349 N 
ATOM    102  O3  NAG d1181       1.537 -19.594  -7.284  0.00  0.00    -0.391 OA
ATOM    103  C1  NAG d1181       4.139 -17.547  -5.487  0.00  0.00     0.154 C 
ATOM    104  O6  NAG d1181       2.292 -13.751  -5.576  0.00  0.00    -0.398 OA
ATOM    105  O5  NAG d1181       3.245 -16.523  -5.124  0.00  0.00    -0.349 OA
ATOM    106  O7  NAG d1181       3.916 -22.062  -6.356  0.00  0.00    -0.274 OA
ATOM    107  O4  NAG d1181       0.892 -16.807  -7.904  0.00  0.00    -0.390 OA
ATOM    108  C2  NAG d1181       3.357 -18.790  -5.910  0.00  0.00     0.087 C 
ATOM    109  H   NAG d1181       0.852 -17.497  -5.975  0.00  0.00     0.091 H 
ATOM    110  H   NAG d1181       2.954 -18.288  -7.939  0.00  0.00     0.090 H 
ATOM    111  H   NAG d1181       1.171 -15.197  -4.686  0.00  0.00     0.078 H 
ATOM    112  H   NAG d1181       0.718 -14.792  -6.329  0.00  0.00     0.078 H 
ATOM    113  H   NAG d1181       3.015 -15.734  -6.997  0.00  0.00     0.090 H 
ATOM    114  H   NAG d1181       4.806 -20.167  -3.884  0.00  0.00     0.040 H 
ATOM    115  H   NAG d1181       5.399 -21.795  -4.115  0.00  0.00     0.040 H 
ATOM    116  H   NAG d1181       3.719 -21.525  -3.716  0.00  0.00     0.040 H 
ATOM    117  H   NAG d1181       4.972 -19.668  -6.961  0.00  0.00     0.163 HD
ATOM    118  H   NAG d1181       1.017 -19.776  -6.485  0.00  0.00     0.210 HD
ATOM    119  H   NAG d1181       4.738 -17.177  -6.293  0.00  0.00     0.132 H 
ATOM    120  H   NAG d1181       3.037 -13.882  -4.969  0.00  0.00     0.209 HD
ATOM    121  H   NAG d1181       1.547 -16.572  -8.580  0.00  0.00     0.210 HD
ATOM    122  H   NAG d1181       2.767 -19.119  -5.080  0.00  0.00     0.084 H 
ATOM    123  C7  NAG d1179       9.007 -14.922   1.470  0.00  0.00     0.214 C 
ATOM    124  C1  NAG d1179      12.089 -15.977   0.372  0.00  0.00     0.154 C 
ATOM    125  C2  NAG d1179      10.714 -15.550  -0.126  0.00  0.00     0.087 C 
ATOM    126  O5  NAG d1179      13.059 -15.731  -0.623  0.00  0.00    -0.349 OA
ATOM    127  O7  NAG d1179       8.734 -13.847   0.942  0.00  0.00    -0.274 OA
ATOM    128  O4  NAG d1179      11.256 -16.552  -3.691  0.00  0.00    -0.390 OA
ATOM    129  N2  NAG d1179       9.689 -15.884   0.849  0.00  0.00    -0.349 N 
ATOM    130  C8  NAG d1179       8.564 -15.189   2.876  0.00  0.00    -0.003 C 
ATOM    131  O3  NAG d1179       9.237 -15.380  -1.992  0.00  0.00    -0.348 OA
ATOM    132  C4  NAG d1179      11.527 -15.899  -2.469  0.00  0.00     0.089 C 
ATOM    133  C5  NAG d1179      12.816 -16.426  -1.833  0.00  0.00     0.089 C 
ATOM    134  O6  NAG d1179      14.209 -14.913  -3.118  0.00  0.00    -0.398 OA
ATOM    135  C3  NAG d1179      10.359 -16.094  -1.508  0.00  0.00     0.093 C 
ATOM    136  C6  NAG d1179      14.027 -16.269  -2.753  0.00  0.00     0.043 C 
ATOM    137  H   NAG d1179      12.158 -17.023   0.588  0.00  0.00     0.132 H 
ATOM    138  H   NAG d1179      10.758 -14.487  -0.241  0.00  0.00     0.084 H 
ATOM    139  H   NAG d1179      10.436 -16.199  -4.071  0.00  0.00     0.210 HD
ATOM    140  H   NAG d1179       9.497 -16.827   1.053  0.00  0.00     0.163 HD
ATOM    141  H   NAG d1179       8.886 -16.164   3.173  0.00  0.00     0.040 H 
ATOM    142  H   NAG d1179       7.496 -15.133   2.930  0.00  0.00     0.040 H 
ATOM    143  H   NAG d1179       8.992 -14.458   3.530  0.00  0.00     0.040 H 
ATOM    144  H   NAG d1179      11.657 -14.856  -2.669  0.00  0.00     0.091 H 
ATOM    145  H   NAG d1179      12.679 -17.472  -1.652  0.00  0.00     0.090 H 
ATOM    146  H   NAG d1179      14.981 -14.835  -3.699  0.00  0.00     0.209 HD
ATOM    147  H   NAG d1179      10.142 -17.139  -1.438  0.00  0.00     0.091 H 
ATOM    148  H   NAG d1179      13.875 -16.853  -3.637  0.00  0.00     0.078 H 
ATOM    149  H   NAG d1179      14.899 -16.605  -2.231  0.00  0.00     0.078 H 
ATOM    150  C6  BDP d1180       7.736 -18.583  -5.128  0.00  0.00     0.206 C 
ATOM    151  O3  BDP d1180       4.704 -15.143  -3.291  0.00  0.00    -0.390 OA
ATOM    152  C1  BDP d1180       8.142 -16.244  -2.331  0.00  0.00     0.160 C 
ATOM    153  O2  BDP d1180       6.530 -15.274  -0.882  0.00  0.00    -0.388 OA
ATOM    154  C3  BDP d1180       5.638 -16.137  -2.920  0.00  0.00     0.092 C 
ATOM    155  O4  BDP d1180       4.992 -17.917  -4.391  0.00  0.00    -0.348 OA
ATOM    156  O5  BDP d1180       8.322 -16.782  -3.622  0.00  0.00    -0.340 OA
ATOM    157  C5  BDP d1180       7.316 -17.724  -3.934  0.00  0.00     0.152 C 
ATOM    158  O6B BDP d1180       8.123 -18.002  -6.171  0.00  0.00    -0.646 OA
ATOM    159  O6A BDP d1180       7.683 -19.829  -4.990  0.00  0.00    -0.646 OA
ATOM    160  C2  BDP d1180       6.836 -15.453  -2.249  0.00  0.00     0.110 C 
ATOM    161  C4  BDP d1180       6.007 -16.967  -4.152  0.00  0.00     0.103 C 
ATOM    162  H   BDP d1180       4.468 -14.614  -2.513  0.00  0.00     0.210 HD
ATOM    163  H   BDP d1180       8.102 -17.060  -1.640  0.00  0.00     0.133 H 
ATOM    164  H   BDP d1180       7.277 -14.843  -0.437  0.00  0.00     0.210 HD
ATOM    165  H   BDP d1180       5.228 -16.822  -2.207  0.00  0.00     0.091 H 
ATOM    166  H   BDP d1180       7.166 -18.411  -3.128  0.00  0.00     0.104 H 
ATOM    167  H   BDP d1180       6.995 -14.534  -2.773  0.00  0.00     0.094 H 
ATOM    168  H   BDP d1180       6.118 -16.300  -4.981  0.00  0.00     0.092 H 
ENDROOT
TORSDOF 43
ENDMDL
MODEL 47
REMARK VINA RESULT:      -6.0      3.475     19.192
REMARK  0 active torsions:
REMARK  status: ('A' for Active; 'I' for Inactive)
REMARK       I    between atoms: C1_1  and  O3_15 
REMARK       I    between atoms: C1_2  and  O3_93 
REMARK       I    between atoms: C6_3  and  C5_89 
REMARK       I    between atoms: C6_3  and  O6_76 
REMARK       I    between atoms: O3_4  and  C3_22 
REMARK       I    between atoms: C6_5  and  C5_48 
REMARK       I    between atoms: C6_5  and  O6_31 
REMARK       I    between atoms: C4_6  and  O4_74 
REMARK       I    between atoms: C7_7  and  C8_62 
REMARK       I    between atoms: C7_7  and  N2_60 
REMARK       I    between atoms: C6_8  and  C5_52 
REMARK       I    between atoms: C3_9  and  O3_38 
REMARK       I    between atoms: C1_10  and  O4_75 
REMARK       I    between atoms: C6_12  and  C5_51 
REMARK       I    between atoms: O3_13  and  C3_42 
REMARK       I    between atoms: O4_14  and  C4_84 
REMARK       I    between atoms: O3_15  and  C3_86 
REMARK       I    between atoms: C6_16  and  C5_23 
REMARK       I    between atoms: C6_16  and  O6_58 
REMARK       I    between atoms: C1_17  and  O3_63 
REMARK       I    between atoms: C2_18  and  N2_60 
REMARK       I    between atoms: C2_19  and  N2_53 
REMARK       I    between atoms: O2_20  and  C2_66 
REMARK       I    between atoms: C3_25  and  O3_93 
REMARK       I    between atoms: C7_26  and  C8_32 
REMARK       I    between atoms: C7_26  and  N2_37 
REMARK       I    between atoms: C2_28  and  N2_44 
REMARK       I    between atoms: C7_29  and  C8_54 
REMARK       I    between atoms: C7_29  and  N2_53 
REMARK       I    between atoms: O1_33  and  C1_80 
REMARK       I    between atoms: O4_34  and  C4_40 
REMARK       I    between atoms: O4_34  and  C1_92 
REMARK       I    between atoms: C7_36  and  C8_81 
REMARK       I    between atoms: C7_36  and  N2_44 
REMARK       I    between atoms: N2_37  and  C2_83 
REMARK       I    between atoms: O3_39  and  C3_61 
REMARK       I    between atoms: C1_41  and  O4_46 
REMARK       I    between atoms: O2_43  and  C2_73 
REMARK       I    between atoms: C6_45  and  C5_87 
REMARK       I    between atoms: O4_46  and  C4_67 
REMARK       I    between atoms: C4_50  and  O4_65 
REMARK       I    between atoms: C2_55  and  O2_82 
REMARK       I    between atoms: O4_57  and  C4_71 
REMARK       I    between atoms: O3_63  and  C3_85 
REMARK       I    between atoms: O4_75  and  C4_91 
REMARK       I    between atoms: C5_77  and  C6_90 
REMARK       I    between atoms: O6_79  and  C6_90 
ROOT
ATOM      1  C1  BDP d1176      11.674 -14.608  -1.438  0.00  0.00     0.160 C 
ATOM      2  O3  BDP d1176      14.212 -12.547   0.429  0.00  0.00    -0.390 OA
ATOM      3  O5  BDP d1176      10.850 -14.590  -0.306  0.00  0.00    -0.340 OA
ATOM      4  O6A BDP d1176       9.663 -14.252   2.107  0.00  0.00    -0.646 OA
ATOM      5  C3  BDP d1176      13.506 -13.741   0.162  0.00  0.00     0.092 C 
ATOM      6  O4  BDP d1176      13.250 -14.526   2.403  0.00  0.00    -0.348 OA
ATOM      7  C4  BDP d1176      12.531 -14.009   1.299  0.00  0.00     0.103 C 
ATOM      8  C6  BDP d1176      10.411 -15.227   1.898  0.00  0.00     0.206 C 
ATOM      9  C2  BDP d1176      12.870 -13.671  -1.224  0.00  0.00     0.110 C 
ATOM     10  O6B BDP d1176      10.343 -16.338   2.464  0.00  0.00    -0.646 OA
ATOM     11  O2  BDP d1176      13.885 -14.026  -2.132  0.00  0.00    -0.388 OA
ATOM     12  C5  BDP d1176      11.491 -15.030   0.856  0.00  0.00     0.152 C 
ATOM     13  H   BDP d1176      12.055 -15.592  -1.612  0.00  0.00     0.133 H 
ATOM     14  H   BDP d1176      14.835 -12.372  -0.294  0.00  0.00     0.210 HD
ATOM     15  H   BDP d1176      14.163 -14.585   0.130  0.00  0.00     0.091 H 
ATOM     16  H   BDP d1176      12.037 -13.101   1.573  0.00  0.00     0.092 H 
ATOM     17  H   BDP d1176      12.481 -12.684  -1.359  0.00  0.00     0.094 H 
ATOM     18  H   BDP d1176      14.183 -14.930  -1.946  0.00  0.00     0.210 HD
ATOM     19  H   BDP d1176      12.017 -15.948   0.697  0.00  0.00     0.104 H 
ATOM     20  C1  BDP d1178      13.872 -14.051   8.151  0.00  0.00     0.160 C 
ATOM     21  C6  BDP d1178      12.871 -11.479  10.656  0.00  0.00     0.206 C 
ATOM     22  O6B BDP d1178      11.777 -11.187  11.197  0.00  0.00    -0.646 OA
ATOM     23  O6A BDP d1178      13.893 -10.750  10.686  0.00  0.00    -0.646 OA
ATOM     24  O3  BDP d1178      14.247 -16.104  11.240  0.00  0.00    -0.390 OA
ATOM     25  O2  BDP d1178      14.745 -16.273   8.486  0.00  0.00    -0.388 OA
ATOM     26  C5  BDP d1178      12.930 -12.832   9.945  0.00  0.00     0.152 C 
ATOM     27  C3  BDP d1178      13.645 -15.232  10.310  0.00  0.00     0.092 C 
ATOM     28  C2  BDP d1178      14.537 -15.032   9.111  0.00  0.00     0.110 C 
ATOM     29  O4  BDP d1178      12.272 -14.107  11.820  0.00  0.00    -0.348 OA
ATOM     30  O5  BDP d1178      13.756 -12.797   8.787  0.00  0.00    -0.340 OA
ATOM     31  C4  BDP d1178      13.353 -13.890  10.959  0.00  0.00     0.103 C 
ATOM     32  H   BDP d1178      12.879 -14.343   7.880  0.00  0.00     0.133 H 
ATOM     33  H   BDP d1178      14.427 -16.956  10.815  0.00  0.00     0.210 HD
ATOM     34  H   BDP d1178      15.319 -16.154   7.713  0.00  0.00     0.210 HD
ATOM     35  H   BDP d1178      11.960 -13.087   9.571  0.00  0.00     0.104 H 
ATOM     36  H   BDP d1178      12.726 -15.675   9.986  0.00  0.00     0.091 H 
ATOM     37  H   BDP d1178      15.483 -14.630   9.411  0.00  0.00     0.094 H 
ATOM     38  H   BDP d1178      14.235 -13.535  11.448  0.00  0.00     0.092 H 
ATOM     39  C6  NAG d1177      15.235 -10.394   3.684  0.00  0.00     0.043 C 
ATOM     40  O4  NAG d1177      14.989 -11.283   6.526  0.00  0.00    -0.390 OA
ATOM     41  C2  NAG d1177      13.818 -14.338   4.734  0.00  0.00     0.087 C 
ATOM     42  C3  NAG d1177      14.046 -13.360   5.878  0.00  0.00     0.093 C 
ATOM     43  C7  NAG d1177      12.981 -16.628   5.092  0.00  0.00     0.214 C 
ATOM     44  N2  NAG d1177      12.818 -15.309   5.155  0.00  0.00    -0.349 N 
ATOM     45  C8  NAG d1177      11.717 -17.426   5.214  0.00  0.00    -0.003 C 
ATOM     46  O7  NAG d1177      14.071 -17.195   4.962  0.00  0.00    -0.274 OA
ATOM     47  O6  NAG d1177      15.980 -10.791   2.547  0.00  0.00    -0.398 OA
ATOM     48  C4  NAG d1177      14.933 -12.200   5.451  0.00  0.00     0.089 C 
ATOM     49  O5  NAG d1177      14.254 -12.522   3.164  0.00  0.00    -0.349 OA
ATOM     50  C5  NAG d1177      14.372 -11.552   4.185  0.00  0.00     0.089 C 
ATOM     51  C1  NAG d1177      13.369 -13.585   3.480  0.00  0.00     0.154 C 
ATOM     52  O3  NAG d1177      14.670 -14.020   6.955  0.00  0.00    -0.348 OA
ATOM     53  H   NAG d1177      15.908 -10.094   4.460  0.00  0.00     0.078 H 
ATOM     54  H   NAG d1177      14.597  -9.577   3.415  0.00  0.00     0.078 H 
ATOM     55  H   NAG d1177      15.348 -11.726   7.310  0.00  0.00     0.210 HD
ATOM     56  H   NAG d1177      14.726 -14.850   4.492  0.00  0.00     0.084 H 
ATOM     57  H   NAG d1177      13.089 -12.979   6.170  0.00  0.00     0.091 H 
ATOM     58  H   NAG d1177      11.966 -14.967   5.509  0.00  0.00     0.163 HD
ATOM     59  H   NAG d1177      10.885 -16.762   5.318  0.00  0.00     0.040 H 
ATOM     60  H   NAG d1177      11.777 -18.060   6.074  0.00  0.00     0.040 H 
ATOM     61  H   NAG d1177      11.588 -18.025   4.337  0.00  0.00     0.040 H 
ATOM     62  H   NAG d1177      16.560 -11.531   2.783  0.00  0.00     0.209 HD
ATOM     63  H   NAG d1177      15.921 -12.537   5.220  0.00  0.00     0.091 H 
ATOM     64  H   NAG d1177      13.412 -11.152   4.436  0.00  0.00     0.090 H 
ATOM     65  H   NAG d1177      12.417 -13.130   3.656  0.00  0.00     0.132 H 
ATOM     66  C6  NAG d1175       6.498 -16.182  -3.511  0.00  0.00     0.043 C 
ATOM     67  O3  NAG d1175      10.886 -14.187  -2.574  0.00  0.00    -0.348 OA
ATOM     68  C2  NAG d1175      10.413 -14.976  -4.786  0.00  0.00     0.087 C 
ATOM     69  O6  NAG d1175       5.800 -17.075  -4.348  0.00  0.00    -0.398 OA
ATOM     70  O1  NAG d1175       9.603 -15.524  -7.004  0.00  0.00    -0.369 OA
ATOM     71  C7  NAG d1175      12.404 -14.258  -6.010  0.00  0.00     0.214 C 
ATOM     72  N2  NAG d1175      11.812 -15.118  -5.180  0.00  0.00    -0.349 N 
ATOM     73  C5  NAG d1175       7.974 -16.235  -3.887  0.00  0.00     0.089 C 
ATOM     74  O5  NAG d1175       8.161 -15.710  -5.193  0.00  0.00    -0.349 OA
ATOM     75  C4  NAG d1175       8.808 -15.485  -2.846  0.00  0.00     0.089 C 
ATOM     76  O4  NAG d1175       8.740 -16.226  -1.642  0.00  0.00    -0.390 OA
ATOM     77  O7  NAG d1175      12.438 -13.039  -5.803  0.00  0.00    -0.274 OA
ATOM     78  C1  NAG d1175       9.499 -15.868  -5.636  0.00  0.00     0.151 C 
ATOM     79  C8  NAG d1175      13.055 -14.860  -7.225  0.00  0.00    -0.003 C 
ATOM     80  C3  NAG d1175      10.268 -15.263  -3.282  0.00  0.00     0.093 C 
ATOM     81  H   NAG d1175       6.124 -15.189  -3.649  0.00  0.00     0.078 H 
ATOM     82  H   NAG d1175       6.367 -16.456  -2.485  0.00  0.00     0.078 H 
ATOM     83  H   NAG d1175      10.101 -13.968  -4.966  0.00  0.00     0.084 H 
ATOM     84  H   NAG d1175       5.926 -16.816  -5.274  0.00  0.00     0.209 HD
ATOM     85  H   NAG d1175      10.521 -15.636  -7.297  0.00  0.00     0.212 HD
ATOM     86  H   NAG d1175      12.333 -15.872  -4.822  0.00  0.00     0.163 HD
ATOM     87  H   NAG d1175       8.304 -17.253  -3.896  0.00  0.00     0.090 H 
ATOM     88  H   NAG d1175       8.406 -14.501  -2.720  0.00  0.00     0.091 H 
ATOM     89  H   NAG d1175       9.110 -17.112  -1.786  0.00  0.00     0.210 HD
ATOM     90  H   NAG d1175       9.799 -16.890  -5.527  0.00  0.00     0.132 H 
ATOM     91  H   NAG d1175      12.914 -15.920  -7.217  0.00  0.00     0.040 H 
ATOM     92  H   NAG d1175      14.102 -14.640  -7.215  0.00  0.00     0.040 H 
ATOM     93  H   NAG d1175      12.612 -14.448  -8.107  0.00  0.00     0.040 H 
ATOM     94  H   NAG d1175      10.758 -16.186  -3.050  0.00  0.00     0.091 H 
ATOM     95  C4  NAG d1181       3.813  -9.848  21.756  0.00  0.00     0.089 C 
ATOM     96  C3  NAG d1181       5.120  -9.194  22.213  0.00  0.00     0.086 C 
ATOM     97  C6  NAG d1181       2.742 -11.563  20.233  0.00  0.00     0.043 C 
ATOM     98  C5  NAG d1181       4.049 -11.074  20.862  0.00  0.00     0.089 C 
ATOM     99  C7  NAG d1181       7.876  -7.402  21.210  0.00  0.00     0.214 C 
ATOM    100  C8  NAG d1181       8.168  -7.102  19.765  0.00  0.00    -0.003 C 
ATOM    101  N2  NAG d1181       7.405  -8.617  21.492  0.00  0.00    -0.349 N 
ATOM    102  O3  NAG d1181       4.863  -7.922  22.790  0.00  0.00    -0.391 OA
ATOM    103  C1  NAG d1181       6.225 -10.358  20.260  0.00  0.00     0.154 C 
ATOM    104  O6  NAG d1181       2.884 -12.899  19.798  0.00  0.00    -0.398 OA
ATOM    105  O5  NAG d1181       4.958 -10.779  19.815  0.00  0.00    -0.349 OA
ATOM    106  O7  NAG d1181       8.063  -6.553  22.085  0.00  0.00    -0.274 OA
ATOM    107  O4  NAG d1181       3.064 -10.228  22.889  0.00  0.00    -0.390 OA
ATOM    108  C2  NAG d1181       6.092  -9.051  21.039  0.00  0.00     0.087 C 
ATOM    109  H   NAG d1181       3.277  -9.128  21.173  0.00  0.00     0.091 H 
ATOM    110  H   NAG d1181       5.569  -9.824  22.952  0.00  0.00     0.090 H 
ATOM    111  H   NAG d1181       2.498 -10.942  19.397  0.00  0.00     0.078 H 
ATOM    112  H   NAG d1181       1.962 -11.513  20.963  0.00  0.00     0.078 H 
ATOM    113  H   NAG d1181       4.457 -11.836  21.493  0.00  0.00     0.090 H 
ATOM    114  H   NAG d1181       7.941  -7.961  19.170  0.00  0.00     0.040 H 
ATOM    115  H   NAG d1181       9.204  -6.855  19.656  0.00  0.00     0.040 H 
ATOM    116  H   NAG d1181       7.568  -6.276  19.444  0.00  0.00     0.040 H 
ATOM    117  H   NAG d1181       7.960  -9.236  22.020  0.00  0.00     0.163 HD
ATOM    118  H   NAG d1181       4.455  -7.343  22.126  0.00  0.00     0.210 HD
ATOM    119  H   NAG d1181       6.621 -11.137  20.879  0.00  0.00     0.132 H 
ATOM    120  H   NAG d1181       3.591 -12.950  19.136  0.00  0.00     0.209 HD
ATOM    121  H   NAG d1181       3.564 -10.880  23.404  0.00  0.00     0.210 HD
ATOM    122  H   NAG d1181       5.686  -8.306  20.387  0.00  0.00     0.084 H 
ATOM    123  C7  NAG d1179       9.203 -12.969  12.303  0.00  0.00     0.214 C 
ATOM    124  C1  NAG d1179      12.463 -13.635  13.164  0.00  0.00     0.154 C 
ATOM    125  C2  NAG d1179      11.058 -13.547  13.745  0.00  0.00     0.087 C 
ATOM    126  O5  NAG d1179      13.252 -14.510  13.941  0.00  0.00    -0.349 OA
ATOM    127  O7  NAG d1179       8.495 -13.921  12.625  0.00  0.00    -0.274 OA
ATOM    128  O4  NAG d1179      12.096 -13.797  17.332  0.00  0.00    -0.390 OA
ATOM    129  N2  NAG d1179      10.260 -12.577  13.013  0.00  0.00    -0.349 N 
ATOM    130  C8  NAG d1179       8.882 -12.197  11.060  0.00  0.00    -0.003 C 
ATOM    131  O3  NAG d1179       9.716 -13.534  15.718  0.00  0.00    -0.348 OA
ATOM    132  C4  NAG d1179      12.011 -14.176  15.974  0.00  0.00     0.089 C 
ATOM    133  C5  NAG d1179      13.380 -14.105  15.293  0.00  0.00     0.089 C 
ATOM    134  O6  NAG d1179      13.991 -16.334  16.024  0.00  0.00    -0.398 OA
ATOM    135  C3  NAG d1179      11.024 -13.269  15.246  0.00  0.00     0.093 C 
ATOM    136  C6  NAG d1179      14.422 -14.986  15.983  0.00  0.00     0.043 C 
ATOM    137  H   NAG d1179      12.985 -12.701  13.166  0.00  0.00     0.132 H 
ATOM    138  H   NAG d1179      10.627 -14.520  13.626  0.00  0.00     0.084 H 
ATOM    139  H   NAG d1179      11.217 -13.851  17.738  0.00  0.00     0.210 HD
ATOM    140  H   NAG d1179      10.502 -11.624  13.041  0.00  0.00     0.163 HD
ATOM    141  H   NAG d1179       9.596 -11.410  10.934  0.00  0.00     0.040 H 
ATOM    142  H   NAG d1179       7.901 -11.779  11.143  0.00  0.00     0.040 H 
ATOM    143  H   NAG d1179       8.921 -12.851  10.214  0.00  0.00     0.040 H 
ATOM    144  H   NAG d1179      11.669 -15.188  15.930  0.00  0.00     0.091 H 
ATOM    145  H   NAG d1179      13.718 -13.092  15.357  0.00  0.00     0.090 H 
ATOM    146  H   NAG d1179      14.665 -16.876  16.465  0.00  0.00     0.209 HD
ATOM    147  H   NAG d1179      11.293 -12.250  15.429  0.00  0.00     0.091 H 
ATOM    148  H   NAG d1179      14.572 -14.635  16.983  0.00  0.00     0.078 H 
ATOM    149  H   NAG d1179      15.336 -14.934  15.429  0.00  0.00     0.078 H 
ATOM    150  C6  BDP d1180       9.895 -10.895  19.636  0.00  0.00     0.206 C 
ATOM    151  O3  BDP d1180       5.594 -12.141  17.549  0.00  0.00    -0.390 OA
ATOM    152  C1  BDP d1180       9.132 -12.402  16.380  0.00  0.00     0.160 C 
ATOM    153  O2  BDP d1180       7.214 -12.199  14.994  0.00  0.00    -0.388 OA
ATOM    154  C3  BDP d1180       6.861 -11.580  17.271  0.00  0.00     0.092 C 
ATOM    155  O4  BDP d1180       7.121 -10.125  19.160  0.00  0.00    -0.348 OA
ATOM    156  O5  BDP d1180       9.571 -12.334  17.718  0.00  0.00    -0.340 OA
ATOM    157  C5  BDP d1180       9.100 -11.166  18.357  0.00  0.00     0.152 C 
ATOM    158  O6B BDP d1180      10.014 -11.826  20.470  0.00  0.00    -0.646 OA
ATOM    159  O6A BDP d1180      10.398  -9.755  19.773  0.00  0.00    -0.646 OA
ATOM    160  C2  BDP d1180       7.609 -12.516  16.312  0.00  0.00     0.110 C 
ATOM    161  C4  BDP d1180       7.599 -11.322  18.589  0.00  0.00     0.103 C 
ATOM    162  H   BDP d1180       5.124 -12.306  16.717  0.00  0.00     0.210 HD
ATOM    163  H   BDP d1180       9.439 -11.503  15.888  0.00  0.00     0.133 H 
ATOM    164  H   BDP d1180       7.677 -12.780  14.370  0.00  0.00     0.210 HD
ATOM    165  H   BDP d1180       6.778 -10.632  16.783  0.00  0.00     0.091 H 
ATOM    166  H   BDP d1180       9.248 -10.302  17.743  0.00  0.00     0.104 H 
ATOM    167  H   BDP d1180       7.357 -13.513  16.604  0.00  0.00     0.094 H 
ATOM    168  H   BDP d1180       7.425 -12.158  19.234  0.00  0.00     0.092 H 
ENDROOT
TORSDOF 43
ENDMDL
MODEL 48
REMARK VINA RESULT:      -6.0      6.823      8.178
REMARK  0 active torsions:
REMARK  status: ('A' for Active; 'I' for Inactive)
REMARK       I    between atoms: C1_1  and  O3_15 
REMARK       I    between atoms: C1_2  and  O3_93 
REMARK       I    between atoms: C6_3  and  C5_89 
REMARK       I    between atoms: C6_3  and  O6_76 
REMARK       I    between atoms: O3_4  and  C3_22 
REMARK       I    between atoms: C6_5  and  C5_48 
REMARK       I    between atoms: C6_5  and  O6_31 
REMARK       I    between atoms: C4_6  and  O4_74 
REMARK       I    between atoms: C7_7  and  C8_62 
REMARK       I    between atoms: C7_7  and  N2_60 
REMARK       I    between atoms: C6_8  and  C5_52 
REMARK       I    between atoms: C3_9  and  O3_38 
REMARK       I    between atoms: C1_10  and  O4_75 
REMARK       I    between atoms: C6_12  and  C5_51 
REMARK       I    between atoms: O3_13  and  C3_42 
REMARK       I    between atoms: O4_14  and  C4_84 
REMARK       I    between atoms: O3_15  and  C3_86 
REMARK       I    between atoms: C6_16  and  C5_23 
REMARK       I    between atoms: C6_16  and  O6_58 
REMARK       I    between atoms: C1_17  and  O3_63 
REMARK       I    between atoms: C2_18  and  N2_60 
REMARK       I    between atoms: C2_19  and  N2_53 
REMARK       I    between atoms: O2_20  and  C2_66 
REMARK       I    between atoms: C3_25  and  O3_93 
REMARK       I    between atoms: C7_26  and  C8_32 
REMARK       I    between atoms: C7_26  and  N2_37 
REMARK       I    between atoms: C2_28  and  N2_44 
REMARK       I    between atoms: C7_29  and  C8_54 
REMARK       I    between atoms: C7_29  and  N2_53 
REMARK       I    between atoms: O1_33  and  C1_80 
REMARK       I    between atoms: O4_34  and  C4_40 
REMARK       I    between atoms: O4_34  and  C1_92 
REMARK       I    between atoms: C7_36  and  C8_81 
REMARK       I    between atoms: C7_36  and  N2_44 
REMARK       I    between atoms: N2_37  and  C2_83 
REMARK       I    between atoms: O3_39  and  C3_61 
REMARK       I    between atoms: C1_41  and  O4_46 
REMARK       I    between atoms: O2_43  and  C2_73 
REMARK       I    between atoms: C6_45  and  C5_87 
REMARK       I    between atoms: O4_46  and  C4_67 
REMARK       I    between atoms: C4_50  and  O4_65 
REMARK       I    between atoms: C2_55  and  O2_82 
REMARK       I    between atoms: O4_57  and  C4_71 
REMARK       I    between atoms: O3_63  and  C3_85 
REMARK       I    between atoms: O4_75  and  C4_91 
REMARK       I    between atoms: C5_77  and  C6_90 
REMARK       I    between atoms: O6_79  and  C6_90 
ROOT
ATOM      1  C1  BDP d1176      15.476 -11.215  16.647  0.00  0.00     0.160 C 
ATOM      2  O3  BDP d1176      16.548 -14.465  15.079  0.00  0.00    -0.390 OA
ATOM      3  O5  BDP d1176      14.550 -11.038  15.613  0.00  0.00    -0.340 OA
ATOM      4  O6A BDP d1176      12.953 -11.184  13.428  0.00  0.00    -0.646 OA
ATOM      5  C3  BDP d1176      16.472 -13.055  15.135  0.00  0.00     0.092 C 
ATOM      6  O4  BDP d1176      16.211 -12.607  12.805  0.00  0.00    -0.348 OA
ATOM      7  C4  BDP d1176      15.532 -12.561  14.045  0.00  0.00     0.103 C 
ATOM      8  C6  BDP d1176      14.068 -10.631  13.364  0.00  0.00     0.206 C 
ATOM      9  C2  BDP d1176      16.106 -12.610  16.549  0.00  0.00     0.110 C 
ATOM     10  O6B BDP d1176      14.388  -9.714  12.579  0.00  0.00    -0.646 OA
ATOM     11  O2  BDP d1176      17.309 -12.612  17.278  0.00  0.00    -0.388 OA
ATOM     12  C5  BDP d1176      15.116 -11.125  14.337  0.00  0.00     0.152 C 
ATOM     13  H   BDP d1176      16.264 -10.494  16.575  0.00  0.00     0.133 H 
ATOM     14  H   BDP d1176      17.146 -14.785  15.772  0.00  0.00     0.210 HD
ATOM     15  H   BDP d1176      17.422 -12.605  14.934  0.00  0.00     0.091 H 
ATOM     16  H   BDP d1176      14.661 -13.180  14.013  0.00  0.00     0.092 H 
ATOM     17  H   BDP d1176      15.361 -13.281  16.923  0.00  0.00     0.094 H 
ATOM     18  H   BDP d1176      17.929 -11.982  16.879  0.00  0.00     0.210 HD
ATOM     19  H   BDP d1176      16.002 -10.531  14.254  0.00  0.00     0.104 H 
ATOM     20  C1  BDP d1178      15.615 -14.217   7.263  0.00  0.00     0.160 C 
ATOM     21  C6  BDP d1178      13.215 -16.423   5.455  0.00  0.00     0.206 C 
ATOM     22  O6B BDP d1178      12.029 -16.272   5.076  0.00  0.00    -0.646 OA
ATOM     23  O6A BDP d1178      13.808 -17.528   5.505  0.00  0.00    -0.646 OA
ATOM     24  O3  BDP d1178      16.314 -13.073   3.785  0.00  0.00    -0.390 OA
ATOM     25  O2  BDP d1178      17.284 -12.712   6.391  0.00  0.00    -0.388 OA
ATOM     26  C5  BDP d1178      13.961 -15.147   5.852  0.00  0.00     0.152 C 
ATOM     27  C3  BDP d1178      15.561 -13.419   4.925  0.00  0.00     0.092 C 
ATOM     28  C2  BDP d1178      16.466 -13.807   6.066  0.00  0.00     0.110 C 
ATOM     29  O4  BDP d1178      13.611 -14.029   3.803  0.00  0.00    -0.348 OA
ATOM     30  O5  BDP d1178      14.872 -15.367   6.923  0.00  0.00    -0.340 OA
ATOM     31  C4  BDP d1178      14.622 -14.570   4.605  0.00  0.00     0.103 C 
ATOM     32  H   BDP d1178      14.901 -13.469   7.541  0.00  0.00     0.133 H 
ATOM     33  H   BDP d1178      16.909 -12.337   4.001  0.00  0.00     0.210 HD
ATOM     34  H   BDP d1178      17.870 -12.952   7.125  0.00  0.00     0.210 HD
ATOM     35  H   BDP d1178      13.269 -14.427   6.236  0.00  0.00     0.104 H 
ATOM     36  H   BDP d1178      14.986 -12.565   5.216  0.00  0.00     0.091 H 
ATOM     37  H   BDP d1178      17.087 -14.633   5.788  0.00  0.00     0.094 H 
ATOM     38  H   BDP d1178      15.175 -15.357   4.137  0.00  0.00     0.092 H 
ATOM     39  C6  NAG d1177      16.003 -17.334  12.294  0.00  0.00     0.043 C 
ATOM     40  O4  NAG d1177      15.695 -16.894   9.356  0.00  0.00    -0.390 OA
ATOM     41  C2  NAG d1177      16.251 -13.397  10.533  0.00  0.00     0.087 C 
ATOM     42  C3  NAG d1177      15.848 -14.541   9.612  0.00  0.00     0.093 C 
ATOM     43  C7  NAG d1177      16.425 -11.065   9.755  0.00  0.00     0.214 C 
ATOM     44  N2  NAG d1177      15.707 -12.161   9.990  0.00  0.00    -0.349 N 
ATOM     45  C8  NAG d1177      15.621  -9.815   9.561  0.00  0.00    -0.003 C 
ATOM     46  O7  NAG d1177      17.657 -11.038   9.675  0.00  0.00    -0.274 OA
ATOM     47  O6  NAG d1177      17.022 -17.141  13.259  0.00  0.00    -0.398 OA
ATOM     48  C4  NAG d1177      16.213 -15.892  10.209  0.00  0.00     0.089 C 
ATOM     49  O5  NAG d1177      16.124 -14.940  12.418  0.00  0.00    -0.349 OA
ATOM     50  C5  NAG d1177      15.647 -16.007  11.624  0.00  0.00     0.089 C 
ATOM     51  C1  NAG d1177      15.738 -13.658  11.949  0.00  0.00     0.154 C 
ATOM     52  O3  NAG d1177      16.508 -14.413   8.373  0.00  0.00    -0.348 OA
ATOM     53  H   NAG d1177      16.346 -18.024  11.552  0.00  0.00     0.078 H 
ATOM     54  H   NAG d1177      15.132 -17.722  12.782  0.00  0.00     0.078 H 
ATOM     55  H   NAG d1177      16.075 -16.791   8.469  0.00  0.00     0.210 HD
ATOM     56  H   NAG d1177      17.317 -13.318  10.587  0.00  0.00     0.084 H 
ATOM     57  H   NAG d1177      14.788 -14.491   9.483  0.00  0.00     0.091 H 
ATOM     58  H   NAG d1177      14.745 -12.133   9.784  0.00  0.00     0.163 HD
ATOM     59  H   NAG d1177      14.581 -10.039   9.668  0.00  0.00     0.040 H 
ATOM     60  H   NAG d1177      15.803  -9.421   8.583  0.00  0.00     0.040 H 
ATOM     61  H   NAG d1177      15.906  -9.090  10.296  0.00  0.00     0.040 H 
ATOM     62  H   NAG d1177      17.815 -16.789  12.825  0.00  0.00     0.209 HD
ATOM     63  H   NAG d1177      17.274 -16.005  10.285  0.00  0.00     0.091 H 
ATOM     64  H   NAG d1177      14.582 -15.966  11.540  0.00  0.00     0.090 H 
ATOM     65  H   NAG d1177      14.668 -13.656  11.950  0.00  0.00     0.132 H 
ATOM     66  C6  NAG d1175      11.886  -7.170  18.724  0.00  0.00     0.043 C 
ATOM     67  O3  NAG d1175      14.784 -11.048  17.905  0.00  0.00    -0.348 OA
ATOM     68  C2  NAG d1175      15.064  -9.791  19.924  0.00  0.00     0.087 C 
ATOM     69  O6  NAG d1175      11.784  -5.938  19.400  0.00  0.00    -0.398 OA
ATOM     70  O1  NAG d1175      14.942  -8.592  22.028  0.00  0.00    -0.369 OA
ATOM     71  C7  NAG d1175      16.730 -11.125  21.117  0.00  0.00     0.214 C 
ATOM     72  N2  NAG d1175      16.433 -10.234  20.169  0.00  0.00    -0.349 N 
ATOM     73  C5  NAG d1175      13.283  -7.728  18.966  0.00  0.00     0.089 C 
ATOM     74  O5  NAG d1175      13.441  -8.067  20.335  0.00  0.00    -0.349 OA
ATOM     75  C4  NAG d1175      13.534  -8.928  18.050  0.00  0.00     0.089 C 
ATOM     76  O4  NAG d1175      13.591  -8.438  16.723  0.00  0.00    -0.390 OA
ATOM     77  O7  NAG d1175      16.205 -12.244  21.176  0.00  0.00    -0.274 OA
ATOM     78  C1  NAG d1175      14.772  -8.461  20.630  0.00  0.00     0.151 C 
ATOM     79  C8  NAG d1175      17.765 -10.697  22.120  0.00  0.00    -0.003 C 
ATOM     80  C3  NAG d1175      14.809  -9.713  18.409  0.00  0.00     0.093 C 
ATOM     81  H   NAG d1175      11.152  -7.852  19.101  0.00  0.00     0.078 H 
ATOM     82  H   NAG d1175      11.718  -7.033  17.677  0.00  0.00     0.078 H 
ATOM     83  H   NAG d1175      14.386 -10.507  20.340  0.00  0.00     0.084 H 
ATOM     84  H   NAG d1175      11.938  -6.075  20.348  0.00  0.00     0.209 HD
ATOM     85  H   NAG d1175      15.854  -8.862  22.218  0.00  0.00     0.212 HD
ATOM     86  H   NAG d1175      17.160  -9.863  19.618  0.00  0.00     0.163 HD
ATOM     87  H   NAG d1175      14.013  -6.982  18.729  0.00  0.00     0.090 H 
ATOM     88  H   NAG d1175      12.736  -9.632  18.169  0.00  0.00     0.091 H 
ATOM     89  H   NAG d1175      14.321  -7.804  16.644  0.00  0.00     0.210 HD
ATOM     90  H   NAG d1175      15.456  -7.715  20.280  0.00  0.00     0.132 H 
ATOM     91  H   NAG d1175      18.091  -9.703  21.895  0.00  0.00     0.040 H 
ATOM     92  H   NAG d1175      18.601 -11.363  22.077  0.00  0.00     0.040 H 
ATOM     93  H   NAG d1175      17.341 -10.719  23.102  0.00  0.00     0.040 H 
ATOM     94  H   NAG d1175      15.600  -9.159  17.947  0.00  0.00     0.091 H 
ATOM     95  C4  NAG d1181       2.634 -15.536  -4.301  0.00  0.00     0.089 C 
ATOM     96  C3  NAG d1181       3.443 -16.772  -4.706  0.00  0.00     0.086 C 
ATOM     97  C6  NAG d1181       2.665 -13.306  -3.106  0.00  0.00     0.043 C 
ATOM     98  C5  NAG d1181       3.515 -14.424  -3.713  0.00  0.00     0.089 C 
ATOM     99  C7  NAG d1181       5.295 -19.429  -3.556  0.00  0.00     0.214 C 
ATOM    100  C8  NAG d1181       5.665 -19.595  -2.107  0.00  0.00    -0.003 C 
ATOM    101  N2  NAG d1181       5.348 -18.194  -4.055  0.00  0.00    -0.349 N 
ATOM    102  O3  NAG d1181       2.577 -17.865  -4.973  0.00  0.00    -0.391 OA
ATOM    103  C1  NAG d1181       5.245 -15.937  -3.141  0.00  0.00     0.154 C 
ATOM    104  O6  NAG d1181       3.433 -12.126  -2.981  0.00  0.00    -0.398 OA
ATOM    105  O5  NAG d1181       4.370 -14.926  -2.700  0.00  0.00    -0.349 OA
ATOM    106  O7  NAG d1181       4.955 -20.398  -4.239  0.00  0.00    -0.274 OA
ATOM    107  O4  NAG d1181       1.944 -15.044  -5.428  0.00  0.00    -0.390 OA
ATOM    108  C2  NAG d1181       4.440 -17.149  -3.607  0.00  0.00     0.087 C 
ATOM    109  H   NAG d1181       1.947 -15.834  -3.538  0.00  0.00     0.091 H 
ATOM    110  H   NAG d1181       3.989 -16.538  -5.595  0.00  0.00     0.090 H 
ATOM    111  H   NAG d1181       2.321 -13.608  -2.139  0.00  0.00     0.078 H 
ATOM    112  H   NAG d1181       1.829 -13.114  -3.746  0.00  0.00     0.078 H 
ATOM    113  H   NAG d1181       4.099 -14.038  -4.523  0.00  0.00     0.090 H 
ATOM    114  H   NAG d1181       5.928 -18.643  -1.695  0.00  0.00     0.040 H 
ATOM    115  H   NAG d1181       6.499 -20.261  -2.026  0.00  0.00     0.040 H 
ATOM    116  H   NAG d1181       4.832 -19.999  -1.570  0.00  0.00     0.040 H 
ATOM    117  H   NAG d1181       6.019 -17.984  -4.745  0.00  0.00     0.163 HD
ATOM    118  H   NAG d1181       2.077 -18.085  -4.171  0.00  0.00     0.210 HD
ATOM    119  H   NAG d1181       5.826 -15.529  -3.941  0.00  0.00     0.132 H 
ATOM    120  H   NAG d1181       4.192 -12.295  -2.402  0.00  0.00     0.209 HD
ATOM    121  H   NAG d1181       2.582 -14.779  -6.108  0.00  0.00     0.210 HD
ATOM    122  H   NAG d1181       3.868 -17.517  -2.780  0.00  0.00     0.084 H 
ATOM    123  C7  NAG d1179      10.316 -13.722   3.814  0.00  0.00     0.214 C 
ATOM    124  C1  NAG d1179      13.359 -14.743   2.582  0.00  0.00     0.154 C 
ATOM    125  C2  NAG d1179      11.976 -14.280   2.142  0.00  0.00     0.087 C 
ATOM    126  O5  NAG d1179      14.305 -14.453   1.576  0.00  0.00    -0.349 OA
ATOM    127  O7  NAG d1179      10.040 -12.618   3.350  0.00  0.00    -0.274 OA
ATOM    128  O4  NAG d1179      12.415 -15.097  -1.483  0.00  0.00    -0.390 OA
ATOM    129  N2  NAG d1179      10.972 -14.655   3.126  0.00  0.00    -0.349 N 
ATOM    130  C8  NAG d1179       9.907 -14.058   5.215  0.00  0.00    -0.003 C 
ATOM    131  O3  NAG d1179      10.452 -13.999   0.328  0.00  0.00    -0.348 OA
ATOM    132  C4  NAG d1179      12.724 -14.511  -0.236  0.00  0.00     0.089 C 
ATOM    133  C5  NAG d1179      14.023 -15.081   0.337  0.00  0.00     0.089 C 
ATOM    134  O6  NAG d1179      15.397 -13.514  -0.902  0.00  0.00    -0.398 OA
ATOM    135  C3  NAG d1179      11.580 -14.747   0.744  0.00  0.00     0.093 C 
ATOM    136  C6  NAG d1179      15.212 -14.886  -0.605  0.00  0.00     0.043 C 
ATOM    137  H   NAG d1179      13.423 -15.799   2.740  0.00  0.00     0.132 H 
ATOM    138  H   NAG d1179      12.027 -13.212   2.082  0.00  0.00     0.084 H 
ATOM    139  H   NAG d1179      11.589 -14.718  -1.822  0.00  0.00     0.210 HD
ATOM    140  H   NAG d1179      10.777 -15.607   3.285  0.00  0.00     0.163 HD
ATOM    141  H   NAG d1179      10.227 -15.051   5.452  0.00  0.00     0.040 H 
ATOM    142  H   NAG d1179       8.842 -13.997   5.300  0.00  0.00     0.040 H 
ATOM    143  H   NAG d1179      10.359 -13.367   5.895  0.00  0.00     0.040 H 
ATOM    144  H   NAG d1179      12.859 -13.460  -0.385  0.00  0.00     0.091 H 
ATOM    145  H   NAG d1179      13.882 -16.134   0.467  0.00  0.00     0.090 H 
ATOM    146  H   NAG d1179      16.155 -13.412  -1.499  0.00  0.00     0.209 HD
ATOM    147  H   NAG d1179      11.354 -15.792   0.765  0.00  0.00     0.091 H 
ATOM    148  H   NAG d1179      15.031 -15.421  -1.514  0.00  0.00     0.078 H 
ATOM    149  H   NAG d1179      16.094 -15.256  -0.124  0.00  0.00     0.078 H 
ATOM    150  C6  BDP d1180       8.840 -17.020  -2.931  0.00  0.00     0.206 C 
ATOM    151  O3  BDP d1180       5.890 -13.656  -0.837  0.00  0.00    -0.390 OA
ATOM    152  C1  BDP d1180       9.340 -14.835  -0.027  0.00  0.00     0.160 C 
ATOM    153  O2  BDP d1180       7.776 -13.929   1.513  0.00  0.00    -0.388 OA
ATOM    154  C3  BDP d1180       6.823 -14.676  -0.543  0.00  0.00     0.092 C 
ATOM    155  O4  BDP d1180       6.122 -16.371  -2.088  0.00  0.00    -0.348 OA
ATOM    156  O5  BDP d1180       9.481 -15.306  -1.349  0.00  0.00    -0.340 OA
ATOM    157  C5  BDP d1180       8.458 -16.221  -1.683  0.00  0.00     0.152 C 
ATOM    158  O6B BDP d1180       9.205 -16.389  -3.952  0.00  0.00    -0.646 OA
ATOM    159  O6A BDP d1180       8.779 -18.271  -2.857  0.00  0.00    -0.646 OA
ATOM    160  C2  BDP d1180       8.045 -14.039   0.131  0.00  0.00     0.110 C 
ATOM    161  C4  BDP d1180       7.152 -15.444  -1.827  0.00  0.00     0.103 C 
ATOM    162  H   BDP d1180       5.679 -13.167  -0.026  0.00  0.00     0.210 HD
ATOM    163  H   BDP d1180       9.310 -15.686   0.622  0.00  0.00     0.133 H 
ATOM    164  H   BDP d1180       8.538 -13.528   1.960  0.00  0.00     0.210 HD
ATOM    165  H   BDP d1180       6.425 -15.394   0.143  0.00  0.00     0.091 H 
ATOM    166  H   BDP d1180       8.324 -16.949  -0.911  0.00  0.00     0.104 H 
ATOM    167  H   BDP d1180       8.198 -13.095  -0.348  0.00  0.00     0.094 H 
ATOM    168  H   BDP d1180       7.248 -14.734  -2.622  0.00  0.00     0.092 H 
ENDROOT
TORSDOF 43
ENDMDL
MODEL 49
REMARK VINA RESULT:      -5.9      6.700     17.742
REMARK  0 active torsions:
REMARK  status: ('A' for Active; 'I' for Inactive)
REMARK       I    between atoms: C1_1  and  O3_15 
REMARK       I    between atoms: C1_2  and  O3_93 
REMARK       I    between atoms: C6_3  and  C5_89 
REMARK       I    between atoms: C6_3  and  O6_76 
REMARK       I    between atoms: O3_4  and  C3_22 
REMARK       I    between atoms: C6_5  and  C5_48 
REMARK       I    between atoms: C6_5  and  O6_31 
REMARK       I    between atoms: C4_6  and  O4_74 
REMARK       I    between atoms: C7_7  and  C8_62 
REMARK       I    between atoms: C7_7  and  N2_60 
REMARK       I    between atoms: C6_8  and  C5_52 
REMARK       I    between atoms: C3_9  and  O3_38 
REMARK       I    between atoms: C1_10  and  O4_75 
REMARK       I    between atoms: C6_12  and  C5_51 
REMARK       I    between atoms: O3_13  and  C3_42 
REMARK       I    between atoms: O4_14  and  C4_84 
REMARK       I    between atoms: O3_15  and  C3_86 
REMARK       I    between atoms: C6_16  and  C5_23 
REMARK       I    between atoms: C6_16  and  O6_58 
REMARK       I    between atoms: C1_17  and  O3_63 
REMARK       I    between atoms: C2_18  and  N2_60 
REMARK       I    between atoms: C2_19  and  N2_53 
REMARK       I    between atoms: O2_20  and  C2_66 
REMARK       I    between atoms: C3_25  and  O3_93 
REMARK       I    between atoms: C7_26  and  C8_32 
REMARK       I    between atoms: C7_26  and  N2_37 
REMARK       I    between atoms: C2_28  and  N2_44 
REMARK       I    between atoms: C7_29  and  C8_54 
REMARK       I    between atoms: C7_29  and  N2_53 
REMARK       I    between atoms: O1_33  and  C1_80 
REMARK       I    between atoms: O4_34  and  C4_40 
REMARK       I    between atoms: O4_34  and  C1_92 
REMARK       I    between atoms: C7_36  and  C8_81 
REMARK       I    between atoms: C7_36  and  N2_44 
REMARK       I    between atoms: N2_37  and  C2_83 
REMARK       I    between atoms: O3_39  and  C3_61 
REMARK       I    between atoms: C1_41  and  O4_46 
REMARK       I    between atoms: O2_43  and  C2_73 
REMARK       I    between atoms: C6_45  and  C5_87 
REMARK       I    between atoms: O4_46  and  C4_67 
REMARK       I    between atoms: C4_50  and  O4_65 
REMARK       I    between atoms: C2_55  and  O2_82 
REMARK       I    between atoms: O4_57  and  C4_71 
REMARK       I    between atoms: O3_63  and  C3_85 
REMARK       I    between atoms: O4_75  and  C4_91 
REMARK       I    between atoms: C5_77  and  C6_90 
REMARK       I    between atoms: O6_79  and  C6_90 
ROOT
ATOM      1  C1  BDP d1176       2.776 -15.372  -5.832  0.00  0.00     0.160 C 
ATOM      2  O3  BDP d1176       3.495 -11.827  -4.785  0.00  0.00    -0.390 OA
ATOM      3  O5  BDP d1176       3.397 -15.827  -4.663  0.00  0.00    -0.340 OA
ATOM      4  O6A BDP d1176       4.675 -16.167  -2.297  0.00  0.00    -0.646 OA
ATOM      5  C3  BDP d1176       3.870 -13.104  -5.259  0.00  0.00     0.092 C 
ATOM      6  O4  BDP d1176       5.954 -13.324  -4.115  0.00  0.00    -0.348 OA
ATOM      7  C4  BDP d1176       4.637 -13.837  -4.168  0.00  0.00     0.103 C 
ATOM      8  C6  BDP d1176       5.317 -16.124  -3.365  0.00  0.00     0.206 C 
ATOM      9  C2  BDP d1176       2.644 -13.844  -5.789  0.00  0.00     0.110 C 
ATOM     10  O6B BDP d1176       6.414 -16.678  -3.584  0.00  0.00    -0.646 OA
ATOM     11  O2  BDP d1176       2.446 -13.374  -7.100  0.00  0.00    -0.388 OA
ATOM     12  C5  BDP d1176       4.691 -15.325  -4.488  0.00  0.00     0.152 C 
ATOM     13  H   BDP d1176       3.358 -15.627  -6.692  0.00  0.00     0.133 H 
ATOM     14  H   BDP d1176       3.005 -11.356  -5.477  0.00  0.00     0.210 HD
ATOM     15  H   BDP d1176       4.538 -13.030  -6.093  0.00  0.00     0.091 H 
ATOM     16  H   BDP d1176       4.148 -13.697  -3.227  0.00  0.00     0.092 H 
ATOM     17  H   BDP d1176       1.829 -13.651  -5.123  0.00  0.00     0.094 H 
ATOM     18  H   BDP d1176       3.224 -13.586  -7.640  0.00  0.00     0.210 HD
ATOM     19  H   BDP d1176       5.278 -15.423  -5.377  0.00  0.00     0.104 H 
ATOM     20  C1  BDP d1178      10.060 -11.490  -0.450  0.00  0.00     0.160 C 
ATOM     21  C6  BDP d1178      10.054 -10.448   3.129  0.00  0.00     0.206 C 
ATOM     22  O6B BDP d1178      10.000 -11.085   4.208  0.00  0.00    -0.646 OA
ATOM     23  O6A BDP d1178       9.872  -9.210   3.026  0.00  0.00    -0.646 OA
ATOM     24  O3  BDP d1178      13.722 -11.725   0.208  0.00  0.00    -0.390 OA
ATOM     25  O2  BDP d1178      11.916 -11.920  -1.928  0.00  0.00    -0.388 OA
ATOM     26  C5  BDP d1178      10.390 -11.267   1.881  0.00  0.00     0.152 C 
ATOM     27  C3  BDP d1178      12.340 -11.917   0.404  0.00  0.00     0.092 C 
ATOM     28  C2  BDP d1178      11.549 -11.300  -0.721  0.00  0.00     0.110 C 
ATOM     29  O4  BDP d1178      12.410 -12.150   2.722  0.00  0.00    -0.348 OA
ATOM     30  O5  BDP d1178       9.716 -10.786   0.723  0.00  0.00    -0.340 OA
ATOM     31  C4  BDP d1178      11.906 -11.307   1.726  0.00  0.00     0.103 C 
ATOM     32  H   BDP d1178       9.797 -12.512  -0.276  0.00  0.00     0.133 H 
ATOM     33  H   BDP d1178      13.986 -12.119  -0.638  0.00  0.00     0.210 HD
ATOM     34  H   BDP d1178      11.412 -11.529  -2.659  0.00  0.00     0.210 HD
ATOM     35  H   BDP d1178      10.032 -12.269   1.998  0.00  0.00     0.104 H 
ATOM     36  H   BDP d1178      12.149 -12.970   0.422  0.00  0.00     0.091 H 
ATOM     37  H   BDP d1178      11.754 -10.252  -0.792  0.00  0.00     0.094 H 
ATOM     38  H   BDP d1178      12.265 -10.300   1.785  0.00  0.00     0.092 H 
ATOM     39  C6  NAG d1177       4.806  -9.217  -2.002  0.00  0.00     0.043 C 
ATOM     40  O4  NAG d1177       7.402  -9.373  -0.532  0.00  0.00    -0.390 OA
ATOM     41  C2  NAG d1177       7.700 -12.325  -2.795  0.00  0.00     0.087 C 
ATOM     42  C3  NAG d1177       7.990 -11.394  -1.625  0.00  0.00     0.093 C 
ATOM     43  C7  NAG d1177       9.192 -14.187  -3.411  0.00  0.00     0.214 C 
ATOM     44  N2  NAG d1177       8.372 -13.593  -2.548  0.00  0.00    -0.349 N 
ATOM     45  C8  NAG d1177       9.468 -15.632  -3.124  0.00  0.00    -0.003 C 
ATOM     46  O7  NAG d1177       9.721 -13.627  -4.376  0.00  0.00    -0.274 OA
ATOM     47  O6  NAG d1177       4.399  -9.033  -3.346  0.00  0.00    -0.398 OA
ATOM     48  C4  NAG d1177       7.168 -10.117  -1.712  0.00  0.00     0.089 C 
ATOM     49  O5  NAG d1177       5.511 -11.272  -3.021  0.00  0.00    -0.349 OA
ATOM     50  C5  NAG d1177       5.688 -10.459  -1.880  0.00  0.00     0.089 C 
ATOM     51  C1  NAG d1177       6.191 -12.515  -2.953  0.00  0.00     0.154 C 
ATOM     52  O3  NAG d1177       9.354 -11.042  -1.620  0.00  0.00    -0.348 OA
ATOM     53  H   NAG d1177       5.359  -8.359  -1.681  0.00  0.00     0.078 H 
ATOM     54  H   NAG d1177       3.938  -9.345  -1.390  0.00  0.00     0.078 H 
ATOM     55  H   NAG d1177       8.348  -9.174  -0.459  0.00  0.00     0.210 HD
ATOM     56  H   NAG d1177       8.068 -11.904  -3.708  0.00  0.00     0.084 H 
ATOM     57  H   NAG d1177       7.730 -11.916  -0.728  0.00  0.00     0.091 H 
ATOM     58  H   NAG d1177       8.209 -14.039  -1.686  0.00  0.00     0.163 HD
ATOM     59  H   NAG d1177       8.923 -15.935  -2.255  0.00  0.00     0.040 H 
ATOM     60  H   NAG d1177      10.516 -15.768  -2.953  0.00  0.00     0.040 H 
ATOM     61  H   NAG d1177       9.164 -16.227  -3.960  0.00  0.00     0.040 H 
ATOM     62  H   NAG d1177       5.180  -8.917  -3.908  0.00  0.00     0.209 HD
ATOM     63  H   NAG d1177       7.454  -9.534  -2.562  0.00  0.00     0.091 H 
ATOM     64  H   NAG d1177       5.385 -10.981  -0.997  0.00  0.00     0.090 H 
ATOM     65  H   NAG d1177       5.800 -13.015  -2.092  0.00  0.00     0.132 H 
ATOM     66  C6  NAG d1175       0.947 -20.850  -5.375  0.00  0.00     0.043 C 
ATOM     67  O3  NAG d1175       1.478 -16.000  -5.925  0.00  0.00    -0.348 OA
ATOM     68  C2  NAG d1175       0.219 -17.225  -7.553  0.00  0.00     0.087 C 
ATOM     69  O6  NAG d1175       0.715 -22.062  -6.055  0.00  0.00    -0.398 OA
ATOM     70  O1  NAG d1175      -1.278 -18.598  -8.876  0.00  0.00    -0.369 OA
ATOM     71  C7  NAG d1175      -0.641 -15.432  -8.974  0.00  0.00     0.214 C 
ATOM     72  N2  NAG d1175       0.364 -16.231  -8.611  0.00  0.00    -0.349 N 
ATOM     73  C5  NAG d1175       1.068 -19.740  -6.412  0.00  0.00     0.089 C 
ATOM     74  O5  NAG d1175      -0.180 -19.543  -7.061  0.00  0.00    -0.349 OA
ATOM     75  C4  NAG d1175       1.574 -18.457  -5.751  0.00  0.00     0.089 C 
ATOM     76  O4  NAG d1175       2.912 -18.691  -5.350  0.00  0.00    -0.390 OA
ATOM     77  O7  NAG d1175      -1.244 -14.704  -8.176  0.00  0.00    -0.274 OA
ATOM     78  C1  NAG d1175      -0.077 -18.616  -8.129  0.00  0.00     0.151 C 
ATOM     79  C8  NAG d1175      -1.002 -15.452 -10.434  0.00  0.00    -0.003 C 
ATOM     80  C3  NAG d1175       1.475 -17.220  -6.664  0.00  0.00     0.093 C 
ATOM     81  H   NAG d1175       0.130 -20.642  -4.715  0.00  0.00     0.078 H 
ATOM     82  H   NAG d1175       1.844 -20.916  -4.796  0.00  0.00     0.078 H 
ATOM     83  H   NAG d1175      -0.622 -16.967  -6.944  0.00  0.00     0.084 H 
ATOM     84  H   NAG d1175      -0.101 -21.990  -6.575  0.00  0.00     0.209 HD
ATOM     85  H   NAG d1175      -1.197 -17.961  -9.603  0.00  0.00     0.212 HD
ATOM     86  H   NAG d1175       1.230 -16.147  -9.071  0.00  0.00     0.163 HD
ATOM     87  H   NAG d1175       1.781 -20.024  -7.158  0.00  0.00     0.090 H 
ATOM     88  H   NAG d1175       0.952 -18.228  -4.911  0.00  0.00     0.091 H 
ATOM     89  H   NAG d1175       3.452 -18.896  -6.130  0.00  0.00     0.210 HD
ATOM     90  H   NAG d1175       0.718 -18.906  -8.785  0.00  0.00     0.132 H 
ATOM     91  H   NAG d1175      -0.366 -16.142 -10.950  0.00  0.00     0.040 H 
ATOM     92  H   NAG d1175      -0.872 -14.473 -10.847  0.00  0.00     0.040 H 
ATOM     93  H   NAG d1175      -2.021 -15.754 -10.546  0.00  0.00     0.040 H 
ATOM     94  H   NAG d1175       2.346 -17.278  -7.284  0.00  0.00     0.091 H 
ATOM     95  C4  NAG d1181      14.992 -14.920  15.917  0.00  0.00     0.089 C 
ATOM     96  C3  NAG d1181      15.244 -13.409  15.901  0.00  0.00     0.086 C 
ATOM     97  C6  NAG d1181      14.674 -17.010  14.526  0.00  0.00     0.043 C 
ATOM     98  C5  NAG d1181      15.157 -15.558  14.530  0.00  0.00     0.089 C 
ATOM     99  C7  NAG d1181      14.064 -10.366  14.828  0.00  0.00     0.214 C 
ATOM    100  C8  NAG d1181      12.880 -10.231  13.909  0.00  0.00    -0.003 C 
ATOM    101  N2  NAG d1181      14.916 -11.359  14.574  0.00  0.00    -0.349 N 
ATOM    102  O3  NAG d1181      14.810 -12.822  17.119  0.00  0.00    -0.391 OA
ATOM    103  C1  NAG d1181      14.804 -13.499  13.414  0.00  0.00     0.154 C 
ATOM    104  O6  NAG d1181      15.225 -17.701  13.423  0.00  0.00    -0.398 OA
ATOM    105  O5  NAG d1181      14.424 -14.848  13.547  0.00  0.00    -0.349 OA
ATOM    106  O7  NAG d1181      14.225  -9.589  15.772  0.00  0.00    -0.274 OA
ATOM    107  O4  NAG d1181      15.881 -15.530  16.825  0.00  0.00    -0.390 OA
ATOM    108  C2  NAG d1181      14.527 -12.754  14.718  0.00  0.00     0.087 C 
ATOM    109  H   NAG d1181      13.977 -15.076  16.219  0.00  0.00     0.091 H 
ATOM    110  H   NAG d1181      16.296 -13.247  15.795  0.00  0.00     0.090 H 
ATOM    111  H   NAG d1181      13.607 -17.029  14.458  0.00  0.00     0.078 H 
ATOM    112  H   NAG d1181      14.990 -17.487  15.430  0.00  0.00     0.078 H 
ATOM    113  H   NAG d1181      16.202 -15.521  14.300  0.00  0.00     0.090 H 
ATOM    114  H   NAG d1181      12.922 -10.994  13.160  0.00  0.00     0.040 H 
ATOM    115  H   NAG d1181      12.901  -9.269  13.440  0.00  0.00     0.040 H 
ATOM    116  H   NAG d1181      11.976 -10.334  14.473  0.00  0.00     0.040 H 
ATOM    117  H   NAG d1181      15.831 -11.143  14.282  0.00  0.00     0.163 HD
ATOM    118  H   NAG d1181      13.856 -12.965  17.225  0.00  0.00     0.210 HD
ATOM    119  H   NAG d1181      15.846 -13.484  13.174  0.00  0.00     0.132 H 
ATOM    120  H   NAG d1181      14.943 -17.272  12.600  0.00  0.00     0.209 HD
ATOM    121  H   NAG d1181      16.794 -15.378  16.535  0.00  0.00     0.210 HD
ATOM    122  H   NAG d1181      13.478 -12.803  14.923  0.00  0.00     0.084 H 
ATOM    123  C7  NAG d1179      11.294 -13.955   5.260  0.00  0.00     0.214 C 
ATOM    124  C1  NAG d1179      13.156 -11.488   3.757  0.00  0.00     0.154 C 
ATOM    125  C2  NAG d1179      13.183 -12.482   4.910  0.00  0.00     0.087 C 
ATOM    126  O5  NAG d1179      14.474 -11.173   3.363  0.00  0.00    -0.349 OA
ATOM    127  O7  NAG d1179      11.953 -14.992   5.303  0.00  0.00    -0.274 OA
ATOM    128  O4  NAG d1179      16.248 -11.103   6.555  0.00  0.00    -0.390 OA
ATOM    129  N2  NAG d1179      11.836 -12.746   5.392  0.00  0.00    -0.349 N 
ATOM    130  C8  NAG d1179       9.812 -14.029   5.053  0.00  0.00    -0.003 C 
ATOM    131  O3  NAG d1179      14.300 -13.208   6.890  0.00  0.00    -0.348 OA
ATOM    132  C4  NAG d1179      15.460 -11.630   5.508  0.00  0.00     0.089 C 
ATOM    133  C5  NAG d1179      15.251 -10.597   4.398  0.00  0.00     0.089 C 
ATOM    134  O6  NAG d1179      17.340 -11.172   3.309  0.00  0.00    -0.398 OA
ATOM    135  C3  NAG d1179      14.109 -12.081   6.055  0.00  0.00     0.093 C 
ATOM    136  C6  NAG d1179      16.571 -10.095   3.813  0.00  0.00     0.043 C 
ATOM    137  H   NAG d1179      12.702 -10.552   4.012  0.00  0.00     0.132 H 
ATOM    138  H   NAG d1179      13.596 -13.386   4.512  0.00  0.00     0.084 H 
ATOM    139  H   NAG d1179      16.364 -11.777   7.243  0.00  0.00     0.210 HD
ATOM    140  H   NAG d1179      11.320 -12.024   5.818  0.00  0.00     0.163 HD
ATOM    141  H   NAG d1179       9.404 -13.041   5.042  0.00  0.00     0.040 H 
ATOM    142  H   NAG d1179       9.369 -14.591   5.849  0.00  0.00     0.040 H 
ATOM    143  H   NAG d1179       9.606 -14.510   4.120  0.00  0.00     0.040 H 
ATOM    144  H   NAG d1179      15.976 -12.469   5.091  0.00  0.00     0.091 H 
ATOM    145  H   NAG d1179      14.748  -9.758   4.832  0.00  0.00     0.090 H 
ATOM    146  H   NAG d1179      18.171 -10.833   2.942  0.00  0.00     0.209 HD
ATOM    147  H   NAG d1179      13.673 -11.273   6.604  0.00  0.00     0.091 H 
ATOM    148  H   NAG d1179      17.127  -9.595   4.579  0.00  0.00     0.078 H 
ATOM    149  H   NAG d1179      16.356  -9.421   3.010  0.00  0.00     0.078 H 
ATOM    150  C6  BDP d1180      15.588 -10.902  10.809  0.00  0.00     0.206 C 
ATOM    151  O3  BDP d1180      13.760 -15.487  10.988  0.00  0.00    -0.390 OA
ATOM    152  C1  BDP d1180      13.935 -12.949   8.253  0.00  0.00     0.160 C 
ATOM    153  O2  BDP d1180      12.309 -14.667   8.463  0.00  0.00    -0.388 OA
ATOM    154  C3  BDP d1180      13.516 -14.197  10.466  0.00  0.00     0.092 C 
ATOM    155  O4  BDP d1180      14.066 -12.844  12.368  0.00  0.00    -0.348 OA
ATOM    156  O5  BDP d1180      14.991 -12.304   8.931  0.00  0.00    -0.340 OA
ATOM    157  C5  BDP d1180      14.614 -11.937  10.242  0.00  0.00     0.152 C 
ATOM    158  O6B BDP d1180      16.816 -11.155  10.767  0.00  0.00    -0.646 OA
ATOM    159  O6A BDP d1180      15.099  -9.845  11.275  0.00  0.00    -0.646 OA
ATOM    160  C2  BDP d1180      13.579 -14.271   8.935  0.00  0.00     0.110 C 
ATOM    161  C4  BDP d1180      14.512 -13.208  11.081  0.00  0.00     0.103 C 
ATOM    162  H   BDP d1180      13.131 -16.117  10.600  0.00  0.00     0.210 HD
ATOM    163  H   BDP d1180      13.085 -12.301   8.279  0.00  0.00     0.133 H 
ATOM    164  H   BDP d1180      12.326 -14.719   7.494  0.00  0.00     0.210 HD
ATOM    165  H   BDP d1180      12.541 -13.840  10.723  0.00  0.00     0.091 H 
ATOM    166  H   BDP d1180      13.657 -11.460  10.250  0.00  0.00     0.104 H 
ATOM    167  H   BDP d1180      14.357 -14.965   8.696  0.00  0.00     0.094 H 
ATOM    168  H   BDP d1180      15.469 -13.684  11.122  0.00  0.00     0.092 H 
ENDROOT
TORSDOF 43
ENDMDL
MODEL 50
REMARK VINA RESULT:      -5.9      6.744      8.255
REMARK  0 active torsions:
REMARK  status: ('A' for Active; 'I' for Inactive)
REMARK       I    between atoms: C1_1  and  O3_15 
REMARK       I    between atoms: C1_2  and  O3_93 
REMARK       I    between atoms: C6_3  and  C5_89 
REMARK       I    between atoms: C6_3  and  O6_76 
REMARK       I    between atoms: O3_4  and  C3_22 
REMARK       I    between atoms: C6_5  and  C5_48 
REMARK       I    between atoms: C6_5  and  O6_31 
REMARK       I    between atoms: C4_6  and  O4_74 
REMARK       I    between atoms: C7_7  and  C8_62 
REMARK       I    between atoms: C7_7  and  N2_60 
REMARK       I    between atoms: C6_8  and  C5_52 
REMARK       I    between atoms: C3_9  and  O3_38 
REMARK       I    between atoms: C1_10  and  O4_75 
REMARK       I    between atoms: C6_12  and  C5_51 
REMARK       I    between atoms: O3_13  and  C3_42 
REMARK       I    between atoms: O4_14  and  C4_84 
REMARK       I    between atoms: O3_15  and  C3_86 
REMARK       I    between atoms: C6_16  and  C5_23 
REMARK       I    between atoms: C6_16  and  O6_58 
REMARK       I    between atoms: C1_17  and  O3_63 
REMARK       I    between atoms: C2_18  and  N2_60 
REMARK       I    between atoms: C2_19  and  N2_53 
REMARK       I    between atoms: O2_20  and  C2_66 
REMARK       I    between atoms: C3_25  and  O3_93 
REMARK       I    between atoms: C7_26  and  C8_32 
REMARK       I    between atoms: C7_26  and  N2_37 
REMARK       I    between atoms: C2_28  and  N2_44 
REMARK       I    between atoms: C7_29  and  C8_54 
REMARK       I    between atoms: C7_29  and  N2_53 
REMARK       I    between atoms: O1_33  and  C1_80 
REMARK       I    between atoms: O4_34  and  C4_40 
REMARK       I    between atoms: O4_34  and  C1_92 
REMARK       I    between atoms: C7_36  and  C8_81 
REMARK       I    between atoms: C7_36  and  N2_44 
REMARK       I    between atoms: N2_37  and  C2_83 
REMARK       I    between atoms: O3_39  and  C3_61 
REMARK       I    between atoms: C1_41  and  O4_46 
REMARK       I    between atoms: O2_43  and  C2_73 
REMARK       I    between atoms: C6_45  and  C5_87 
REMARK       I    between atoms: O4_46  and  C4_67 
REMARK       I    between atoms: C4_50  and  O4_65 
REMARK       I    between atoms: C2_55  and  O2_82 
REMARK       I    between atoms: O4_57  and  C4_71 
REMARK       I    between atoms: O3_63  and  C3_85 
REMARK       I    between atoms: O4_75  and  C4_91 
REMARK       I    between atoms: C5_77  and  C6_90 
REMARK       I    between atoms: O6_79  and  C6_90 
ROOT
ATOM      1  C1  BDP d1176      15.160 -12.676  16.360  0.00  0.00     0.160 C 
ATOM      2  O3  BDP d1176      15.030 -16.175  14.978  0.00  0.00    -0.390 OA
ATOM      3  O5  BDP d1176      14.481 -12.219  15.225  0.00  0.00    -0.340 OA
ATOM      4  O6A BDP d1176      13.175 -11.868  12.876  0.00  0.00    -0.646 OA
ATOM      5  C3  BDP d1176      15.504 -14.844  15.002  0.00  0.00     0.092 C 
ATOM      6  O4  BDP d1176      15.666 -14.469  12.649  0.00  0.00    -0.348 OA
ATOM      7  C4  BDP d1176      14.942 -14.092  13.805  0.00  0.00     0.103 C 
ATOM      8  C6  BDP d1176      14.418 -11.791  12.929  0.00  0.00     0.206 C 
ATOM      9  C2  BDP d1176      15.203 -14.209  16.357  0.00  0.00     0.110 C 
ATOM     10  O6B BDP d1176      15.144 -11.117  12.170  0.00  0.00    -0.646 OA
ATOM     11  O2  BDP d1176      16.234 -14.631  17.218  0.00  0.00    -0.388 OA
ATOM     12  C5  BDP d1176      15.090 -12.592  14.023  0.00  0.00     0.152 C 
ATOM     13  H   BDP d1176      16.169 -12.319  16.365  0.00  0.00     0.133 H 
ATOM     14  H   BDP d1176      15.386 -16.659  15.740  0.00  0.00     0.210 HD
ATOM     15  H   BDP d1176      16.569 -14.807  14.902  0.00  0.00     0.091 H 
ATOM     16  H   BDP d1176      13.905 -14.329  13.684  0.00  0.00     0.092 H 
ATOM     17  H   BDP d1176      14.224 -14.518  16.656  0.00  0.00     0.094 H 
ATOM     18  H   BDP d1176      17.086 -14.313  16.881  0.00  0.00     0.210 HD
ATOM     19  H   BDP d1176      16.141 -12.391  14.030  0.00  0.00     0.104 H 
ATOM     20  C1  BDP d1178      15.034 -16.053   7.104  0.00  0.00     0.160 C 
ATOM     21  C6  BDP d1178      12.154 -17.268   5.075  0.00  0.00     0.206 C 
ATOM     22  O6B BDP d1178      11.163 -16.696   4.561  0.00  0.00    -0.646 OA
ATOM     23  O6A BDP d1178      12.262 -18.512   5.210  0.00  0.00    -0.646 OA
ATOM     24  O3  BDP d1178      16.459 -15.475   3.708  0.00  0.00    -0.390 OA
ATOM     25  O2  BDP d1178      17.234 -15.360   6.401  0.00  0.00    -0.388 OA
ATOM     26  C5  BDP d1178      13.295 -16.358   5.531  0.00  0.00     0.152 C 
ATOM     27  C3  BDP d1178      15.523 -15.436   4.761  0.00  0.00     0.092 C 
ATOM     28  C2  BDP d1178      16.090 -16.075   6.004  0.00  0.00     0.110 C 
ATOM     29  O4  BDP d1178      13.609 -15.314   3.437  0.00  0.00    -0.348 OA
ATOM     30  O5  BDP d1178      13.940 -16.846   6.702  0.00  0.00    -0.340 OA
ATOM     31  C4  BDP d1178      14.247 -16.154   4.357  0.00  0.00     0.103 C 
ATOM     32  H   BDP d1178      14.644 -15.073   7.287  0.00  0.00     0.133 H 
ATOM     33  H   BDP d1178      17.269 -15.014   3.978  0.00  0.00     0.210 HD
ATOM     34  H   BDP d1178      17.606 -15.764   7.200  0.00  0.00     0.210 HD
ATOM     35  H   BDP d1178      12.904 -15.405   5.822  0.00  0.00     0.104 H 
ATOM     36  H   BDP d1178      15.301 -14.411   4.971  0.00  0.00     0.091 H 
ATOM     37  H   BDP d1178      16.364 -17.091   5.812  0.00  0.00     0.094 H 
ATOM     38  H   BDP d1178      14.492 -17.120   3.968  0.00  0.00     0.092 H 
ATOM     39  C6  NAG d1177      13.686 -18.774  12.199  0.00  0.00     0.043 C 
ATOM     40  O4  NAG d1177      13.862 -18.425   9.238  0.00  0.00    -0.390 OA
ATOM     41  C2  NAG d1177      15.617 -15.348  10.410  0.00  0.00     0.087 C 
ATOM     42  C3  NAG d1177      14.893 -16.302   9.469  0.00  0.00     0.093 C 
ATOM     43  C7  NAG d1177      16.759 -13.314   9.617  0.00  0.00     0.214 C 
ATOM     44  N2  NAG d1177      15.653 -14.032   9.789  0.00  0.00    -0.349 N 
ATOM     45  C8  NAG d1177      16.529 -11.864   9.313  0.00  0.00    -0.003 C 
ATOM     46  O7  NAG d1177      17.906 -13.768   9.677  0.00  0.00    -0.274 OA
ATOM     47  O6  NAG d1177      14.601 -18.931  13.269  0.00  0.00    -0.398 OA
ATOM     48  C4  NAG d1177      14.644 -17.651  10.127  0.00  0.00     0.089 C 
ATOM     49  O5  NAG d1177      14.716 -16.608  12.295  0.00  0.00    -0.349 OA
ATOM     50  C5  NAG d1177      13.942 -17.455  11.471  0.00  0.00     0.089 C 
ATOM     51  C1  NAG d1177      14.908 -15.306  11.764  0.00  0.00     0.154 C 
ATOM     52  O3  NAG d1177      15.668 -16.511   8.311  0.00  0.00    -0.348 OA
ATOM     53  H   NAG d1177      13.804 -19.585  11.513  0.00  0.00     0.078 H 
ATOM     54  H   NAG d1177      12.690 -18.766  12.592  0.00  0.00     0.078 H 
ATOM     55  H   NAG d1177      14.336 -18.529   8.398  0.00  0.00     0.210 HD
ATOM     56  H   NAG d1177      16.619 -15.683  10.584  0.00  0.00     0.084 H 
ATOM     57  H   NAG d1177      13.953 -15.855   9.221  0.00  0.00     0.091 H 
ATOM     58  H   NAG d1177      14.802 -13.649   9.475  0.00  0.00     0.163 HD
ATOM     59  H   NAG d1177      15.478 -11.664   9.305  0.00  0.00     0.040 H 
ATOM     60  H   NAG d1177      16.944 -11.630   8.355  0.00  0.00     0.040 H 
ATOM     61  H   NAG d1177      17.000 -11.263  10.063  0.00  0.00     0.040 H 
ATOM     62  H   NAG d1177      15.506 -18.937  12.922  0.00  0.00     0.209 HD
ATOM     63  H   NAG d1177      15.564 -18.158  10.324  0.00  0.00     0.091 H 
ATOM     64  H   NAG d1177      12.990 -17.012  11.266  0.00  0.00     0.090 H 
ATOM     65  H   NAG d1177      13.928 -14.893  11.643  0.00  0.00     0.132 H 
ATOM     66  C6  NAG d1175      13.242  -7.445  17.949  0.00  0.00     0.043 C 
ATOM     67  O3  NAG d1175      14.468 -12.181  17.528  0.00  0.00    -0.348 OA
ATOM     68  C2  NAG d1175      15.017 -11.011  19.545  0.00  0.00     0.087 C 
ATOM     69  O6  NAG d1175      13.562  -6.230  18.589  0.00  0.00    -0.398 OA
ATOM     70  O1  NAG d1175      15.167  -9.735  21.601  0.00  0.00    -0.369 OA
ATOM     71  C7  NAG d1175      15.907 -12.810  20.941  0.00  0.00     0.214 C 
ATOM     72  N2  NAG d1175      16.075 -11.931  19.950  0.00  0.00    -0.349 N 
ATOM     73  C5  NAG d1175      14.281  -8.483  18.356  0.00  0.00     0.089 C 
ATOM     74  O5  NAG d1175      14.161  -8.774  19.741  0.00  0.00    -0.349 OA
ATOM     75  C4  NAG d1175      14.133  -9.739  17.495  0.00  0.00     0.089 C 
ATOM     76  O4  NAG d1175      14.506  -9.388  16.175  0.00  0.00    -0.390 OA
ATOM     77  O7  NAG d1175      14.986 -13.635  20.959  0.00  0.00    -0.274 OA
ATOM     78  C1  NAG d1175      15.198  -9.631  20.191  0.00  0.00     0.151 C 
ATOM     79  C8  NAG d1175      16.925 -12.754  22.047  0.00  0.00    -0.003 C 
ATOM     80  C3  NAG d1175      14.962 -10.931  18.010  0.00  0.00     0.093 C 
ATOM     81  H   NAG d1175      12.268  -7.769  18.253  0.00  0.00     0.078 H 
ATOM     82  H   NAG d1175      13.244  -7.316  16.887  0.00  0.00     0.078 H 
ATOM     83  H   NAG d1175      14.077 -11.385  19.894  0.00  0.00     0.084 H 
ATOM     84  H   NAG d1175      13.558  -6.360  19.550  0.00  0.00     0.209 HD
ATOM     85  H   NAG d1175      15.879 -10.323  21.898  0.00  0.00     0.212 HD
ATOM     86  H   NAG d1175      16.938 -11.902  19.479  0.00  0.00     0.163 HD
ATOM     87  H   NAG d1175      15.263  -8.090  18.191  0.00  0.00     0.090 H 
ATOM     88  H   NAG d1175      13.117 -10.073  17.536  0.00  0.00     0.091 H 
ATOM     89  H   NAG d1175      15.429  -9.090  16.168  0.00  0.00     0.210 HD
ATOM     90  H   NAG d1175      16.148  -9.228  19.908  0.00  0.00     0.132 H 
ATOM     91  H   NAG d1175      17.632 -11.977  21.843  0.00  0.00     0.040 H 
ATOM     92  H   NAG d1175      17.435 -13.692  22.110  0.00  0.00     0.040 H 
ATOM     93  H   NAG d1175      16.432 -12.553  22.975  0.00  0.00     0.040 H 
ATOM     94  H   NAG d1175      15.946 -10.753  17.631  0.00  0.00     0.091 H 
ATOM     95  C4  NAG d1181       3.758 -12.960  -5.829  0.00  0.00     0.089 C 
ATOM     96  C3  NAG d1181       4.058 -14.434  -6.118  0.00  0.00     0.086 C 
ATOM     97  C6  NAG d1181       4.537 -10.847  -4.675  0.00  0.00     0.043 C 
ATOM     98  C5  NAG d1181       4.940 -12.240  -5.164  0.00  0.00     0.089 C 
ATOM     99  C7  NAG d1181       4.608 -17.525  -4.721  0.00  0.00     0.214 C 
ATOM    100  C8  NAG d1181       4.742 -17.735  -3.237  0.00  0.00    -0.003 C 
ATOM    101  N2  NAG d1181       5.186 -16.438  -5.233  0.00  0.00    -0.349 N 
ATOM    102  O3  NAG d1181       2.865 -15.123  -6.463  0.00  0.00    -0.391 OA
ATOM    103  C1  NAG d1181       5.880 -14.265  -4.374  0.00  0.00     0.154 C 
ATOM    104  O6  NAG d1181       5.687 -10.049  -4.485  0.00  0.00    -0.398 OA
ATOM    105  O5  NAG d1181       5.429 -12.971  -4.052  0.00  0.00    -0.349 OA
ATOM    106  O7  NAG d1181       3.987 -18.328  -5.422  0.00  0.00    -0.274 OA
ATOM    107  O4  NAG d1181       3.427 -12.309  -7.035  0.00  0.00    -0.390 OA
ATOM    108  C2  NAG d1181       4.717 -15.100  -4.907  0.00  0.00     0.087 C 
ATOM    109  H   NAG d1181       2.938 -12.925  -5.143  0.00  0.00     0.091 H 
ATOM    110  H   NAG d1181       4.736 -14.482  -6.944  0.00  0.00     0.090 H 
ATOM    111  H   NAG d1181       4.010 -10.935  -3.749  0.00  0.00     0.078 H 
ATOM    112  H   NAG d1181       3.909 -10.386  -5.409  0.00  0.00     0.078 H 
ATOM    113  H   NAG d1181       5.705 -12.157  -5.908  0.00  0.00     0.090 H 
ATOM    114  H   NAG d1181       5.312 -16.935  -2.814  0.00  0.00     0.040 H 
ATOM    115  H   NAG d1181       5.238 -18.664  -3.052  0.00  0.00     0.040 H 
ATOM    116  H   NAG d1181       3.769 -17.754  -2.791  0.00  0.00     0.040 H 
ATOM    117  H   NAG d1181       5.950 -16.544  -5.846  0.00  0.00     0.163 HD
ATOM    118  H   NAG d1181       2.243 -15.085  -5.719  0.00  0.00     0.210 HD
ATOM    119  H   NAG d1181       6.650 -14.161  -5.110  0.00  0.00     0.132 H 
ATOM    120  H   NAG d1181       6.261 -10.462  -3.821  0.00  0.00     0.209 HD
ATOM    121  H   NAG d1181       4.181 -12.351  -7.642  0.00  0.00     0.210 HD
ATOM    122  H   NAG d1181       3.969 -15.169  -4.145  0.00  0.00     0.084 H 
ATOM    123  C7  NAG d1179      10.710 -13.764   3.071  0.00  0.00     0.214 C 
ATOM    124  C1  NAG d1179      13.219 -15.948   2.207  0.00  0.00     0.154 C 
ATOM    125  C2  NAG d1179      12.176 -15.015   1.607  0.00  0.00     0.087 C 
ATOM    126  O5  NAG d1179      14.297 -16.105   1.310  0.00  0.00    -0.349 OA
ATOM    127  O7  NAG d1179      10.931 -12.668   2.560  0.00  0.00    -0.274 OA
ATOM    128  O4  NAG d1179      12.614 -16.152  -1.931  0.00  0.00    -0.390 OA
ATOM    129  N2  NAG d1179      11.015 -14.916   2.477  0.00  0.00    -0.349 N 
ATOM    130  C8  NAG d1179      10.067 -13.832   4.422  0.00  0.00    -0.003 C 
ATOM    131  O3  NAG d1179      11.066 -14.278  -0.373  0.00  0.00    -0.348 OA
ATOM    132  C4  NAG d1179      13.003 -15.657  -0.667  0.00  0.00     0.089 C 
ATOM    133  C5  NAG d1179      13.916 -16.649   0.058  0.00  0.00     0.089 C 
ATOM    134  O6  NAG d1179      15.905 -15.808  -1.044  0.00  0.00    -0.398 OA
ATOM    135  C3  NAG d1179      11.767 -15.376   0.181  0.00  0.00     0.093 C 
ATOM    136  C6  NAG d1179      15.172 -16.983  -0.746  0.00  0.00     0.043 C 
ATOM    137  H   NAG d1179      12.852 -16.936   2.390  0.00  0.00     0.132 H 
ATOM    138  H   NAG d1179      12.644 -14.055   1.535  0.00  0.00     0.084 H 
ATOM    139  H   NAG d1179      12.037 -15.505  -2.368  0.00  0.00     0.210 HD
ATOM    140  H   NAG d1179      10.449 -15.708   2.629  0.00  0.00     0.163 HD
ATOM    141  H   NAG d1179       9.951 -14.856   4.711  0.00  0.00     0.040 H 
ATOM    142  H   NAG d1179       9.107 -13.360   4.385  0.00  0.00     0.040 H 
ATOM    143  H   NAG d1179      10.684 -13.329   5.137  0.00  0.00     0.040 H 
ATOM    144  H   NAG d1179      13.550 -14.750  -0.818  0.00  0.00     0.091 H 
ATOM    145  H   NAG d1179      13.364 -17.556   0.189  0.00  0.00     0.090 H 
ATOM    146  H   NAG d1179      16.697 -16.041  -1.554  0.00  0.00     0.209 HD
ATOM    147  H   NAG d1179      11.152 -16.251   0.194  0.00  0.00     0.091 H 
ATOM    148  H   NAG d1179      14.887 -17.460  -1.661  0.00  0.00     0.078 H 
ATOM    149  H   NAG d1179      15.790 -17.634  -0.163  0.00  0.00     0.078 H 
ATOM    150  C6  BDP d1180       8.732 -16.634  -3.741  0.00  0.00     0.206 C 
ATOM    151  O3  BDP d1180       7.134 -12.276  -2.051  0.00  0.00    -0.390 OA
ATOM    152  C1  BDP d1180       9.757 -14.641  -0.837  0.00  0.00     0.160 C 
ATOM    153  O2  BDP d1180       8.527 -13.114   0.502  0.00  0.00    -0.388 OA
ATOM    154  C3  BDP d1180       7.563 -13.556  -1.636  0.00  0.00     0.092 C 
ATOM    155  O4  BDP d1180       6.413 -14.940  -3.222  0.00  0.00    -0.348 OA
ATOM    156  O5  BDP d1180       9.832 -15.208  -2.126  0.00  0.00    -0.340 OA
ATOM    157  C5  BDP d1180       8.571 -15.677  -2.558  0.00  0.00     0.152 C 
ATOM    158  O6B BDP d1180       9.412 -16.254  -4.725  0.00  0.00    -0.646 OA
ATOM    159  O6A BDP d1180       8.182 -17.758  -3.653  0.00  0.00    -0.646 OA
ATOM    160  C2  BDP d1180       8.865 -13.400  -0.839  0.00  0.00     0.110 C 
ATOM    161  C4  BDP d1180       7.691 -14.467  -2.861  0.00  0.00     0.103 C 
ATOM    162  H   BDP d1180       7.052 -11.696  -1.278  0.00  0.00     0.210 HD
ATOM    163  H   BDP d1180       9.336 -15.374  -0.181  0.00  0.00     0.133 H 
ATOM    164  H   BDP d1180       9.337 -13.011   1.025  0.00  0.00     0.210 HD
ATOM    165  H   BDP d1180       6.852 -14.024  -0.987  0.00  0.00     0.091 H 
ATOM    166  H   BDP d1180       8.089 -16.250  -1.793  0.00  0.00     0.104 H 
ATOM    167  H   BDP d1180       9.419 -12.618  -1.314  0.00  0.00     0.094 H 
ATOM    168  H   BDP d1180       8.133 -13.898  -3.653  0.00  0.00     0.092 H 
ENDROOT
TORSDOF 43
ENDMDL
MODEL 51
REMARK VINA RESULT:      -5.9      3.739     19.019
REMARK  0 active torsions:
REMARK  status: ('A' for Active; 'I' for Inactive)
REMARK       I    between atoms: C1_1  and  O3_15 
REMARK       I    between atoms: C1_2  and  O3_93 
REMARK       I    between atoms: C6_3  and  C5_89 
REMARK       I    between atoms: C6_3  and  O6_76 
REMARK       I    between atoms: O3_4  and  C3_22 
REMARK       I    between atoms: C6_5  and  C5_48 
REMARK       I    between atoms: C6_5  and  O6_31 
REMARK       I    between atoms: C4_6  and  O4_74 
REMARK       I    between atoms: C7_7  and  C8_62 
REMARK       I    between atoms: C7_7  and  N2_60 
REMARK       I    between atoms: C6_8  and  C5_52 
REMARK       I    between atoms: C3_9  and  O3_38 
REMARK       I    between atoms: C1_10  and  O4_75 
REMARK       I    between atoms: C6_12  and  C5_51 
REMARK       I    between atoms: O3_13  and  C3_42 
REMARK       I    between atoms: O4_14  and  C4_84 
REMARK       I    between atoms: O3_15  and  C3_86 
REMARK       I    between atoms: C6_16  and  C5_23 
REMARK       I    between atoms: C6_16  and  O6_58 
REMARK       I    between atoms: C1_17  and  O3_63 
REMARK       I    between atoms: C2_18  and  N2_60 
REMARK       I    between atoms: C2_19  and  N2_53 
REMARK       I    between atoms: O2_20  and  C2_66 
REMARK       I    between atoms: C3_25  and  O3_93 
REMARK       I    between atoms: C7_26  and  C8_32 
REMARK       I    between atoms: C7_26  and  N2_37 
REMARK       I    between atoms: C2_28  and  N2_44 
REMARK       I    between atoms: C7_29  and  C8_54 
REMARK       I    between atoms: C7_29  and  N2_53 
REMARK       I    between atoms: O1_33  and  C1_80 
REMARK       I    between atoms: O4_34  and  C4_40 
REMARK       I    between atoms: O4_34  and  C1_92 
REMARK       I    between atoms: C7_36  and  C8_81 
REMARK       I    between atoms: C7_36  and  N2_44 
REMARK       I    between atoms: N2_37  and  C2_83 
REMARK       I    between atoms: O3_39  and  C3_61 
REMARK       I    between atoms: C1_41  and  O4_46 
REMARK       I    between atoms: O2_43  and  C2_73 
REMARK       I    between atoms: C6_45  and  C5_87 
REMARK       I    between atoms: O4_46  and  C4_67 
REMARK       I    between atoms: C4_50  and  O4_65 
REMARK       I    between atoms: C2_55  and  O2_82 
REMARK       I    between atoms: O4_57  and  C4_71 
REMARK       I    between atoms: O3_63  and  C3_85 
REMARK       I    between atoms: O4_75  and  C4_91 
REMARK       I    between atoms: C5_77  and  C6_90 
REMARK       I    between atoms: O6_79  and  C6_90 
ROOT
ATOM      1  C1  BDP d1176      10.483 -16.494  -0.994  0.00  0.00     0.160 C 
ATOM      2  O3  BDP d1176      12.749 -13.718   0.162  0.00  0.00    -0.390 OA
ATOM      3  O5  BDP d1176       9.847 -16.474   0.254  0.00  0.00    -0.340 OA
ATOM      4  O6A BDP d1176       8.976 -16.026   2.780  0.00  0.00    -0.646 OA
ATOM      5  C3  BDP d1176      12.291 -15.055   0.158  0.00  0.00     0.092 C 
ATOM      6  O4  BDP d1176      12.540 -15.535   2.484  0.00  0.00    -0.348 OA
ATOM      7  C4  BDP d1176      11.573 -15.341   1.469  0.00  0.00     0.103 C 
ATOM      8  C6  BDP d1176       9.882 -16.854   2.558  0.00  0.00     0.206 C 
ATOM      9  C2  BDP d1176      11.462 -15.318  -1.097  0.00  0.00     0.110 C 
ATOM     10  O6B BDP d1176      10.141 -17.860   3.250  0.00  0.00    -0.646 OA
ATOM     11  O2  BDP d1176      12.388 -15.594  -2.120  0.00  0.00    -0.388 OA
ATOM     12  C5  BDP d1176      10.730 -16.602   1.330  0.00  0.00     0.152 C 
ATOM     13  H   BDP d1176      11.041 -17.398  -1.118  0.00  0.00     0.133 H 
ATOM     14  H   BDP d1176      13.207 -13.532  -0.673  0.00  0.00     0.210 HD
ATOM     15  H   BDP d1176      13.106 -15.747   0.109  0.00  0.00     0.091 H 
ATOM     16  H   BDP d1176      10.936 -14.518   1.719  0.00  0.00     0.092 H 
ATOM     17  H   BDP d1176      10.850 -14.458  -1.274  0.00  0.00     0.094 H 
ATOM     18  H   BDP d1176      12.902 -16.383  -1.886  0.00  0.00     0.210 HD
ATOM     19  H   BDP d1176      11.416 -17.410   1.188  0.00  0.00     0.104 H 
ATOM     20  C1  BDP d1178      13.865 -14.105   7.947  0.00  0.00     0.160 C 
ATOM     21  C6  BDP d1178      12.695 -11.442  10.279  0.00  0.00     0.206 C 
ATOM     22  O6B BDP d1178      11.654 -11.297  10.963  0.00  0.00    -0.646 OA
ATOM     23  O6A BDP d1178      13.526 -10.528  10.049  0.00  0.00    -0.646 OA
ATOM     24  O3  BDP d1178      15.123 -15.564  11.139  0.00  0.00    -0.390 OA
ATOM     25  O2  BDP d1178      15.244 -16.035   8.378  0.00  0.00    -0.388 OA
ATOM     26  C5  BDP d1178      12.946 -12.846   9.726  0.00  0.00     0.152 C 
ATOM     27  C3  BDP d1178      14.216 -14.976  10.233  0.00  0.00     0.092 C 
ATOM     28  C2  BDP d1178      14.860 -14.781   8.884  0.00  0.00     0.110 C 
ATOM     29  O4  BDP d1178      12.862 -13.936  11.819  0.00  0.00    -0.348 OA
ATOM     30  O5  BDP d1178      13.569 -12.819   8.447  0.00  0.00    -0.340 OA
ATOM     31  C4  BDP d1178      13.733 -13.638  10.766  0.00  0.00     0.103 C 
ATOM     32  H   BDP d1178      12.932 -14.625   7.886  0.00  0.00     0.133 H 
ATOM     33  H   BDP d1178      15.423 -16.417  10.788  0.00  0.00     0.210 HD
ATOM     34  H   BDP d1178      15.659 -15.920   7.509  0.00  0.00     0.210 HD
ATOM     35  H   BDP d1178      12.013 -13.341   9.556  0.00  0.00     0.104 H 
ATOM     36  H   BDP d1178      13.381 -15.635  10.124  0.00  0.00     0.091 H 
ATOM     37  H   BDP d1178      15.728 -14.160   8.969  0.00  0.00     0.094 H 
ATOM     38  H   BDP d1178      14.577 -13.046  11.053  0.00  0.00     0.092 H 
ATOM     39  C6  NAG d1177      13.732 -10.949   2.927  0.00  0.00     0.043 C 
ATOM     40  O4  NAG d1177      14.100 -11.440   5.850  0.00  0.00    -0.390 OA
ATOM     41  C2  NAG d1177      13.382 -14.897   4.645  0.00  0.00     0.087 C 
ATOM     42  C3  NAG d1177      13.552 -13.735   5.615  0.00  0.00     0.093 C 
ATOM     43  C7  NAG d1177      13.129 -17.230   5.400  0.00  0.00     0.214 C 
ATOM     44  N2  NAG d1177      12.692 -15.975   5.340  0.00  0.00    -0.349 N 
ATOM     45  C8  NAG d1177      12.103 -18.235   5.828  0.00  0.00    -0.003 C 
ATOM     46  O7  NAG d1177      14.287 -17.581   5.150  0.00  0.00    -0.274 OA
ATOM     47  O6  NAG d1177      14.374 -11.353   1.731  0.00  0.00    -0.398 OA
ATOM     48  C4  NAG d1177      14.092 -12.499   4.912  0.00  0.00     0.089 C 
ATOM     49  O5  NAG d1177      13.178 -13.283   2.829  0.00  0.00    -0.349 OA
ATOM     50  C5  NAG d1177      13.226 -12.169   3.696  0.00  0.00     0.089 C 
ATOM     51  C1  NAG d1177      12.603 -14.442   3.410  0.00  0.00     0.154 C 
ATOM     52  O3  NAG d1177      14.455 -14.093   6.636  0.00  0.00    -0.348 OA
ATOM     53  H   NAG d1177      14.427 -10.411   3.535  0.00  0.00     0.078 H 
ATOM     54  H   NAG d1177      12.898 -10.324   2.680  0.00  0.00     0.078 H 
ATOM     55  H   NAG d1177      14.657 -11.683   6.606  0.00  0.00     0.210 HD
ATOM     56  H   NAG d1177      14.336 -15.249   4.311  0.00  0.00     0.084 H 
ATOM     57  H   NAG d1177      12.588 -13.513   6.022  0.00  0.00     0.091 H 
ATOM     58  H   NAG d1177      11.845 -15.760   5.795  0.00  0.00     0.163 HD
ATOM     59  H   NAG d1177      11.169 -17.742   5.997  0.00  0.00     0.040 H 
ATOM     60  H   NAG d1177      12.424 -18.711   6.731  0.00  0.00     0.040 H 
ATOM     61  H   NAG d1177      11.983 -18.971   5.060  0.00  0.00     0.040 H 
ATOM     62  H   NAG d1177      15.130 -11.921   1.945  0.00  0.00     0.209 HD
ATOM     63  H   NAG d1177      15.087 -12.663   4.554  0.00  0.00     0.091 H 
ATOM     64  H   NAG d1177      12.249 -11.935   4.062  0.00  0.00     0.090 H 
ATOM     65  H   NAG d1177      11.610 -14.164   3.695  0.00  0.00     0.132 H 
ATOM     66  C6  NAG d1175       5.535 -19.353  -1.952  0.00  0.00     0.043 C 
ATOM     67  O3  NAG d1175       9.466 -16.411  -2.018  0.00  0.00    -0.348 OA
ATOM     68  C2  NAG d1175       8.865 -17.595  -4.011  0.00  0.00     0.087 C 
ATOM     69  O6  NAG d1175       4.938 -20.481  -2.549  0.00  0.00    -0.398 OA
ATOM     70  O1  NAG d1175       7.883 -18.614  -5.980  0.00  0.00    -0.369 OA
ATOM     71  C7  NAG d1175      10.451 -16.684  -5.633  0.00  0.00     0.214 C 
ATOM     72  N2  NAG d1175      10.188 -17.514  -4.621  0.00  0.00    -0.349 N 
ATOM     73  C5  NAG d1175       6.917 -19.167  -2.568  0.00  0.00     0.089 C 
ATOM     74  O5  NAG d1175       6.794 -18.813  -3.938  0.00  0.00    -0.349 OA
ATOM     75  C4  NAG d1175       7.707 -18.121  -1.779  0.00  0.00     0.089 C 
ATOM     76  O4  NAG d1175       7.978 -18.675  -0.504  0.00  0.00    -0.390 OA
ATOM     77  O7  NAG d1175      10.245 -15.466  -5.575  0.00  0.00    -0.274 OA
ATOM     78  C1  NAG d1175       8.056 -18.766  -4.584  0.00  0.00     0.151 C 
ATOM     79  C8  NAG d1175      11.036 -17.318  -6.865  0.00  0.00    -0.003 C 
ATOM     80  C3  NAG d1175       9.005 -17.680  -2.481  0.00  0.00     0.093 C 
ATOM     81  H   NAG d1175       4.937 -18.485  -2.135  0.00  0.00     0.078 H 
ATOM     82  H   NAG d1175       5.618 -19.494  -0.895  0.00  0.00     0.078 H 
ATOM     83  H   NAG d1175       8.316 -16.707  -4.248  0.00  0.00     0.084 H 
ATOM     84  H   NAG d1175       4.869 -20.341  -3.507  0.00  0.00     0.209 HD
ATOM     85  H   NAG d1175       8.751 -18.583  -6.412  0.00  0.00     0.212 HD
ATOM     86  H   NAG d1175      10.909 -18.088  -4.275  0.00  0.00     0.163 HD
ATOM     87  H   NAG d1175       7.458 -20.089  -2.518  0.00  0.00     0.090 H 
ATOM     88  H   NAG d1175       7.122 -17.229  -1.697  0.00  0.00     0.091 H 
ATOM     89  H   NAG d1175       8.509 -19.481  -0.608  0.00  0.00     0.210 HD
ATOM     90  H   NAG d1175       8.585 -19.681  -4.412  0.00  0.00     0.132 H 
ATOM     91  H   NAG d1175      11.134 -18.372  -6.713  0.00  0.00     0.040 H 
ATOM     92  H   NAG d1175      11.999 -16.895  -7.060  0.00  0.00     0.040 H 
ATOM     93  H   NAG d1175      10.391 -17.137  -7.700  0.00  0.00     0.040 H 
ATOM     94  H   NAG d1175       9.713 -18.443  -2.234  0.00  0.00     0.091 H 
ATOM     95  C4  NAG d1181       5.198 -10.023  22.514  0.00  0.00     0.089 C 
ATOM     96  C3  NAG d1181       6.382  -9.063  22.662  0.00  0.00     0.086 C 
ATOM     97  C6  NAG d1181       4.322 -12.122  21.403  0.00  0.00     0.043 C 
ATOM     98  C5  NAG d1181       5.567 -11.296  21.738  0.00  0.00     0.089 C 
ATOM     99  C7  NAG d1181       8.502  -6.927  21.003  0.00  0.00     0.214 C 
ATOM    100  C8  NAG d1181       8.510  -6.791  19.504  0.00  0.00    -0.003 C 
ATOM    101  N2  NAG d1181       8.356  -8.156  21.497  0.00  0.00    -0.349 N 
ATOM    102  O3  NAG d1181       5.937  -7.796  23.126  0.00  0.00    -0.391 OA
ATOM    103  C1  NAG d1181       7.422 -10.259  20.693  0.00  0.00     0.154 C 
ATOM    104  O6  NAG d1181       4.690 -13.452  21.105  0.00  0.00    -0.398 OA
ATOM    105  O5  NAG d1181       6.228 -10.984  20.523  0.00  0.00    -0.349 OA
ATOM    106  O7  NAG d1181       8.623  -5.938  21.730  0.00  0.00    -0.274 OA
ATOM    107  O4  NAG d1181       4.722 -10.373  23.795  0.00  0.00    -0.390 OA
ATOM    108  C2  NAG d1181       7.119  -8.904  21.329  0.00  0.00     0.087 C 
ATOM    109  H   NAG d1181       4.439  -9.518  21.954  0.00  0.00     0.091 H 
ATOM    110  H   NAG d1181       7.060  -9.475  23.379  0.00  0.00     0.090 H 
ATOM    111  H   NAG d1181       3.830 -11.692  20.556  0.00  0.00     0.078 H 
ATOM    112  H   NAG d1181       3.664 -12.121  22.246  0.00  0.00     0.078 H 
ATOM    113  H   NAG d1181       6.219 -11.861  22.371  0.00  0.00     0.090 H 
ATOM    114  H   NAG d1181       8.394  -7.757  19.058  0.00  0.00     0.040 H 
ATOM    115  H   NAG d1181       9.439  -6.362  19.190  0.00  0.00     0.040 H 
ATOM    116  H   NAG d1181       7.703  -6.158  19.199  0.00  0.00     0.040 H 
ATOM    117  H   NAG d1181       9.103  -8.568  21.988  0.00  0.00     0.163 HD
ATOM    118  H   NAG d1181       5.321  -7.414  22.481  0.00  0.00     0.210 HD
ATOM    119  H   NAG d1181       8.064 -10.844  21.319  0.00  0.00     0.132 H 
ATOM    120  H   NAG d1181       5.288 -13.459  20.341  0.00  0.00     0.209 HD
ATOM    121  H   NAG d1181       5.423 -10.829  24.286  0.00  0.00     0.210 HD
ATOM    122  H   NAG d1181       6.469  -8.359  20.677  0.00  0.00     0.084 H 
ATOM    123  C7  NAG d1179       9.721 -13.371  12.691  0.00  0.00     0.214 C 
ATOM    124  C1  NAG d1179      13.137 -13.242  13.047  0.00  0.00     0.154 C 
ATOM    125  C2  NAG d1179      11.846 -13.350  13.849  0.00  0.00     0.087 C 
ATOM    126  O5  NAG d1179      14.202 -13.819  13.772  0.00  0.00    -0.349 OA
ATOM    127  O7  NAG d1179       9.293 -14.386  13.236  0.00  0.00    -0.274 OA
ATOM    128  O4  NAG d1179      13.420 -12.858  17.208  0.00  0.00    -0.390 OA
ATOM    129  N2  NAG d1179      10.757 -12.677  13.159  0.00  0.00    -0.349 N 
ATOM    130  C8  NAG d1179       9.063 -12.870  11.442  0.00  0.00    -0.003 C 
ATOM    131  O3  NAG d1179      10.833 -13.313  16.009  0.00  0.00    -0.348 OA
ATOM    132  C4  NAG d1179      13.225 -13.441  15.936  0.00  0.00     0.089 C 
ATOM    133  C5  NAG d1179      14.432 -13.201  15.027  0.00  0.00     0.089 C 
ATOM    134  O6  NAG d1179      15.617 -15.132  15.890  0.00  0.00    -0.398 OA
ATOM    135  C3  NAG d1179      11.969 -12.866  15.292  0.00  0.00     0.093 C 
ATOM    136  C6  NAG d1179      15.730 -13.747  15.622  0.00  0.00     0.043 C 
ATOM    137  H   NAG d1179      13.435 -12.233  12.854  0.00  0.00     0.132 H 
ATOM    138  H   NAG d1179      11.627 -14.395  13.916  0.00  0.00     0.084 H 
ATOM    139  H   NAG d1179      12.642 -13.024  17.763  0.00  0.00     0.210 HD
ATOM    140  H   NAG d1179      10.785 -11.700  13.037  0.00  0.00     0.163 HD
ATOM    141  H   NAG d1179       9.560 -11.985  11.107  0.00  0.00     0.040 H 
ATOM    142  H   NAG d1179       8.035 -12.647  11.644  0.00  0.00     0.040 H 
ATOM    143  H   NAG d1179       9.121 -13.621  10.682  0.00  0.00     0.040 H 
ATOM    144  H   NAG d1179      13.111 -14.497  16.067  0.00  0.00     0.091 H 
ATOM    145  H   NAG d1179      14.545 -12.143  14.916  0.00  0.00     0.090 H 
ATOM    146  H   NAG d1179      16.449 -15.458  16.267  0.00  0.00     0.209 HD
ATOM    147  H   NAG d1179      12.030 -11.798  15.308  0.00  0.00     0.091 H 
ATOM    148  H   NAG d1179      15.942 -13.229  16.535  0.00  0.00     0.078 H 
ATOM    149  H   NAG d1179      16.521 -13.596  14.917  0.00  0.00     0.078 H 
ATOM    150  C6  BDP d1180      10.990 -10.143  19.511  0.00  0.00     0.206 C 
ATOM    151  O3  BDP d1180       6.814 -12.512  18.351  0.00  0.00    -0.390 OA
ATOM    152  C1  BDP d1180      10.116 -12.235  16.628  0.00  0.00     0.160 C 
ATOM    153  O2  BDP d1180       8.021 -12.623  15.579  0.00  0.00    -0.388 OA
ATOM    154  C3  BDP d1180       7.872 -11.757  17.797  0.00  0.00     0.092 C 
ATOM    155  O4  BDP d1180       8.076 -10.018  19.436  0.00  0.00    -0.348 OA
ATOM    156  O5  BDP d1180      10.718 -11.884  17.854  0.00  0.00    -0.340 OA
ATOM    157  C5  BDP d1180      10.098 -10.751  18.427  0.00  0.00     0.152 C 
ATOM    158  O6B BDP d1180      11.430 -10.898  20.413  0.00  0.00    -0.646 OA
ATOM    159  O6A BDP d1180      11.246  -8.918  19.429  0.00  0.00    -0.646 OA
ATOM    160  C2  BDP d1180       8.661 -12.657  16.837  0.00  0.00     0.110 C 
ATOM    161  C4  BDP d1180       8.718 -11.167  18.930  0.00  0.00     0.103 C 
ATOM    162  H   BDP d1180       6.276 -12.888  17.637  0.00  0.00     0.210 HD
ATOM    163  H   BDP d1180      10.143 -11.375  15.992  0.00  0.00     0.133 H 
ATOM    164  H   BDP d1180       8.505 -13.187  14.955  0.00  0.00     0.210 HD
ATOM    165  H   BDP d1180       7.514 -10.927  17.226  0.00  0.00     0.091 H 
ATOM    166  H   BDP d1180       9.963  -9.976  17.703  0.00  0.00     0.104 H 
ATOM    167  H   BDP d1180       8.679 -13.631  17.279  0.00  0.00     0.094 H 
ATOM    168  H   BDP d1180       8.827 -11.916  19.687  0.00  0.00     0.092 H 
ENDROOT
TORSDOF 43
ENDMDL
MODEL 52
REMARK VINA RESULT:      -5.9      6.648      8.299
REMARK  0 active torsions:
REMARK  status: ('A' for Active; 'I' for Inactive)
REMARK       I    between atoms: C1_1  and  O3_15 
REMARK       I    between atoms: C1_2  and  O3_93 
REMARK       I    between atoms: C6_3  and  C5_89 
REMARK       I    between atoms: C6_3  and  O6_76 
REMARK       I    between atoms: O3_4  and  C3_22 
REMARK       I    between atoms: C6_5  and  C5_48 
REMARK       I    between atoms: C6_5  and  O6_31 
REMARK       I    between atoms: C4_6  and  O4_74 
REMARK       I    between atoms: C7_7  and  C8_62 
REMARK       I    between atoms: C7_7  and  N2_60 
REMARK       I    between atoms: C6_8  and  C5_52 
REMARK       I    between atoms: C3_9  and  O3_38 
REMARK       I    between atoms: C1_10  and  O4_75 
REMARK       I    between atoms: C6_12  and  C5_51 
REMARK       I    between atoms: O3_13  and  C3_42 
REMARK       I    between atoms: O4_14  and  C4_84 
REMARK       I    between atoms: O3_15  and  C3_86 
REMARK       I    between atoms: C6_16  and  C5_23 
REMARK       I    between atoms: C6_16  and  O6_58 
REMARK       I    between atoms: C1_17  and  O3_63 
REMARK       I    between atoms: C2_18  and  N2_60 
REMARK       I    between atoms: C2_19  and  N2_53 
REMARK       I    between atoms: O2_20  and  C2_66 
REMARK       I    between atoms: C3_25  and  O3_93 
REMARK       I    between atoms: C7_26  and  C8_32 
REMARK       I    between atoms: C7_26  and  N2_37 
REMARK       I    between atoms: C2_28  and  N2_44 
REMARK       I    between atoms: C7_29  and  C8_54 
REMARK       I    between atoms: C7_29  and  N2_53 
REMARK       I    between atoms: O1_33  and  C1_80 
REMARK       I    between atoms: O4_34  and  C4_40 
REMARK       I    between atoms: O4_34  and  C1_92 
REMARK       I    between atoms: C7_36  and  C8_81 
REMARK       I    between atoms: C7_36  and  N2_44 
REMARK       I    between atoms: N2_37  and  C2_83 
REMARK       I    between atoms: O3_39  and  C3_61 
REMARK       I    between atoms: C1_41  and  O4_46 
REMARK       I    between atoms: O2_43  and  C2_73 
REMARK       I    between atoms: C6_45  and  C5_87 
REMARK       I    between atoms: O4_46  and  C4_67 
REMARK       I    between atoms: C4_50  and  O4_65 
REMARK       I    between atoms: C2_55  and  O2_82 
REMARK       I    between atoms: O4_57  and  C4_71 
REMARK       I    between atoms: O3_63  and  C3_85 
REMARK       I    between atoms: O4_75  and  C4_91 
REMARK       I    between atoms: C5_77  and  C6_90 
REMARK       I    between atoms: O6_79  and  C6_90 
ROOT
ATOM      1  C1  BDP d1176      15.691 -13.778  16.929  0.00  0.00     0.160 C 
ATOM      2  O3  BDP d1176      16.422 -17.011  15.143  0.00  0.00    -0.390 OA
ATOM      3  O5  BDP d1176      14.806 -13.429  15.902  0.00  0.00    -0.340 OA
ATOM      4  O6A BDP d1176      13.238 -13.244  13.700  0.00  0.00    -0.646 OA
ATOM      5  C3  BDP d1176      16.502 -15.609  15.299  0.00  0.00     0.092 C 
ATOM      6  O4  BDP d1176      16.328 -14.973  13.004  0.00  0.00    -0.348 OA
ATOM      7  C4  BDP d1176      15.640 -14.939  14.239  0.00  0.00     0.103 C 
ATOM      8  C6  BDP d1176      14.408 -12.815  13.684  0.00  0.00     0.206 C 
ATOM      9  C2  BDP d1176      16.164 -15.225  16.738  0.00  0.00     0.110 C 
ATOM     10  O6B BDP d1176      14.839 -11.887  12.968  0.00  0.00    -0.646 OA
ATOM     11  O2  BDP d1176      17.348 -15.411  17.474  0.00  0.00    -0.388 OA
ATOM     12  C5  BDP d1176      15.380 -13.490  14.629  0.00  0.00     0.152 C 
ATOM     13  H   BDP d1176      16.554 -13.146  16.915  0.00  0.00     0.133 H 
ATOM     14  H   BDP d1176      16.971 -17.443  15.817  0.00  0.00     0.210 HD
ATOM     15  H   BDP d1176      17.499 -15.254  15.138  0.00  0.00     0.091 H 
ATOM     16  H   BDP d1176      14.706 -15.454  14.156  0.00  0.00     0.092 H 
ATOM     17  H   BDP d1176      15.344 -15.833  17.057  0.00  0.00     0.094 H 
ATOM     18  H   BDP d1176      18.040 -14.828  17.126  0.00  0.00     0.210 HD
ATOM     19  H   BDP d1176      16.327 -12.993  14.595  0.00  0.00     0.104 H 
ATOM     20  C1  BDP d1178      15.647 -16.118   7.358  0.00  0.00     0.160 C 
ATOM     21  C6  BDP d1178      13.047 -17.913   5.379  0.00  0.00     0.206 C 
ATOM     22  O6B BDP d1178      11.891 -17.606   5.001  0.00  0.00    -0.646 OA
ATOM     23  O6A BDP d1178      13.514 -19.079   5.355  0.00  0.00    -0.646 OA
ATOM     24  O3  BDP d1178      16.523 -14.820   3.975  0.00  0.00    -0.390 OA
ATOM     25  O2  BDP d1178      17.485 -14.751   6.608  0.00  0.00    -0.388 OA
ATOM     26  C5  BDP d1178      13.923 -16.760   5.871  0.00  0.00     0.152 C 
ATOM     27  C3  BDP d1178      15.718 -15.159   5.081  0.00  0.00     0.092 C 
ATOM     28  C2  BDP d1178      16.557 -15.724   6.200  0.00  0.00     0.110 C 
ATOM     29  O4  BDP d1178      13.731 -15.469   3.904  0.00  0.00    -0.348 OA
ATOM     30  O5  BDP d1178      14.787 -17.152   6.931  0.00  0.00    -0.340 OA
ATOM     31  C4  BDP d1178      14.663 -16.174   4.673  0.00  0.00     0.103 C 
ATOM     32  H   BDP d1178      15.015 -15.317   7.682  0.00  0.00     0.133 H 
ATOM     33  H   BDP d1178      17.191 -14.173   4.248  0.00  0.00     0.210 HD
ATOM     34  H   BDP d1178      18.029 -15.105   7.327  0.00  0.00     0.210 HD
ATOM     35  H   BDP d1178      13.309 -15.995   6.299  0.00  0.00     0.104 H 
ATOM     36  H   BDP d1178      15.236 -14.269   5.427  0.00  0.00     0.091 H 
ATOM     37  H   BDP d1178      17.087 -16.593   5.868  0.00  0.00     0.094 H 
ATOM     38  H   BDP d1178      15.133 -16.983   4.155  0.00  0.00     0.092 H 
ATOM     39  C6  NAG d1177      15.609 -19.601  12.159  0.00  0.00     0.043 C 
ATOM     40  O4  NAG d1177      15.398 -18.927   9.256  0.00  0.00    -0.390 OA
ATOM     41  C2  NAG d1177      16.318 -15.604  10.682  0.00  0.00     0.087 C 
ATOM     42  C3  NAG d1177      15.806 -16.629   9.679  0.00  0.00     0.093 C 
ATOM     43  C7  NAG d1177      16.759 -13.257  10.072  0.00  0.00     0.214 C 
ATOM     44  N2  NAG d1177      15.922 -14.280  10.224  0.00  0.00    -0.349 N 
ATOM     45  C8  NAG d1177      16.102 -11.915   9.962  0.00  0.00    -0.003 C 
ATOM     46  O7  NAG d1177      17.988 -13.362  10.005  0.00  0.00    -0.274 OA
ATOM     47  O6  NAG d1177      16.627 -19.590  13.142  0.00  0.00    -0.398 OA
ATOM     48  C4  NAG d1177      16.010 -18.050  10.182  0.00  0.00     0.089 C 
ATOM     49  O5  NAG d1177      15.991 -17.250  12.452  0.00  0.00    -0.349 OA
ATOM     50  C5  NAG d1177      15.412 -18.200  11.581  0.00  0.00     0.089 C 
ATOM     51  C1  NAG d1177      15.756 -15.903  12.073  0.00  0.00     0.154 C 
ATOM     52  O3  NAG d1177      16.495 -16.489   8.458  0.00  0.00    -0.348 OA
ATOM     53  H   NAG d1177      15.885 -20.272  11.372  0.00  0.00     0.078 H 
ATOM     54  H   NAG d1177      14.693 -19.923  12.610  0.00  0.00     0.078 H 
ATOM     55  H   NAG d1177      15.801 -18.805   8.382  0.00  0.00     0.210 HD
ATOM     56  H   NAG d1177      17.385 -15.648  10.751  0.00  0.00     0.084 H 
ATOM     57  H   NAG d1177      14.759 -16.453   9.546  0.00  0.00     0.091 H 
ATOM     58  H   NAG d1177      14.972 -14.132  10.013  0.00  0.00     0.163 HD
ATOM     59  H   NAG d1177      15.041 -12.029  10.043  0.00  0.00     0.040 H 
ATOM     60  H   NAG d1177      16.341 -11.477   9.015  0.00  0.00     0.040 H 
ATOM     61  H   NAG d1177      16.453 -11.279  10.748  0.00  0.00     0.040 H 
ATOM     62  H   NAG d1177      17.461 -19.299  12.741  0.00  0.00     0.209 HD
ATOM     63  H   NAG d1177      17.051 -18.285  10.259  0.00  0.00     0.091 H 
ATOM     64  H   NAG d1177      14.359 -18.035  11.491  0.00  0.00     0.090 H 
ATOM     65  H   NAG d1177      14.693 -15.783  12.064  0.00  0.00     0.132 H 
ATOM     66  C6  NAG d1175      12.535  -9.514  19.258  0.00  0.00     0.043 C 
ATOM     67  O3  NAG d1175      15.001 -13.624  18.189  0.00  0.00    -0.348 OA
ATOM     68  C2  NAG d1175      15.386 -12.549  20.295  0.00  0.00     0.087 C 
ATOM     69  O6  NAG d1175      12.559  -8.328  20.019  0.00  0.00    -0.398 OA
ATOM     70  O1  NAG d1175      15.364 -11.493  22.477  0.00  0.00    -0.369 OA
ATOM     71  C7  NAG d1175      16.876 -14.139  21.404  0.00  0.00     0.214 C 
ATOM     72  N2  NAG d1175      16.694 -13.157  20.519  0.00  0.00    -0.349 N 
ATOM     73  C5  NAG d1175      13.859 -10.240  19.471  0.00  0.00     0.089 C 
ATOM     74  O5  NAG d1175      13.957 -10.688  20.814  0.00  0.00    -0.349 OA
ATOM     75  C4  NAG d1175      13.990 -11.394  18.474  0.00  0.00     0.089 C 
ATOM     76  O4  NAG d1175      14.122 -10.822  17.186  0.00  0.00    -0.390 OA
ATOM     77  O7  NAG d1175      16.230 -15.194  21.379  0.00  0.00    -0.274 OA
ATOM     78  C1  NAG d1175      15.231 -11.247  21.091  0.00  0.00     0.151 C 
ATOM     79  C8  NAG d1175      17.936 -13.899  22.443  0.00  0.00    -0.003 C 
ATOM     80  C3  NAG d1175      15.166 -12.338  18.787  0.00  0.00     0.093 C 
ATOM     81  H   NAG d1175      11.726 -10.135  19.580  0.00  0.00     0.078 H 
ATOM     82  H   NAG d1175      12.400  -9.287  18.222  0.00  0.00     0.078 H 
ATOM     83  H   NAG d1175      14.627 -13.213  20.654  0.00  0.00     0.084 H 
ATOM     84  H   NAG d1175      12.683  -8.547  20.956  0.00  0.00     0.209 HD
ATOM     85  H   NAG d1175      16.238 -11.875  22.656  0.00  0.00     0.212 HD
ATOM     86  H   NAG d1175      17.466 -12.832  20.002  0.00  0.00     0.163 HD
ATOM     87  H   NAG d1175      14.670  -9.565  19.294  0.00  0.00     0.090 H 
ATOM     88  H   NAG d1175      13.118 -12.011  18.537  0.00  0.00     0.091 H 
ATOM     89  H   NAG d1175      14.919 -10.269  17.158  0.00  0.00     0.210 HD
ATOM     90  H   NAG d1175      15.998 -10.559  20.800  0.00  0.00     0.132 H 
ATOM     91  H   NAG d1175      18.373 -12.934  22.291  0.00  0.00     0.040 H 
ATOM     92  H   NAG d1175      18.694 -14.650  22.360  0.00  0.00     0.040 H 
ATOM     93  H   NAG d1175      17.497 -13.942  23.418  0.00  0.00     0.040 H 
ATOM     94  H   NAG d1175      16.020 -11.845  18.372  0.00  0.00     0.091 H 
ATOM     95  C4  NAG d1181       2.785 -15.182  -4.376  0.00  0.00     0.089 C 
ATOM     96  C3  NAG d1181       3.459 -16.469  -4.860  0.00  0.00     0.086 C 
ATOM     97  C6  NAG d1181       3.042 -13.057  -3.025  0.00  0.00     0.043 C 
ATOM     98  C5  NAG d1181       3.773 -14.218  -3.703  0.00  0.00     0.089 C 
ATOM     99  C7  NAG d1181       4.988 -19.388  -3.886  0.00  0.00     0.214 C 
ATOM    100  C8  NAG d1181       5.315 -19.695  -2.450  0.00  0.00    -0.003 C 
ATOM    101  N2  NAG d1181       5.185 -18.136  -4.297  0.00  0.00    -0.349 N 
ATOM    102  O3  NAG d1181       2.482 -17.438  -5.211  0.00  0.00    -0.391 OA
ATOM    103  C1  NAG d1181       5.316 -15.950  -3.225  0.00  0.00     0.154 C 
ATOM    104  O6  NAG d1181       3.933 -11.982  -2.811  0.00  0.00    -0.398 OA
ATOM    105  O5  NAG d1181       4.551 -14.882  -2.722  0.00  0.00    -0.349 OA
ATOM    106  O7  NAG d1181       4.555 -20.265  -4.639  0.00  0.00    -0.274 OA
ATOM    107  O4  NAG d1181       2.171 -14.540  -5.470  0.00  0.00    -0.390 OA
ATOM    108  C2  NAG d1181       4.391 -17.030  -3.782  0.00  0.00     0.087 C 
ATOM    109  H   NAG d1181       2.057 -15.455  -3.640  0.00  0.00     0.091 H 
ATOM    110  H   NAG d1181       4.042 -16.236  -5.726  0.00  0.00     0.090 H 
ATOM    111  H   NAG d1181       2.651 -13.386  -2.085  0.00  0.00     0.078 H 
ATOM    112  H   NAG d1181       2.243 -12.730  -3.656  0.00  0.00     0.078 H 
ATOM    113  H   NAG d1181       4.409 -13.844  -4.478  0.00  0.00     0.090 H 
ATOM    114  H   NAG d1181       5.674 -18.809  -1.969  0.00  0.00     0.040 H 
ATOM    115  H   NAG d1181       6.069 -20.454  -2.410  0.00  0.00     0.040 H 
ATOM    116  H   NAG d1181       4.434 -20.040  -1.949  0.00  0.00     0.040 H 
ATOM    117  H   NAG d1181       5.886 -17.954  -4.964  0.00  0.00     0.163 HD
ATOM    118  H   NAG d1181       1.948 -17.656  -4.431  0.00  0.00     0.210 HD
ATOM    119  H   NAG d1181       5.952 -15.555  -3.990  0.00  0.00     0.132 H 
ATOM    120  H   NAG d1181       4.660 -12.274  -2.239  0.00  0.00     0.209 HD
ATOM    121  H   NAG d1181       2.845 -14.301  -6.125  0.00  0.00     0.210 HD
ATOM    122  H   NAG d1181       3.768 -17.389  -2.989  0.00  0.00     0.084 H 
ATOM    123  C7  NAG d1179      10.490 -14.801   3.910  0.00  0.00     0.214 C 
ATOM    124  C1  NAG d1179      13.421 -16.065   2.633  0.00  0.00     0.154 C 
ATOM    125  C2  NAG d1179      12.104 -15.421   2.216  0.00  0.00     0.087 C 
ATOM    126  O5  NAG d1179      14.409 -15.812   1.657  0.00  0.00    -0.349 OA
ATOM    127  O7  NAG d1179      10.344 -13.643   3.522  0.00  0.00    -0.274 OA
ATOM    128  O4  NAG d1179      12.508 -16.029  -1.454  0.00  0.00    -0.390 OA
ATOM    129  N2  NAG d1179      11.050 -15.750   3.163  0.00  0.00    -0.349 N 
ATOM    130  C8  NAG d1179      10.024 -15.186   5.280  0.00  0.00    -0.003 C 
ATOM    131  O3  NAG d1179      10.649 -14.848   0.414  0.00  0.00    -0.348 OA
ATOM    132  C4  NAG d1179      12.861 -15.568  -0.166  0.00  0.00     0.089 C 
ATOM    133  C5  NAG d1179      14.080 -16.318   0.375  0.00  0.00     0.089 C 
ATOM    134  O6  NAG d1179      15.637 -14.831  -0.739  0.00  0.00    -0.398 OA
ATOM    135  C3  NAG d1179      11.681 -15.743   0.785  0.00  0.00     0.093 C 
ATOM    136  C6  NAG d1179      15.297 -16.191  -0.541  0.00  0.00     0.043 C 
ATOM    137  H   NAG d1179      13.366 -17.130   2.716  0.00  0.00     0.132 H 
ATOM    138  H   NAG d1179      12.274 -14.364   2.232  0.00  0.00     0.084 H 
ATOM    139  H   NAG d1179      11.734 -15.537  -1.772  0.00  0.00     0.210 HD
ATOM    140  H   NAG d1179      10.748 -16.683   3.252  0.00  0.00     0.163 HD
ATOM    141  H   NAG d1179      10.229 -16.222   5.449  0.00  0.00     0.040 H 
ATOM    142  H   NAG d1179       8.971 -15.012   5.361  0.00  0.00     0.040 H 
ATOM    143  H   NAG d1179      10.539 -14.598   6.010  0.00  0.00     0.040 H 
ATOM    144  H   NAG d1179      13.112 -14.531  -0.239  0.00  0.00     0.091 H 
ATOM    145  H   NAG d1179      13.821 -17.355   0.428  0.00  0.00     0.090 H 
ATOM    146  H   NAG d1179      16.411 -14.772  -1.322  0.00  0.00     0.209 HD
ATOM    147  H   NAG d1179      11.342 -16.756   0.730  0.00  0.00     0.091 H 
ATOM    148  H   NAG d1179      15.073 -16.639  -1.487  0.00  0.00     0.078 H 
ATOM    149  H   NAG d1179      16.126 -16.689  -0.081  0.00  0.00     0.078 H 
ATOM    150  C6  BDP d1180       8.766 -17.437  -3.063  0.00  0.00     0.206 C 
ATOM    151  O3  BDP d1180       6.172 -13.921  -0.761  0.00  0.00    -0.390 OA
ATOM    152  C1  BDP d1180       9.458 -15.529  -0.008  0.00  0.00     0.160 C 
ATOM    153  O2  BDP d1180       7.980 -14.564   1.579  0.00  0.00    -0.388 OA
ATOM    154  C3  BDP d1180       6.982 -15.055  -0.532  0.00  0.00     0.092 C 
ATOM    155  O4  BDP d1180       6.124 -16.551  -2.199  0.00  0.00    -0.348 OA
ATOM    156  O5  BDP d1180       9.568 -15.919  -1.359  0.00  0.00    -0.340 OA
ATOM    157  C5  BDP d1180       8.456 -16.690  -1.765  0.00  0.00     0.152 C 
ATOM    158  O6B BDP d1180       9.215 -16.781  -4.035  0.00  0.00    -0.646 OA
ATOM    159  O6A BDP d1180       8.567 -18.676  -3.079  0.00  0.00    -0.646 OA
ATOM    160  C2  BDP d1180       8.257 -14.606   0.195  0.00  0.00     0.110 C 
ATOM    161  C4  BDP d1180       7.246 -15.764  -1.864  0.00  0.00     0.103 C 
ATOM    162  H   BDP d1180       6.004 -13.468   0.081  0.00  0.00     0.210 HD
ATOM    163  H   BDP d1180       9.325 -16.413   0.578  0.00  0.00     0.133 H 
ATOM    164  H   BDP d1180       8.774 -14.282   2.060  0.00  0.00     0.210 HD
ATOM    165  H   BDP d1180       6.497 -15.771   0.098  0.00  0.00     0.091 H 
ATOM    166  H   BDP d1180       8.229 -17.450  -1.048  0.00  0.00     0.104 H 
ATOM    167  H   BDP d1180       8.521 -13.654  -0.215  0.00  0.00     0.094 H 
ATOM    168  H   BDP d1180       7.432 -15.016  -2.607  0.00  0.00     0.092 H 
ENDROOT
TORSDOF 43
ENDMDL
MODEL 53
REMARK VINA RESULT:      -5.8      5.079      6.619
REMARK  0 active torsions:
REMARK  status: ('A' for Active; 'I' for Inactive)
REMARK       I    between atoms: C1_1  and  O3_15 
REMARK       I    between atoms: C1_2  and  O3_93 
REMARK       I    between atoms: C6_3  and  C5_89 
REMARK       I    between atoms: C6_3  and  O6_76 
REMARK       I    between atoms: O3_4  and  C3_22 
REMARK       I    between atoms: C6_5  and  C5_48 
REMARK       I    between atoms: C6_5  and  O6_31 
REMARK       I    between atoms: C4_6  and  O4_74 
REMARK       I    between atoms: C7_7  and  C8_62 
REMARK       I    between atoms: C7_7  and  N2_60 
REMARK       I    between atoms: C6_8  and  C5_52 
REMARK       I    between atoms: C3_9  and  O3_38 
REMARK       I    between atoms: C1_10  and  O4_75 
REMARK       I    between atoms: C6_12  and  C5_51 
REMARK       I    between atoms: O3_13  and  C3_42 
REMARK       I    between atoms: O4_14  and  C4_84 
REMARK       I    between atoms: O3_15  and  C3_86 
REMARK       I    between atoms: C6_16  and  C5_23 
REMARK       I    between atoms: C6_16  and  O6_58 
REMARK       I    between atoms: C1_17  and  O3_63 
REMARK       I    between atoms: C2_18  and  N2_60 
REMARK       I    between atoms: C2_19  and  N2_53 
REMARK       I    between atoms: O2_20  and  C2_66 
REMARK       I    between atoms: C3_25  and  O3_93 
REMARK       I    between atoms: C7_26  and  C8_32 
REMARK       I    between atoms: C7_26  and  N2_37 
REMARK       I    between atoms: C2_28  and  N2_44 
REMARK       I    between atoms: C7_29  and  C8_54 
REMARK       I    between atoms: C7_29  and  N2_53 
REMARK       I    between atoms: O1_33  and  C1_80 
REMARK       I    between atoms: O4_34  and  C4_40 
REMARK       I    between atoms: O4_34  and  C1_92 
REMARK       I    between atoms: C7_36  and  C8_81 
REMARK       I    between atoms: C7_36  and  N2_44 
REMARK       I    between atoms: N2_37  and  C2_83 
REMARK       I    between atoms: O3_39  and  C3_61 
REMARK       I    between atoms: C1_41  and  O4_46 
REMARK       I    between atoms: O2_43  and  C2_73 
REMARK       I    between atoms: C6_45  and  C5_87 
REMARK       I    between atoms: O4_46  and  C4_67 
REMARK       I    between atoms: C4_50  and  O4_65 
REMARK       I    between atoms: C2_55  and  O2_82 
REMARK       I    between atoms: O4_57  and  C4_71 
REMARK       I    between atoms: O3_63  and  C3_85 
REMARK       I    between atoms: O4_75  and  C4_91 
REMARK       I    between atoms: C5_77  and  C6_90 
REMARK       I    between atoms: O6_79  and  C6_90 
ROOT
ATOM      1  C1  BDP d1176      12.935 -12.788  16.216  0.00  0.00     0.160 C 
ATOM      2  O3  BDP d1176      14.734 -15.603  14.480  0.00  0.00    -0.390 OA
ATOM      3  O5  BDP d1176      12.044 -12.714  15.139  0.00  0.00    -0.340 OA
ATOM      4  O6A BDP d1176      10.621 -12.987  12.849  0.00  0.00    -0.646 OA
ATOM      5  C3  BDP d1176      14.365 -14.248  14.638  0.00  0.00     0.092 C 
ATOM      6  O4  BDP d1176      14.131 -13.659  12.336  0.00  0.00    -0.348 OA
ATOM      7  C4  BDP d1176      13.397 -13.861  13.529  0.00  0.00     0.103 C 
ATOM      8  C6  BDP d1176      11.599 -12.216  12.901  0.00  0.00     0.206 C 
ATOM      9  C2  BDP d1176      13.844 -14.013  16.055  0.00  0.00     0.110 C 
ATOM     10  O6B BDP d1176      11.759 -11.188  12.210  0.00  0.00    -0.646 OA
ATOM     11  O2  BDP d1176      14.984 -13.834  16.860  0.00  0.00    -0.388 OA
ATOM     12  C5  BDP d1176      12.678 -12.571  13.901  0.00  0.00     0.152 C 
ATOM     13  H   BDP d1176      13.558 -11.919  16.252  0.00  0.00     0.133 H 
ATOM     14  H   BDP d1176      15.351 -15.854  15.185  0.00  0.00     0.210 HD
ATOM     15  H   BDP d1176      15.209 -13.598  14.536  0.00  0.00     0.091 H 
ATOM     16  H   BDP d1176      12.676 -14.639  13.392  0.00  0.00     0.092 H 
ATOM     17  H   BDP d1176      13.238 -14.851  16.326  0.00  0.00     0.094 H 
ATOM     18  H   BDP d1176      15.479 -13.059  16.551  0.00  0.00     0.210 HD
ATOM     19  H   BDP d1176      13.424 -11.804  13.922  0.00  0.00     0.104 H 
ATOM     20  C1  BDP d1178      14.155 -14.863   6.662  0.00  0.00     0.160 C 
ATOM     21  C6  BDP d1178      12.358 -17.342   4.537  0.00  0.00     0.206 C 
ATOM     22  O6B BDP d1178      11.187 -17.403   4.092  0.00  0.00    -0.646 OA
ATOM     23  O6A BDP d1178      13.165 -18.304   4.541  0.00  0.00    -0.646 OA
ATOM     24  O3  BDP d1178      14.772 -13.299   3.334  0.00  0.00    -0.390 OA
ATOM     25  O2  BDP d1178      15.516 -12.979   6.018  0.00  0.00    -0.388 OA
ATOM     26  C5  BDP d1178      12.803 -15.982   5.077  0.00  0.00     0.152 C 
ATOM     27  C3  BDP d1178      14.052 -13.890   4.392  0.00  0.00     0.092 C 
ATOM     28  C2  BDP d1178      14.961 -14.186   5.558  0.00  0.00     0.110 C 
ATOM     29  O4  BDP d1178      12.329 -14.782   3.101  0.00  0.00    -0.348 OA
ATOM     30  O5  BDP d1178      13.685 -16.105   6.187  0.00  0.00    -0.340 OA
ATOM     31  C4  BDP d1178      13.390 -15.175   3.924  0.00  0.00     0.103 C 
ATOM     32  H   BDP d1178      13.289 -14.303   6.947  0.00  0.00     0.133 H 
ATOM     33  H   BDP d1178      15.189 -12.481   3.645  0.00  0.00     0.210 HD
ATOM     34  H   BDP d1178      16.102 -13.159   6.769  0.00  0.00     0.210 HD
ATOM     35  H   BDP d1178      11.958 -15.454   5.468  0.00  0.00     0.104 H 
ATOM     36  H   BDP d1178      13.299 -13.200   4.708  0.00  0.00     0.091 H 
ATOM     37  H   BDP d1178      15.752 -14.841   5.260  0.00  0.00     0.094 H 
ATOM     38  H   BDP d1178      14.116 -15.790   3.435  0.00  0.00     0.092 H 
ATOM     39  C6  NAG d1177      14.935 -18.266  11.456  0.00  0.00     0.043 C 
ATOM     40  O4  NAG d1177      14.687 -17.641   8.546  0.00  0.00    -0.390 OA
ATOM     41  C2  NAG d1177      14.446 -14.222  10.019  0.00  0.00     0.087 C 
ATOM     42  C3  NAG d1177      14.336 -15.338   8.989  0.00  0.00     0.093 C 
ATOM     43  C7  NAG d1177      14.169 -11.844   9.433  0.00  0.00     0.214 C 
ATOM     44  N2  NAG d1177      13.684 -13.079   9.537  0.00  0.00    -0.349 N 
ATOM     45  C8  NAG d1177      13.134 -10.771   9.283  0.00  0.00    -0.003 C 
ATOM     46  O7  NAG d1177      15.371 -11.561   9.438  0.00  0.00    -0.274 OA
ATOM     47  O6  NAG d1177      15.843 -17.956  12.498  0.00  0.00    -0.398 OA
ATOM     48  C4  NAG d1177      14.943 -16.634   9.505  0.00  0.00     0.089 C 
ATOM     49  O5  NAG d1177      14.549 -15.918  11.769  0.00  0.00    -0.349 OA
ATOM     50  C5  NAG d1177      14.345 -16.986  10.867  0.00  0.00     0.089 C 
ATOM     51  C1  NAG d1177      13.929 -14.705  11.375  0.00  0.00     0.154 C 
ATOM     52  O3  NAG d1177      15.014 -14.970   7.810  0.00  0.00    -0.348 OA
ATOM     53  H   NAG d1177      15.450 -18.804  10.688  0.00  0.00     0.078 H 
ATOM     54  H   NAG d1177      14.141 -18.864  11.854  0.00  0.00     0.078 H 
ATOM     55  H   NAG d1177      15.080 -17.386   7.697  0.00  0.00     0.210 HD
ATOM     56  H   NAG d1177      15.468 -13.933  10.150  0.00  0.00     0.084 H 
ATOM     57  H   NAG d1177      13.295 -15.494   8.795  0.00  0.00     0.091 H 
ATOM     58  H   NAG d1177      12.749 -13.229   9.270  0.00  0.00     0.163 HD
ATOM     59  H   NAG d1177      12.159 -11.210   9.302  0.00  0.00     0.040 H 
ATOM     60  H   NAG d1177      13.278 -10.264   8.351  0.00  0.00     0.040 H 
ATOM     61  H   NAG d1177      13.225 -10.071  10.087  0.00  0.00     0.040 H 
ATOM     62  H   NAG d1177      16.566 -17.413  12.146  0.00  0.00     0.209 HD
ATOM     63  H   NAG d1177      16.000 -16.535   9.642  0.00  0.00     0.091 H 
ATOM     64  H   NAG d1177      13.299 -17.154  10.715  0.00  0.00     0.090 H 
ATOM     65  H   NAG d1177      12.884 -14.921  11.304  0.00  0.00     0.132 H 
ATOM     66  C6  NAG d1175       8.484  -9.755  18.352  0.00  0.00     0.043 C 
ATOM     67  O3  NAG d1175      12.161 -12.877  17.434  0.00  0.00    -0.348 OA
ATOM     68  C2  NAG d1175      12.075 -11.772  19.558  0.00  0.00     0.087 C 
ATOM     69  O6  NAG d1175       8.095  -8.634  19.112  0.00  0.00    -0.398 OA
ATOM     70  O1  NAG d1175      11.603 -10.813  21.733  0.00  0.00    -0.369 OA
ATOM     71  C7  NAG d1175      13.921 -12.840  20.753  0.00  0.00     0.214 C 
ATOM     72  N2  NAG d1175      13.492 -11.947  19.858  0.00  0.00    -0.349 N 
ATOM     73  C5  NAG d1175       9.953 -10.038  18.642  0.00  0.00     0.089 C 
ATOM     74  O5  NAG d1175      10.111 -10.456  19.990  0.00  0.00    -0.349 OA
ATOM     75  C4  NAG d1175      10.493 -11.076  17.657  0.00  0.00     0.089 C 
ATOM     76  O4  NAG d1175      10.512 -10.470  16.378  0.00  0.00    -0.390 OA
ATOM     77  O7  NAG d1175      13.638 -14.042  20.692  0.00  0.00    -0.274 OA
ATOM     78  C1  NAG d1175      11.478 -10.596  20.342  0.00  0.00     0.151 C 
ATOM     79  C8  NAG d1175      14.794 -12.300  21.852  0.00  0.00    -0.003 C 
ATOM     80  C3  NAG d1175      11.884 -11.614  18.039  0.00  0.00     0.093 C 
ATOM     81  H   NAG d1175       7.891 -10.603  18.627  0.00  0.00     0.078 H 
ATOM     82  H   NAG d1175       8.343  -9.564  17.309  0.00  0.00     0.078 H 
ATOM     83  H   NAG d1175      11.541 -12.645  19.872  0.00  0.00     0.084 H 
ATOM     84  H   NAG d1175       8.228  -8.820  20.055  0.00  0.00     0.209 HD
ATOM     85  H   NAG d1175      12.541 -10.907  21.963  0.00  0.00     0.212 HD
ATOM     86  H   NAG d1175      14.152 -11.390  19.386  0.00  0.00     0.163 HD
ATOM     87  H   NAG d1175      10.523  -9.141  18.512  0.00  0.00     0.090 H 
ATOM     88  H   NAG d1175       9.854 -11.935  17.669  0.00  0.00     0.091 H 
ATOM     89  H   NAG d1175      11.098  -9.697  16.395  0.00  0.00     0.210 HD
ATOM     90  H   NAG d1175      12.008  -9.699  20.095  0.00  0.00     0.132 H 
ATOM     91  H   NAG d1175      14.917 -11.244  21.725  0.00  0.00     0.040 H 
ATOM     92  H   NAG d1175      15.751 -12.776  21.814  0.00  0.00     0.040 H 
ATOM     93  H   NAG d1175      14.336 -12.493  22.800  0.00  0.00     0.040 H 
ATOM     94  H   NAG d1175      12.565 -10.873  17.674  0.00  0.00     0.091 H 
ATOM     95  C4  NAG d1181       2.317 -17.768  -5.804  0.00  0.00     0.089 C 
ATOM     96  C3  NAG d1181       3.385 -18.774  -6.247  0.00  0.00     0.086 C 
ATOM     97  C6  NAG d1181       1.825 -15.692  -4.443  0.00  0.00     0.043 C 
ATOM     98  C5  NAG d1181       2.918 -16.557  -5.076  0.00  0.00     0.089 C 
ATOM     99  C7  NAG d1181       5.689 -21.090  -5.182  0.00  0.00     0.214 C 
ATOM    100  C8  NAG d1181       6.014 -21.304  -3.728  0.00  0.00    -0.003 C 
ATOM    101  N2  NAG d1181       5.509 -19.831  -5.581  0.00  0.00    -0.349 N 
ATOM    102  O3  NAG d1181       2.778 -19.992  -6.653  0.00  0.00    -0.391 OA
ATOM    103  C1  NAG d1181       4.894 -17.732  -4.507  0.00  0.00     0.154 C 
ATOM    104  O6  NAG d1181       2.324 -14.397  -4.179  0.00  0.00    -0.398 OA
ATOM    105  O5  NAG d1181       3.807 -16.962  -4.050  0.00  0.00    -0.349 OA
ATOM    106  O7  NAG d1181       5.592 -22.044  -5.957  0.00  0.00    -0.274 OA
ATOM    107  O4  NAG d1181       1.596 -17.330  -6.934  0.00  0.00    -0.390 OA
ATOM    108  C2  NAG d1181       4.383 -19.036  -5.116  0.00  0.00     0.087 C 
ATOM    109  H   NAG d1181       1.670 -18.266  -5.112  0.00  0.00     0.091 H 
ATOM    110  H   NAG d1181       3.913 -18.357  -7.078  0.00  0.00     0.090 H 
ATOM    111  H   NAG d1181       1.504 -16.141  -3.527  0.00  0.00     0.078 H 
ATOM    112  H   NAG d1181       1.000 -15.618  -5.121  0.00  0.00     0.078 H 
ATOM    113  H   NAG d1181       3.448 -15.990  -5.813  0.00  0.00     0.090 H 
ATOM    114  H   NAG d1181       6.053 -20.359  -3.228  0.00  0.00     0.040 H 
ATOM    115  H   NAG d1181       6.963 -21.792  -3.644  0.00  0.00     0.040 H 
ATOM    116  H   NAG d1181       5.258 -21.914  -3.279  0.00  0.00     0.040 H 
ATOM    117  H   NAG d1181       6.155 -19.429  -6.207  0.00  0.00     0.163 HD
ATOM    118  H   NAG d1181       2.296 -20.378  -5.905  0.00  0.00     0.210 HD
ATOM    119  H   NAG d1181       5.416 -17.145  -5.234  0.00  0.00     0.132 H 
ATOM    120  H   NAG d1181       3.072 -14.459  -3.565  0.00  0.00     0.209 HD
ATOM    121  H   NAG d1181       2.198 -16.882  -7.548  0.00  0.00     0.210 HD
ATOM    122  H   NAG d1181       3.860 -19.583  -4.359  0.00  0.00     0.084 H 
ATOM    123  C7  NAG d1179       9.046 -15.153   2.917  0.00  0.00     0.214 C 
ATOM    124  C1  NAG d1179      12.291 -15.423   1.814  0.00  0.00     0.154 C 
ATOM    125  C2  NAG d1179      10.865 -15.213   1.321  0.00  0.00     0.087 C 
ATOM    126  O5  NAG d1179      13.205 -14.859   0.898  0.00  0.00    -0.349 OA
ATOM    127  O7  NAG d1179       8.569 -14.092   2.520  0.00  0.00    -0.274 OA
ATOM    128  O4  NAG d1179      11.643 -15.602  -2.319  0.00  0.00    -0.390 OA
ATOM    129  N2  NAG d1179       9.915 -15.869   2.205  0.00  0.00    -0.349 N 
ATOM    130  C8  NAG d1179       8.647 -15.687   4.258  0.00  0.00    -0.003 C 
ATOM    131  O3  NAG d1179       9.407 -15.089  -0.564  0.00  0.00    -0.348 OA
ATOM    132  C4  NAG d1179      11.762 -15.077  -1.013  0.00  0.00     0.089 C 
ATOM    133  C5  NAG d1179      13.121 -15.420  -0.401  0.00  0.00     0.089 C 
ATOM    134  O6  NAG d1179      14.199 -13.504  -1.424  0.00  0.00    -0.398 OA
ATOM    135  C3  NAG d1179      10.644 -15.626  -0.132  0.00  0.00     0.093 C 
ATOM    136  C6  NAG d1179      14.288 -14.906  -1.244  0.00  0.00     0.043 C 
ATOM    137  H   NAG d1179      12.566 -16.454   1.896  0.00  0.00     0.132 H 
ATOM    138  H   NAG d1179      10.696 -14.156   1.346  0.00  0.00     0.084 H 
ATOM    139  H   NAG d1179      10.773 -15.370  -2.682  0.00  0.00     0.210 HD
ATOM    140  H   NAG d1179       9.913 -16.851   2.278  0.00  0.00     0.163 HD
ATOM    141  H   NAG d1179       9.155 -16.611   4.440  0.00  0.00     0.040 H 
ATOM    142  H   NAG d1179       7.590 -15.851   4.277  0.00  0.00     0.040 H 
ATOM    143  H   NAG d1179       8.912 -14.981   5.016  0.00  0.00     0.040 H 
ATOM    144  H   NAG d1179      11.682 -14.012  -1.072  0.00  0.00     0.091 H 
ATOM    145  H   NAG d1179      13.195 -16.487  -0.361  0.00  0.00     0.090 H 
ATOM    146  H   NAG d1179      14.947 -13.198  -1.960  0.00  0.00     0.209 HD
ATOM    147  H   NAG d1179      10.640 -16.693  -0.206  0.00  0.00     0.091 H 
ATOM    148  H   NAG d1179      14.267 -15.384  -2.201  0.00  0.00     0.078 H 
ATOM    149  H   NAG d1179      15.203 -15.130  -0.736  0.00  0.00     0.078 H 
ATOM    150  C6  BDP d1180       8.621 -18.076  -4.142  0.00  0.00     0.206 C 
ATOM    151  O3  BDP d1180       4.937 -15.579  -1.999  0.00  0.00    -0.390 OA
ATOM    152  C1  BDP d1180       8.513 -16.099  -1.054  0.00  0.00     0.160 C 
ATOM    153  O2  BDP d1180       6.721 -15.669   0.444  0.00  0.00    -0.388 OA
ATOM    154  C3  BDP d1180       6.046 -16.410  -1.722  0.00  0.00     0.092 C 
ATOM    155  O4  BDP d1180       5.790 -18.069  -3.435  0.00  0.00    -0.348 OA
ATOM    156  O5  BDP d1180       8.813 -16.413  -2.396  0.00  0.00    -0.340 OA
ATOM    157  C5  BDP d1180       8.021 -17.484  -2.865  0.00  0.00     0.152 C 
ATOM    158  O6B BDP d1180       8.897 -17.296  -5.086  0.00  0.00    -0.646 OA
ATOM    159  O6A BDP d1180       8.817 -19.315  -4.168  0.00  0.00    -0.646 OA
ATOM    160  C2  BDP d1180       7.074 -15.599  -0.922  0.00  0.00     0.110 C 
ATOM    161  C4  BDP d1180       6.590 -16.978  -3.036  0.00  0.00     0.103 C 
ATOM    162  H   BDP d1180       4.589 -15.216  -1.169  0.00  0.00     0.210 HD
ATOM    163  H   BDP d1180       8.628 -16.991  -0.475  0.00  0.00     0.133 H 
ATOM    164  H   BDP d1180       7.360 -15.162   0.969  0.00  0.00     0.210 HD
ATOM    165  H   BDP d1180       5.773 -17.251  -1.120  0.00  0.00     0.091 H 
ATOM    166  H   BDP d1180       8.002 -18.289  -2.161  0.00  0.00     0.104 H 
ATOM    167  H   BDP d1180       7.051 -14.605  -1.317  0.00  0.00     0.094 H 
ATOM    168  H   BDP d1180       6.576 -16.197  -3.767  0.00  0.00     0.092 H 
ENDROOT
TORSDOF 43
ENDMDL
MODEL 54
REMARK VINA RESULT:      -5.7      5.879     17.903
REMARK  0 active torsions:
REMARK  status: ('A' for Active; 'I' for Inactive)
REMARK       I    between atoms: C1_1  and  O3_15 
REMARK       I    between atoms: C1_2  and  O3_93 
REMARK       I    between atoms: C6_3  and  C5_89 
REMARK       I    between atoms: C6_3  and  O6_76 
REMARK       I    between atoms: O3_4  and  C3_22 
REMARK       I    between atoms: C6_5  and  C5_48 
REMARK       I    between atoms: C6_5  and  O6_31 
REMARK       I    between atoms: C4_6  and  O4_74 
REMARK       I    between atoms: C7_7  and  C8_62 
REMARK       I    between atoms: C7_7  and  N2_60 
REMARK       I    between atoms: C6_8  and  C5_52 
REMARK       I    between atoms: C3_9  and  O3_38 
REMARK       I    between atoms: C1_10  and  O4_75 
REMARK       I    between atoms: C6_12  and  C5_51 
REMARK       I    between atoms: O3_13  and  C3_42 
REMARK       I    between atoms: O4_14  and  C4_84 
REMARK       I    between atoms: O3_15  and  C3_86 
REMARK       I    between atoms: C6_16  and  C5_23 
REMARK       I    between atoms: C6_16  and  O6_58 
REMARK       I    between atoms: C1_17  and  O3_63 
REMARK       I    between atoms: C2_18  and  N2_60 
REMARK       I    between atoms: C2_19  and  N2_53 
REMARK       I    between atoms: O2_20  and  C2_66 
REMARK       I    between atoms: C3_25  and  O3_93 
REMARK       I    between atoms: C7_26  and  C8_32 
REMARK       I    between atoms: C7_26  and  N2_37 
REMARK       I    between atoms: C2_28  and  N2_44 
REMARK       I    between atoms: C7_29  and  C8_54 
REMARK       I    between atoms: C7_29  and  N2_53 
REMARK       I    between atoms: O1_33  and  C1_80 
REMARK       I    between atoms: O4_34  and  C4_40 
REMARK       I    between atoms: O4_34  and  C1_92 
REMARK       I    between atoms: C7_36  and  C8_81 
REMARK       I    between atoms: C7_36  and  N2_44 
REMARK       I    between atoms: N2_37  and  C2_83 
REMARK       I    between atoms: O3_39  and  C3_61 
REMARK       I    between atoms: C1_41  and  O4_46 
REMARK       I    between atoms: O2_43  and  C2_73 
REMARK       I    between atoms: C6_45  and  C5_87 
REMARK       I    between atoms: O4_46  and  C4_67 
REMARK       I    between atoms: C4_50  and  O4_65 
REMARK       I    between atoms: C2_55  and  O2_82 
REMARK       I    between atoms: O4_57  and  C4_71 
REMARK       I    between atoms: O3_63  and  C3_85 
REMARK       I    between atoms: O4_75  and  C4_91 
REMARK       I    between atoms: C5_77  and  C6_90 
REMARK       I    between atoms: O6_79  and  C6_90 
ROOT
ATOM      1  C1  BDP d1176       3.312 -13.914  -5.064  0.00  0.00     0.160 C 
ATOM      2  O3  BDP d1176       4.975 -10.561  -4.655  0.00  0.00    -0.390 OA
ATOM      3  O5  BDP d1176       3.661 -14.231  -3.746  0.00  0.00    -0.340 OA
ATOM      4  O6A BDP d1176       4.562 -14.337  -1.192  0.00  0.00    -0.646 OA
ATOM      5  C3  BDP d1176       4.987 -11.967  -4.799  0.00  0.00     0.092 C 
ATOM      6  O4  BDP d1176       6.798 -12.472  -3.327  0.00  0.00    -0.348 OA
ATOM      7  C4  BDP d1176       5.397 -12.601  -3.478  0.00  0.00     0.103 C 
ATOM      8  C6  BDP d1176       5.279 -14.727  -2.135  0.00  0.00     0.206 C 
ATOM      9  C2  BDP d1176       3.646 -12.444  -5.351  0.00  0.00     0.110 C 
ATOM     10  O6B BDP d1176       6.171 -15.597  -2.067  0.00  0.00    -0.646 OA
ATOM     11  O2  BDP d1176       3.716 -12.264  -6.745  0.00  0.00    -0.388 OA
ATOM     12  C5  BDP d1176       5.025 -14.078  -3.479  0.00  0.00     0.152 C 
ATOM     13  H   BDP d1176       3.864 -14.516  -5.755  0.00  0.00     0.133 H 
ATOM     14  H   BDP d1176       4.715 -10.152  -5.495  0.00  0.00     0.210 HD
ATOM     15  H   BDP d1176       5.716 -12.280  -5.517  0.00  0.00     0.091 H 
ATOM     16  H   BDP d1176       4.892 -12.112  -2.671  0.00  0.00     0.092 H 
ATOM     17  H   BDP d1176       2.873 -11.882  -4.871  0.00  0.00     0.094 H 
ATOM     18  H   BDP d1176       4.438 -12.803  -7.104  0.00  0.00     0.210 HD
ATOM     19  H   BDP d1176       5.632 -14.542  -4.229  0.00  0.00     0.104 H 
ATOM     20  C1  BDP d1178      10.926 -11.022   0.482  0.00  0.00     0.160 C 
ATOM     21  C6  BDP d1178      10.920  -9.199   3.733  0.00  0.00     0.206 C 
ATOM     22  O6B BDP d1178      10.581  -9.520   4.897  0.00  0.00    -0.646 OA
ATOM     23  O6A BDP d1178      11.132  -8.020   3.356  0.00  0.00    -0.646 OA
ATOM     24  O3  BDP d1178      14.272 -12.092   1.730  0.00  0.00    -0.390 OA
ATOM     25  O2  BDP d1178      12.688 -12.284  -0.575  0.00  0.00    -0.388 OA
ATOM     26  C5  BDP d1178      11.101 -10.351   2.742  0.00  0.00     0.152 C 
ATOM     27  C3  BDP d1178      12.885 -11.844   1.746  0.00  0.00     0.092 C 
ATOM     28  C2  BDP d1178      12.420 -11.319   0.410  0.00  0.00     0.110 C 
ATOM     29  O4  BDP d1178      12.677 -11.529   4.045  0.00  0.00    -0.348 OA
ATOM     30  O5  BDP d1178      10.710  -9.993   1.422  0.00  0.00    -0.340 OA
ATOM     31  C4  BDP d1178      12.542 -10.842   2.834  0.00  0.00     0.103 C 
ATOM     32  H   BDP d1178      10.351 -11.860   0.816  0.00  0.00     0.133 H 
ATOM     33  H   BDP d1178      14.478 -12.733   1.032  0.00  0.00     0.210 HD
ATOM     34  H   BDP d1178      12.392 -11.956  -1.438  0.00  0.00     0.210 HD
ATOM     35  H   BDP d1178      10.448 -11.158   3.002  0.00  0.00     0.104 H 
ATOM     36  H   BDP d1178      12.384 -12.768   1.946  0.00  0.00     0.091 H 
ATOM     37  H   BDP d1178      12.938 -10.417   0.162  0.00  0.00     0.094 H 
ATOM     38  H   BDP d1178      13.181  -9.989   2.744  0.00  0.00     0.092 H 
ATOM     39  C6  NAG d1177       6.765  -7.828  -2.287  0.00  0.00     0.043 C 
ATOM     40  O4  NAG d1177       9.052  -8.339  -0.434  0.00  0.00    -0.390 OA
ATOM     41  C2  NAG d1177       8.641 -11.708  -1.982  0.00  0.00     0.087 C 
ATOM     42  C3  NAG d1177       9.094 -10.643  -0.993  0.00  0.00     0.093 C 
ATOM     43  C7  NAG d1177       9.546 -14.000  -1.972  0.00  0.00     0.214 C 
ATOM     44  N2  NAG d1177       8.872 -13.015  -1.384  0.00  0.00    -0.349 N 
ATOM     45  C8  NAG d1177       9.346 -15.354  -1.361  0.00  0.00    -0.003 C 
ATOM     46  O7  NAG d1177      10.303 -13.853  -2.937  0.00  0.00    -0.274 OA
ATOM     47  O6  NAG d1177       6.553  -7.865  -3.686  0.00  0.00    -0.398 OA
ATOM     48  C4  NAG d1177       8.709  -9.248  -1.461  0.00  0.00     0.089 C 
ATOM     49  O5  NAG d1177       6.902 -10.179  -2.750  0.00  0.00    -0.349 OA
ATOM     50  C5  NAG d1177       7.215  -9.199  -1.782  0.00  0.00     0.089 C 
ATOM     51  C1  NAG d1177       7.165 -11.508  -2.329  0.00  0.00     0.154 C 
ATOM     52  O3  NAG d1177      10.495 -10.689  -0.849  0.00  0.00    -0.348 OA
ATOM     53  H   NAG d1177       7.521  -7.105  -2.064  0.00  0.00     0.078 H 
ATOM     54  H   NAG d1177       5.848  -7.563  -1.802  0.00  0.00     0.078 H 
ATOM     55  H   NAG d1177      10.004  -8.396  -0.257  0.00  0.00     0.210 HD
ATOM     56  H   NAG d1177       9.197 -11.635  -2.893  0.00  0.00     0.084 H 
ATOM     57  H   NAG d1177       8.611 -10.844  -0.060  0.00  0.00     0.091 H 
ATOM     58  H   NAG d1177       8.506 -13.181  -0.486  0.00  0.00     0.163 HD
ATOM     59  H   NAG d1177       8.660 -15.279  -0.543  0.00  0.00     0.040 H 
ATOM     60  H   NAG d1177      10.284 -15.728  -1.007  0.00  0.00     0.040 H 
ATOM     61  H   NAG d1177       8.950 -16.023  -2.097  0.00  0.00     0.040 H 
ATOM     62  H   NAG d1177       7.379  -8.105  -4.133  0.00  0.00     0.209 HD
ATOM     63  H   NAG d1177       9.231  -8.985  -2.357  0.00  0.00     0.091 H 
ATOM     64  H   NAG d1177       6.692  -9.392  -0.870  0.00  0.00     0.090 H 
ATOM     65  H   NAG d1177       6.566 -11.661  -1.456  0.00  0.00     0.132 H 
ATOM     66  C6  NAG d1175      -0.123 -18.405  -3.800  0.00  0.00     0.043 C 
ATOM     67  O3  NAG d1175       1.898 -14.163  -5.228  0.00  0.00    -0.348 OA
ATOM     68  C2  NAG d1175       0.477 -15.346  -6.750  0.00  0.00     0.087 C 
ATOM     69  O6  NAG d1175      -0.650 -19.632  -4.250  0.00  0.00    -0.398 OA
ATOM     70  O1  NAG d1175      -1.243 -16.528  -7.984  0.00  0.00    -0.369 OA
ATOM     71  C7  NAG d1175       0.328 -13.777  -8.618  0.00  0.00     0.214 C 
ATOM     72  N2  NAG d1175       1.008 -14.711  -7.951  0.00  0.00    -0.349 N 
ATOM     73  C5  NAG d1175       0.420 -17.651  -5.009  0.00  0.00     0.089 C 
ATOM     74  O5  NAG d1175      -0.648 -17.279  -5.868  0.00  0.00    -0.349 OA
ATOM     75  C4  NAG d1175       1.231 -16.437  -4.550  0.00  0.00     0.089 C 
ATOM     76  O4  NAG d1175       2.394 -16.929  -3.909  0.00  0.00    -0.390 OA
ATOM     77  O7  NAG d1175      -0.094 -12.743  -8.085  0.00  0.00    -0.274 OA
ATOM     78  C1  NAG d1175      -0.175 -16.697  -7.073  0.00  0.00     0.151 C 
ATOM     79  C8  NAG d1175       0.109 -14.043 -10.082  0.00  0.00    -0.003 C 
ATOM     80  C3  NAG d1175       1.591 -15.476  -5.697  0.00  0.00     0.093 C 
ATOM     81  H   NAG d1175      -0.893 -17.830  -3.330  0.00  0.00     0.078 H 
ATOM     82  H   NAG d1175       0.658 -18.576  -3.089  0.00  0.00     0.078 H 
ATOM     83  H   NAG d1175      -0.297 -14.729  -6.342  0.00  0.00     0.084 H 
ATOM     84  H   NAG d1175      -1.356 -19.464  -4.894  0.00  0.00     0.209 HD
ATOM     85  H   NAG d1175      -0.910 -16.130  -8.803  0.00  0.00     0.212 HD
ATOM     86  H   NAG d1175       1.896 -14.981  -8.280  0.00  0.00     0.163 HD
ATOM     87  H   NAG d1175       1.076 -18.289  -5.563  0.00  0.00     0.090 H 
ATOM     88  H   NAG d1175       0.636 -15.853  -3.879  0.00  0.00     0.091 H 
ATOM     89  H   NAG d1175       2.913 -17.453  -4.539  0.00  0.00     0.210 HD
ATOM     90  H   NAG d1175       0.550 -17.342  -7.526  0.00  0.00     0.132 H 
ATOM     91  H   NAG d1175       0.548 -14.983 -10.344  0.00  0.00     0.040 H 
ATOM     92  H   NAG d1175       0.564 -13.266 -10.658  0.00  0.00     0.040 H 
ATOM     93  H   NAG d1175      -0.941 -14.071 -10.287  0.00  0.00     0.040 H 
ATOM     94  H   NAG d1175       2.455 -15.917  -6.151  0.00  0.00     0.091 H 
ATOM     95  C4  NAG d1181      13.126 -11.682  17.765  0.00  0.00     0.089 C 
ATOM     96  C3  NAG d1181      13.824 -10.348  17.484  0.00  0.00     0.086 C 
ATOM     97  C6  NAG d1181      12.314 -13.872  16.791  0.00  0.00     0.043 C 
ATOM     98  C5  NAG d1181      13.212 -12.651  16.577  0.00  0.00     0.089 C 
ATOM     99  C7  NAG d1181      13.720  -7.443  15.651  0.00  0.00     0.214 C 
ATOM    100  C8  NAG d1181      12.719  -7.211  14.552  0.00  0.00    -0.003 C 
ATOM    101  N2  NAG d1181      14.251  -8.663  15.737  0.00  0.00    -0.349 N 
ATOM    102  O3  NAG d1181      13.482  -9.392  18.477  0.00  0.00    -0.391 OA
ATOM    103  C1  NAG d1181      13.598 -10.902  15.028  0.00  0.00     0.154 C 
ATOM    104  O6  NAG d1181      12.725 -14.929  15.948  0.00  0.00    -0.398 OA
ATOM    105  O5  NAG d1181      12.817 -12.022  15.370  0.00  0.00    -0.349 OA
ATOM    106  O7  NAG d1181      14.025  -6.539  16.432  0.00  0.00    -0.274 OA
ATOM    107  O4  NAG d1181      13.705 -12.279  18.903  0.00  0.00    -0.390 OA
ATOM    108  C2  NAG d1181      13.446  -9.822  16.097  0.00  0.00     0.087 C 
ATOM    109  H   NAG d1181      12.089 -11.476  17.932  0.00  0.00     0.091 H 
ATOM    110  H   NAG d1181      14.881 -10.511  17.510  0.00  0.00     0.090 H 
ATOM    111  H   NAG d1181      11.302 -13.612  16.564  0.00  0.00     0.078 H 
ATOM    112  H   NAG d1181      12.389 -14.188  17.811  0.00  0.00     0.078 H 
ATOM    113  H   NAG d1181      14.234 -12.959  16.508  0.00  0.00     0.090 H 
ATOM    114  H   NAG d1181      12.593  -8.111  13.988  0.00  0.00     0.040 H 
ATOM    115  H   NAG d1181      13.071  -6.432  13.908  0.00  0.00     0.040 H 
ATOM    116  H   NAG d1181      11.780  -6.924  14.979  0.00  0.00     0.040 H 
ATOM    117  H   NAG d1181      15.210  -8.783  15.552  0.00  0.00     0.163 HD
ATOM    118  H   NAG d1181      12.525  -9.237  18.461  0.00  0.00     0.210 HD
ATOM    119  H   NAG d1181      14.613 -11.231  14.954  0.00  0.00     0.132 H 
ATOM    120  H   NAG d1181      12.659 -14.648  15.023  0.00  0.00     0.209 HD
ATOM    121  H   NAG d1181      14.643 -12.457  18.732  0.00  0.00     0.210 HD
ATOM    122  H   NAG d1181      12.418  -9.530  16.144  0.00  0.00     0.084 H 
ATOM    123  C7  NAG d1179      10.848 -12.300   6.692  0.00  0.00     0.214 C 
ATOM    124  C1  NAG d1179      13.494 -10.871   5.028  0.00  0.00     0.154 C 
ATOM    125  C2  NAG d1179      13.117 -11.531   6.348  0.00  0.00     0.087 C 
ATOM    126  O5  NAG d1179      14.875 -11.035   4.786  0.00  0.00    -0.349 OA
ATOM    127  O7  NAG d1179      11.155 -13.437   7.044  0.00  0.00    -0.274 OA
ATOM    128  O4  NAG d1179      16.298 -10.698   8.133  0.00  0.00    -0.390 OA
ATOM    129  N2  NAG d1179      11.716 -11.291   6.659  0.00  0.00    -0.349 N 
ATOM    130  C8  NAG d1179       9.437 -12.011   6.278  0.00  0.00    -0.003 C 
ATOM    131  O3  NAG d1179      13.783 -12.044   8.581  0.00  0.00    -0.348 OA
ATOM    132  C4  NAG d1179      15.483 -11.221   7.105  0.00  0.00     0.089 C 
ATOM    133  C5  NAG d1179      15.696 -10.466   5.792  0.00  0.00     0.089 C 
ATOM    134  O6  NAG d1179      17.599 -11.835   5.175  0.00  0.00    -0.398 OA
ATOM    135  C3  NAG d1179      14.017 -11.140   7.517  0.00  0.00     0.093 C 
ATOM    136  C6  NAG d1179      17.152 -10.500   5.328  0.00  0.00     0.043 C 
ATOM    137  H   NAG d1179      13.324  -9.815   5.016  0.00  0.00     0.132 H 
ATOM    138  H   NAG d1179      13.271 -12.581   6.209  0.00  0.00     0.084 H 
ATOM    139  H   NAG d1179      16.143 -11.194   8.953  0.00  0.00     0.210 HD
ATOM    140  H   NAG d1179      11.408 -10.375   6.847  0.00  0.00     0.163 HD
ATOM    141  H   NAG d1179       9.350 -10.980   6.006  0.00  0.00     0.040 H 
ATOM    142  H   NAG d1179       8.776 -12.222   7.093  0.00  0.00     0.040 H 
ATOM    143  H   NAG d1179       9.179 -12.624   5.441  0.00  0.00     0.040 H 
ATOM    144  H   NAG d1179      15.756 -12.244   6.950  0.00  0.00     0.091 H 
ATOM    145  H   NAG d1179      15.434  -9.442   5.964  0.00  0.00     0.090 H 
ATOM    146  H   NAG d1179      18.524 -11.835   4.880  0.00  0.00     0.209 HD
ATOM    147  H   NAG d1179      13.799 -10.137   7.819  0.00  0.00     0.091 H 
ATOM    148  H   NAG d1179      17.764 -10.006   6.053  0.00  0.00     0.078 H 
ATOM    149  H   NAG d1179      17.222 -10.004   4.382  0.00  0.00     0.078 H 
ATOM    150  C6  BDP d1180      15.358  -9.318  12.106  0.00  0.00     0.206 C 
ATOM    151  O3  BDP d1180      12.219 -13.043  12.921  0.00  0.00    -0.390 OA
ATOM    152  C1  BDP d1180      13.395 -11.378   9.792  0.00  0.00     0.160 C 
ATOM    153  O2  BDP d1180      11.313 -12.480  10.089  0.00  0.00    -0.388 OA
ATOM    154  C3  BDP d1180      12.425 -11.899  12.119  0.00  0.00     0.092 C 
ATOM    155  O4  BDP d1180      13.189 -10.337  13.771  0.00  0.00    -0.348 OA
ATOM    156  O5  BDP d1180      14.532 -10.906  10.480  0.00  0.00    -0.340 OA
ATOM    157  C5  BDP d1180      14.171 -10.149  11.616  0.00  0.00     0.152 C 
ATOM    158  O6B BDP d1180      16.451  -9.902  12.306  0.00  0.00    -0.646 OA
ATOM    159  O6A BDP d1180      15.174  -8.087  12.269  0.00  0.00    -0.646 OA
ATOM    160  C2  BDP d1180      12.597 -12.349  10.662  0.00  0.00     0.110 C 
ATOM    161  C4  BDP d1180      13.615 -11.106  12.668  0.00  0.00     0.103 C 
ATOM    162  H   BDP d1180      11.466 -13.549  12.576  0.00  0.00     0.210 HD
ATOM    163  H   BDP d1180      12.782 -10.534   9.555  0.00  0.00     0.133 H 
ATOM    164  H   BDP d1180      11.398 -12.765   9.166  0.00  0.00     0.210 HD
ATOM    165  H   BDP d1180      11.584 -11.237  12.146  0.00  0.00     0.091 H 
ATOM    166  H   BDP d1180      13.406  -9.439  11.381  0.00  0.00     0.104 H 
ATOM    167  H   BDP d1180      13.146 -13.266  10.691  0.00  0.00     0.094 H 
ATOM    168  H   BDP d1180      14.376 -11.802  12.951  0.00  0.00     0.092 H 
ENDROOT
TORSDOF 43
ENDMDL
MODEL 55
REMARK VINA RESULT:      -5.7      7.932     11.930
REMARK  0 active torsions:
REMARK  status: ('A' for Active; 'I' for Inactive)
REMARK       I    between atoms: C1_1  and  O3_15 
REMARK       I    between atoms: C1_2  and  O3_93 
REMARK       I    between atoms: C6_3  and  C5_89 
REMARK       I    between atoms: C6_3  and  O6_76 
REMARK       I    between atoms: O3_4  and  C3_22 
REMARK       I    between atoms: C6_5  and  C5_48 
REMARK       I    between atoms: C6_5  and  O6_31 
REMARK       I    between atoms: C4_6  and  O4_74 
REMARK       I    between atoms: C7_7  and  C8_62 
REMARK       I    between atoms: C7_7  and  N2_60 
REMARK       I    between atoms: C6_8  and  C5_52 
REMARK       I    between atoms: C3_9  and  O3_38 
REMARK       I    between atoms: C1_10  and  O4_75 
REMARK       I    between atoms: C6_12  and  C5_51 
REMARK       I    between atoms: O3_13  and  C3_42 
REMARK       I    between atoms: O4_14  and  C4_84 
REMARK       I    between atoms: O3_15  and  C3_86 
REMARK       I    between atoms: C6_16  and  C5_23 
REMARK       I    between atoms: C6_16  and  O6_58 
REMARK       I    between atoms: C1_17  and  O3_63 
REMARK       I    between atoms: C2_18  and  N2_60 
REMARK       I    between atoms: C2_19  and  N2_53 
REMARK       I    between atoms: O2_20  and  C2_66 
REMARK       I    between atoms: C3_25  and  O3_93 
REMARK       I    between atoms: C7_26  and  C8_32 
REMARK       I    between atoms: C7_26  and  N2_37 
REMARK       I    between atoms: C2_28  and  N2_44 
REMARK       I    between atoms: C7_29  and  C8_54 
REMARK       I    between atoms: C7_29  and  N2_53 
REMARK       I    between atoms: O1_33  and  C1_80 
REMARK       I    between atoms: O4_34  and  C4_40 
REMARK       I    between atoms: O4_34  and  C1_92 
REMARK       I    between atoms: C7_36  and  C8_81 
REMARK       I    between atoms: C7_36  and  N2_44 
REMARK       I    between atoms: N2_37  and  C2_83 
REMARK       I    between atoms: O3_39  and  C3_61 
REMARK       I    between atoms: C1_41  and  O4_46 
REMARK       I    between atoms: O2_43  and  C2_73 
REMARK       I    between atoms: C6_45  and  C5_87 
REMARK       I    between atoms: O4_46  and  C4_67 
REMARK       I    between atoms: C4_50  and  O4_65 
REMARK       I    between atoms: C2_55  and  O2_82 
REMARK       I    between atoms: O4_57  and  C4_71 
REMARK       I    between atoms: O3_63  and  C3_85 
REMARK       I    between atoms: O4_75  and  C4_91 
REMARK       I    between atoms: C5_77  and  C6_90 
REMARK       I    between atoms: O6_79  and  C6_90 
ROOT
ATOM      1  C1  BDP d1176      14.754 -13.829   8.923  0.00  0.00     0.160 C 
ATOM      2  O3  BDP d1176      13.593 -17.397   8.622  0.00  0.00    -0.390 OA
ATOM      3  O5  BDP d1176      13.866 -13.470   7.902  0.00  0.00    -0.340 OA
ATOM      4  O6A BDP d1176      12.015 -13.315   5.928  0.00  0.00    -0.646 OA
ATOM      5  C3  BDP d1176      14.286 -16.253   8.168  0.00  0.00     0.092 C 
ATOM      6  O4  BDP d1176      13.817 -16.441   5.834  0.00  0.00    -0.348 OA
ATOM      7  C4  BDP d1176      13.543 -15.658   6.980  0.00  0.00     0.103 C 
ATOM      8  C6  BDP d1176      13.211 -13.540   5.661  0.00  0.00     0.206 C 
ATOM      9  C2  BDP d1176      14.516 -15.289   9.329  0.00  0.00     0.110 C 
ATOM     10  O6B BDP d1176      13.793 -13.245   4.596  0.00  0.00    -0.646 OA
ATOM     11  O2  BDP d1176      15.659 -15.760  10.001  0.00  0.00    -0.388 OA
ATOM     12  C5  BDP d1176      14.019 -14.231   6.739  0.00  0.00     0.152 C 
ATOM     13  H   BDP d1176      15.767 -13.742   8.590  0.00  0.00     0.133 H 
ATOM     14  H   BDP d1176      14.063 -17.780   9.379  0.00  0.00     0.210 HD
ATOM     15  H   BDP d1176      15.263 -16.504   7.811  0.00  0.00     0.091 H 
ATOM     16  H   BDP d1176      12.492 -15.649   7.180  0.00  0.00     0.092 H 
ATOM     17  H   BDP d1176      13.628 -15.273   9.925  0.00  0.00     0.094 H 
ATOM     18  H   BDP d1176      16.418 -15.743   9.397  0.00  0.00     0.210 HD
ATOM     19  H   BDP d1176      15.044 -14.300   6.440  0.00  0.00     0.104 H 
ATOM     20  C1  BDP d1178      11.312 -18.962   1.249  0.00  0.00     0.160 C 
ATOM     21  C6  BDP d1178       7.793 -19.827   0.376  0.00  0.00     0.206 C 
ATOM     22  O6B BDP d1178       6.816 -19.149  -0.023  0.00  0.00    -0.646 OA
ATOM     23  O6A BDP d1178       7.710 -21.001   0.815  0.00  0.00    -0.646 OA
ATOM     24  O3  BDP d1178      11.760 -19.496  -2.413  0.00  0.00    -0.390 OA
ATOM     25  O2  BDP d1178      13.296 -19.006  -0.120  0.00  0.00    -0.388 OA
ATOM     26  C5  BDP d1178       9.163 -19.153   0.281  0.00  0.00     0.152 C 
ATOM     27  C3  BDP d1178      11.196 -19.002  -1.219  0.00  0.00     0.092 C 
ATOM     28  C2  BDP d1178      11.977 -19.480  -0.022  0.00  0.00     0.110 C 
ATOM     29  O4  BDP d1178       9.034 -18.693  -2.031  0.00  0.00    -0.348 OA
ATOM     30  O5  BDP d1178      10.023 -19.525   1.352  0.00  0.00    -0.340 OA
ATOM     31  C4  BDP d1178       9.749 -19.448  -1.096  0.00  0.00     0.103 C 
ATOM     32  H   BDP d1178      11.177 -17.901   1.244  0.00  0.00     0.133 H 
ATOM     33  H   BDP d1178      12.682 -19.204  -2.481  0.00  0.00     0.210 HD
ATOM     34  H   BDP d1178      13.807 -19.308   0.647  0.00  0.00     0.210 HD
ATOM     35  H   BDP d1178       9.054 -18.094   0.385  0.00  0.00     0.104 H 
ATOM     36  H   BDP d1178      11.234 -17.933  -1.251  0.00  0.00     0.091 H 
ATOM     37  H   BDP d1178      11.994 -20.550   0.011  0.00  0.00     0.094 H 
ATOM     38  H   BDP d1178       9.691 -20.505  -1.254  0.00  0.00     0.092 H 
ATOM     39  C6  NAG d1177      11.047 -20.111   7.062  0.00  0.00     0.043 C 
ATOM     40  O4  NAG d1177      10.408 -20.457   4.165  0.00  0.00    -0.390 OA
ATOM     41  C2  NAG d1177      12.956 -17.737   3.999  0.00  0.00     0.087 C 
ATOM     42  C3  NAG d1177      11.828 -18.658   3.555  0.00  0.00     0.093 C 
ATOM     43  C7  NAG d1177      14.164 -16.267   2.432  0.00  0.00     0.214 C 
ATOM     44  N2  NAG d1177      13.045 -16.634   3.052  0.00  0.00    -0.349 N 
ATOM     45  C8  NAG d1177      14.121 -14.905   1.808  0.00  0.00    -0.003 C 
ATOM     46  O7  NAG d1177      15.176 -16.969   2.339  0.00  0.00    -0.274 OA
ATOM     47  O6  NAG d1177      12.191 -20.258   7.884  0.00  0.00    -0.398 OA
ATOM     48  C4  NAG d1177      11.542 -19.730   4.596  0.00  0.00     0.089 C 
ATOM     49  O5  NAG d1177      12.434 -18.300   6.314  0.00  0.00    -0.349 OA
ATOM     50  C5  NAG d1177      11.313 -19.084   5.962  0.00  0.00     0.089 C 
ATOM     51  C1  NAG d1177      12.694 -17.232   5.418  0.00  0.00     0.154 C 
ATOM     52  O3  NAG d1177      12.178 -19.296   2.348  0.00  0.00    -0.348 OA
ATOM     53  H   NAG d1177      10.810 -21.053   6.616  0.00  0.00     0.078 H 
ATOM     54  H   NAG d1177      10.228 -19.773   7.663  0.00  0.00     0.078 H 
ATOM     55  H   NAG d1177      10.588 -20.852   3.298  0.00  0.00     0.210 HD
ATOM     56  H   NAG d1177      13.887 -18.265   4.013  0.00  0.00     0.084 H 
ATOM     57  H   NAG d1177      10.953 -18.055   3.425  0.00  0.00     0.091 H 
ATOM     58  H   NAG d1177      12.224 -16.128   2.858  0.00  0.00     0.163 HD
ATOM     59  H   NAG d1177      13.168 -14.456   1.995  0.00  0.00     0.040 H 
ATOM     60  H   NAG d1177      14.272 -14.992   0.752  0.00  0.00     0.040 H 
ATOM     61  H   NAG d1177      14.892 -14.294   2.230  0.00  0.00     0.040 H 
ATOM     62  H   NAG d1177      12.938 -20.564   7.347  0.00  0.00     0.209 HD
ATOM     63  H   NAG d1177      12.372 -20.397   4.699  0.00  0.00     0.091 H 
ATOM     64  H   NAG d1177      10.439 -18.472   5.877  0.00  0.00     0.090 H 
ATOM     65  H   NAG d1177      11.814 -16.624   5.426  0.00  0.00     0.132 H 
ATOM     66  C6  NAG d1175      14.366  -8.070   9.432  0.00  0.00     0.043 C 
ATOM     67  O3  NAG d1175      14.536 -12.940  10.041  0.00  0.00    -0.348 OA
ATOM     68  C2  NAG d1175      15.854 -11.541  11.471  0.00  0.00     0.087 C 
ATOM     69  O6  NAG d1175      15.073  -6.866   9.620  0.00  0.00    -0.398 OA
ATOM     70  O1  NAG d1175      16.828  -9.934  13.002  0.00  0.00    -0.369 OA
ATOM     71  C7  NAG d1175      16.773 -13.164  13.051  0.00  0.00     0.214 C 
ATOM     72  N2  NAG d1175      16.799 -12.586  11.848  0.00  0.00    -0.349 N 
ATOM     73  C5  NAG d1175      15.272  -9.222   9.847  0.00  0.00     0.089 C 
ATOM     74  O5  NAG d1175      15.512  -9.172  11.246  0.00  0.00    -0.349 OA
ATOM     75  C4  NAG d1175      14.654 -10.556   9.423  0.00  0.00     0.089 C 
ATOM     76  O4  NAG d1175      14.680 -10.599   8.008  0.00  0.00    -0.390 OA
ATOM     77  O7  NAG d1175      15.764 -13.710  13.513  0.00  0.00    -0.274 OA
ATOM     78  C1  NAG d1175      16.462 -10.144  11.652  0.00  0.00     0.151 C 
ATOM     79  C8  NAG d1175      18.062 -13.128  13.824  0.00  0.00    -0.003 C 
ATOM     80  C3  NAG d1175      15.366 -11.779  10.031  0.00  0.00     0.093 C 
ATOM     81  H   NAG d1175      13.481  -8.069  10.035  0.00  0.00     0.078 H 
ATOM     82  H   NAG d1175      14.079  -8.176   8.407  0.00  0.00     0.078 H 
ATOM     83  H   NAG d1175      15.005 -11.586  12.122  0.00  0.00     0.084 H 
ATOM     84  H   NAG d1175      15.328  -6.782  10.552  0.00  0.00     0.209 HD
ATOM     85  H   NAG d1175      17.477 -10.603  13.270  0.00  0.00     0.212 HD
ATOM     86  H   NAG d1175      17.477 -12.875  11.195  0.00  0.00     0.163 HD
ATOM     87  H   NAG d1175      16.217  -9.131   9.353  0.00  0.00     0.090 H 
ATOM     88  H   NAG d1175      13.652 -10.610   9.794  0.00  0.00     0.091 H 
ATOM     89  H   NAG d1175      15.599 -10.549   7.701  0.00  0.00     0.210 HD
ATOM     90  H   NAG d1175      17.345 -10.060  11.052  0.00  0.00     0.132 H 
ATOM     91  H   NAG d1175      18.807 -12.614  13.253  0.00  0.00     0.040 H 
ATOM     92  H   NAG d1175      18.390 -14.128  14.017  0.00  0.00     0.040 H 
ATOM     93  H   NAG d1175      17.908 -12.617  14.752  0.00  0.00     0.040 H 
ATOM     94  H   NAG d1175      16.212 -11.937   9.395  0.00  0.00     0.091 H 
ATOM     95  C4  NAG d1181      -2.504 -15.995  -8.963  0.00  0.00     0.089 C 
ATOM     96  C3  NAG d1181      -2.574 -17.524  -8.901  0.00  0.00     0.086 C 
ATOM     97  C6  NAG d1181      -1.052 -13.946  -8.651  0.00  0.00     0.043 C 
ATOM     98  C5  NAG d1181      -1.069 -15.467  -8.822  0.00  0.00     0.089 C 
ATOM     99  C7  NAG d1181      -2.207 -20.284  -6.886  0.00  0.00     0.214 C 
ATOM    100  C8  NAG d1181      -1.685 -20.198  -5.478  0.00  0.00    -0.003 C 
ATOM    101  N2  NAG d1181      -1.618 -19.509  -7.798  0.00  0.00    -0.349 N 
ATOM    102  O3  NAG d1181      -3.920 -17.952  -8.751  0.00  0.00    -0.391 OA
ATOM    103  C1  NAG d1181      -0.322 -17.446  -7.756  0.00  0.00     0.154 C 
ATOM    104  O6  NAG d1181       0.228 -13.437  -8.965  0.00  0.00    -0.398 OA
ATOM    105  O5  NAG d1181      -0.417 -16.043  -7.703  0.00  0.00    -0.349 OA
ATOM    106  O7  NAG d1181      -3.142 -21.037  -7.172  0.00  0.00    -0.274 OA
ATOM    107  O4  NAG d1181      -3.050 -15.555 -10.186  0.00  0.00    -0.390 OA
ATOM    108  C2  NAG d1181      -1.721 -18.058  -7.748  0.00  0.00     0.087 C 
ATOM    109  H   NAG d1181      -3.066 -15.612  -8.138  0.00  0.00     0.091 H 
ATOM    110  H   NAG d1181      -2.188 -17.914  -9.820  0.00  0.00     0.090 H 
ATOM    111  H   NAG d1181      -1.291 -13.701  -7.638  0.00  0.00     0.078 H 
ATOM    112  H   NAG d1181      -1.773 -13.511  -9.311  0.00  0.00     0.078 H 
ATOM    113  H   NAG d1181      -0.554 -15.738  -9.720  0.00  0.00     0.090 H 
ATOM    114  H   NAG d1181      -0.881 -19.494  -5.438  0.00  0.00     0.040 H 
ATOM    115  H   NAG d1181      -1.333 -21.160  -5.169  0.00  0.00     0.040 H 
ATOM    116  H   NAG d1181      -2.471 -19.879  -4.825  0.00  0.00     0.040 H 
ATOM    117  H   NAG d1181      -1.100 -19.930  -8.522  0.00  0.00     0.163 HD
ATOM    118  H   NAG d1181      -4.279 -17.603  -7.920  0.00  0.00     0.210 HD
ATOM    119  H   NAG d1181       0.204 -17.696  -8.654  0.00  0.00     0.132 H 
ATOM    120  H   NAG d1181       0.886 -13.829  -8.370  0.00  0.00     0.209 HD
ATOM    121  H   NAG d1181      -2.528 -15.912 -10.921  0.00  0.00     0.210 HD
ATOM    122  H   NAG d1181      -2.212 -17.776  -6.840  0.00  0.00     0.084 H 
ATOM    123  C7  NAG d1179       6.485 -16.585  -2.105  0.00  0.00     0.214 C 
ATOM    124  C1  NAG d1179       8.192 -19.457  -2.911  0.00  0.00     0.154 C 
ATOM    125  C2  NAG d1179       7.206 -18.444  -3.477  0.00  0.00     0.087 C 
ATOM    126  O5  NAG d1179       8.913 -20.065  -3.962  0.00  0.00    -0.349 OA
ATOM    127  O7  NAG d1179       6.741 -15.713  -2.934  0.00  0.00    -0.274 OA
ATOM    128  O4  NAG d1179       6.374 -20.382  -6.568  0.00  0.00    -0.390 OA
ATOM    129  N2  NAG d1179       6.388 -17.876  -2.416  0.00  0.00    -0.349 N 
ATOM    130  C8  NAG d1179       6.265 -16.201  -0.674  0.00  0.00    -0.003 C 
ATOM    131  O3  NAG d1179       5.717 -17.894  -5.259  0.00  0.00    -0.348 OA
ATOM    132  C4  NAG d1179       7.200 -19.742  -5.618  0.00  0.00     0.089 C 
ATOM    133  C5  NAG d1179       8.090 -20.751  -4.889  0.00  0.00     0.089 C 
ATOM    134  O6  NAG d1179       9.786 -20.686  -6.620  0.00  0.00    -0.398 OA
ATOM    135  C3  NAG d1179       6.339 -18.988  -4.610  0.00  0.00     0.093 C 
ATOM    136  C6  NAG d1179       8.973 -21.550  -5.846  0.00  0.00     0.043 C 
ATOM    137  H   NAG d1179       7.723 -20.260  -2.383  0.00  0.00     0.132 H 
ATOM    138  H   NAG d1179       7.798 -17.669  -3.918  0.00  0.00     0.084 H 
ATOM    139  H   NAG d1179       5.822 -19.721  -7.015  0.00  0.00     0.210 HD
ATOM    140  H   NAG d1179       5.759 -18.451  -1.924  0.00  0.00     0.163 HD
ATOM    141  H   NAG d1179       6.055 -17.078  -0.098  0.00  0.00     0.040 H 
ATOM    142  H   NAG d1179       5.438 -15.525  -0.609  0.00  0.00     0.040 H 
ATOM    143  H   NAG d1179       7.145 -15.727  -0.293  0.00  0.00     0.040 H 
ATOM    144  H   NAG d1179       7.833 -19.053  -6.136  0.00  0.00     0.091 H 
ATOM    145  H   NAG d1179       7.445 -21.443  -4.387  0.00  0.00     0.090 H 
ATOM    146  H   NAG d1179      10.338 -21.212  -7.219  0.00  0.00     0.209 HD
ATOM    147  H   NAG d1179       5.607 -19.658  -4.213  0.00  0.00     0.091 H 
ATOM    148  H   NAG d1179       8.351 -22.125  -6.500  0.00  0.00     0.078 H 
ATOM    149  H   NAG d1179       9.606 -22.195  -5.272  0.00  0.00     0.078 H 
ATOM    150  C6  BDP d1180       2.112 -20.257  -7.198  0.00  0.00     0.206 C 
ATOM    151  O3  BDP d1180       1.896 -15.382  -6.434  0.00  0.00    -0.390 OA
ATOM    152  C1  BDP d1180       4.286 -18.011  -5.280  0.00  0.00     0.160 C 
ATOM    153  O2  BDP d1180       3.800 -15.976  -4.157  0.00  0.00    -0.388 OA
ATOM    154  C3  BDP d1180       2.189 -16.610  -5.799  0.00  0.00     0.092 C 
ATOM    155  O4  BDP d1180       0.394 -17.970  -6.625  0.00  0.00    -0.348 OA
ATOM    156  O5  BDP d1180       3.877 -18.839  -6.345  0.00  0.00    -0.340 OA
ATOM    157  C5  BDP d1180       2.482 -19.061  -6.319  0.00  0.00     0.152 C 
ATOM    158  O6B BDP d1180       2.531 -20.278  -8.382  0.00  0.00    -0.646 OA
ATOM    159  O6A BDP d1180       1.418 -21.164  -6.679  0.00  0.00    -0.646 OA
ATOM    160  C2  BDP d1180       3.673 -16.616  -5.409  0.00  0.00     0.110 C 
ATOM    161  C4  BDP d1180       1.786 -17.764  -6.723  0.00  0.00     0.103 C 
ATOM    162  H   BDP d1180       2.151 -14.649  -5.852  0.00  0.00     0.210 HD
ATOM    163  H   BDP d1180       3.950 -18.459  -4.369  0.00  0.00     0.133 H 
ATOM    164  H   BDP d1180       4.733 -15.968  -3.891  0.00  0.00     0.210 HD
ATOM    165  H   BDP d1180       1.627 -16.737  -4.898  0.00  0.00     0.091 H 
ATOM    166  H   BDP d1180       2.149 -19.319  -5.335  0.00  0.00     0.104 H 
ATOM    167  H   BDP d1180       4.196 -16.117  -6.197  0.00  0.00     0.094 H 
ATOM    168  H   BDP d1180       2.071 -17.505  -7.721  0.00  0.00     0.092 H 
ENDROOT
TORSDOF 43
ENDMDL
MODEL 56
REMARK VINA RESULT:      -5.7      3.290      4.061
REMARK  0 active torsions:
REMARK  status: ('A' for Active; 'I' for Inactive)
REMARK       I    between atoms: C1_1  and  O3_15 
REMARK       I    between atoms: C1_2  and  O3_93 
REMARK       I    between atoms: C6_3  and  C5_89 
REMARK       I    between atoms: C6_3  and  O6_76 
REMARK       I    between atoms: O3_4  and  C3_22 
REMARK       I    between atoms: C6_5  and  C5_48 
REMARK       I    between atoms: C6_5  and  O6_31 
REMARK       I    between atoms: C4_6  and  O4_74 
REMARK       I    between atoms: C7_7  and  C8_62 
REMARK       I    between atoms: C7_7  and  N2_60 
REMARK       I    between atoms: C6_8  and  C5_52 
REMARK       I    between atoms: C3_9  and  O3_38 
REMARK       I    between atoms: C1_10  and  O4_75 
REMARK       I    between atoms: C6_12  and  C5_51 
REMARK       I    between atoms: O3_13  and  C3_42 
REMARK       I    between atoms: O4_14  and  C4_84 
REMARK       I    between atoms: O3_15  and  C3_86 
REMARK       I    between atoms: C6_16  and  C5_23 
REMARK       I    between atoms: C6_16  and  O6_58 
REMARK       I    between atoms: C1_17  and  O3_63 
REMARK       I    between atoms: C2_18  and  N2_60 
REMARK       I    between atoms: C2_19  and  N2_53 
REMARK       I    between atoms: O2_20  and  C2_66 
REMARK       I    between atoms: C3_25  and  O3_93 
REMARK       I    between atoms: C7_26  and  C8_32 
REMARK       I    between atoms: C7_26  and  N2_37 
REMARK       I    between atoms: C2_28  and  N2_44 
REMARK       I    between atoms: C7_29  and  C8_54 
REMARK       I    between atoms: C7_29  and  N2_53 
REMARK       I    between atoms: O1_33  and  C1_80 
REMARK       I    between atoms: O4_34  and  C4_40 
REMARK       I    between atoms: O4_34  and  C1_92 
REMARK       I    between atoms: C7_36  and  C8_81 
REMARK       I    between atoms: C7_36  and  N2_44 
REMARK       I    between atoms: N2_37  and  C2_83 
REMARK       I    between atoms: O3_39  and  C3_61 
REMARK       I    between atoms: C1_41  and  O4_46 
REMARK       I    between atoms: O2_43  and  C2_73 
REMARK       I    between atoms: C6_45  and  C5_87 
REMARK       I    between atoms: O4_46  and  C4_67 
REMARK       I    between atoms: C4_50  and  O4_65 
REMARK       I    between atoms: C2_55  and  O2_82 
REMARK       I    between atoms: O4_57  and  C4_71 
REMARK       I    between atoms: O3_63  and  C3_85 
REMARK       I    between atoms: O4_75  and  C4_91 
REMARK       I    between atoms: C5_77  and  C6_90 
REMARK       I    between atoms: O6_79  and  C6_90 
ROOT
ATOM      1  C1  BDP d1176       9.078 -18.402  18.153  0.00  0.00     0.160 C 
ATOM      2  O3  BDP d1176      12.600 -17.676  17.039  0.00  0.00    -0.390 OA
ATOM      3  O5  BDP d1176       8.664 -18.367  16.817  0.00  0.00    -0.340 OA
ATOM      4  O6A BDP d1176       8.399 -18.196  14.125  0.00  0.00    -0.646 OA
ATOM      5  C3  BDP d1176      11.251 -17.323  17.272  0.00  0.00     0.092 C 
ATOM      6  O4  BDP d1176      10.906 -15.919  15.372  0.00  0.00    -0.348 OA
ATOM      7  C4  BDP d1176      10.539 -17.163  15.937  0.00  0.00     0.103 C 
ATOM      8  C6  BDP d1176       8.274 -17.183  14.841  0.00  0.00     0.206 C 
ATOM      9  C2  BDP d1176      10.608 -18.327  18.226  0.00  0.00     0.110 C 
ATOM     10  O6B BDP d1176       7.583 -16.178  14.575  0.00  0.00    -0.646 OA
ATOM     11  O2  BDP d1176      10.977 -17.920  19.521  0.00  0.00    -0.388 OA
ATOM     12  C5  BDP d1176       9.032 -17.194  16.151  0.00  0.00     0.152 C 
ATOM     13  H   BDP d1176       8.683 -17.567  18.693  0.00  0.00     0.133 H 
ATOM     14  H   BDP d1176      13.058 -17.779  17.888  0.00  0.00     0.210 HD
ATOM     15  H   BDP d1176      11.175 -16.376  17.764  0.00  0.00     0.091 H 
ATOM     16  H   BDP d1176      10.818 -17.962  15.281  0.00  0.00     0.092 H 
ATOM     17  H   BDP d1176      10.950 -19.304  17.956  0.00  0.00     0.094 H 
ATOM     18  H   BDP d1176      10.632 -17.029  19.689  0.00  0.00     0.210 HD
ATOM     19  H   BDP d1176       8.790 -16.320  16.720  0.00  0.00     0.104 H 
ATOM     20  C1  BDP d1178      12.594 -13.399  10.427  0.00  0.00     0.160 C 
ATOM     21  C6  BDP d1178      13.950 -14.685   7.202  0.00  0.00     0.206 C 
ATOM     22  O6B BDP d1178      13.423 -15.251   6.214  0.00  0.00    -0.646 OA
ATOM     23  O6A BDP d1178      15.186 -14.636   7.416  0.00  0.00    -0.646 OA
ATOM     24  O3  BDP d1178      12.013 -10.372   8.330  0.00  0.00    -0.390 OA
ATOM     25  O2  BDP d1178      11.828 -11.188  11.006  0.00  0.00    -0.388 OA
ATOM     26  C5  BDP d1178      12.989 -13.997   8.174  0.00  0.00     0.152 C 
ATOM     27  C3  BDP d1178      11.994 -11.731   8.705  0.00  0.00     0.092 C 
ATOM     28  C2  BDP d1178      12.592 -11.915  10.077  0.00  0.00     0.110 C 
ATOM     29  O4  BDP d1178      11.966 -12.621   6.552  0.00  0.00    -0.348 OA
ATOM     30  O5  BDP d1178      13.435 -14.080   9.523  0.00  0.00    -0.340 OA
ATOM     31  C4  BDP d1178      12.767 -12.565   7.697  0.00  0.00     0.103 C 
ATOM     32  H   BDP d1178      11.628 -13.849  10.336  0.00  0.00     0.133 H 
ATOM     33  H   BDP d1178      11.517  -9.851   8.980  0.00  0.00     0.210 HD
ATOM     34  H   BDP d1178      12.205 -11.300  11.893  0.00  0.00     0.210 HD
ATOM     35  H   BDP d1178      12.048 -14.506   8.174  0.00  0.00     0.104 H 
ATOM     36  H   BDP d1178      10.976 -12.056   8.726  0.00  0.00     0.091 H 
ATOM     37  H   BDP d1178      13.599 -11.555  10.098  0.00  0.00     0.094 H 
ATOM     38  H   BDP d1178      13.728 -12.124   7.536  0.00  0.00     0.092 H 
ATOM     39  C6  NAG d1177      15.289 -17.232  14.064  0.00  0.00     0.043 C 
ATOM     40  O4  NAG d1177      14.978 -15.484  11.662  0.00  0.00    -0.390 OA
ATOM     41  C2  NAG d1177      11.819 -14.722  13.495  0.00  0.00     0.087 C 
ATOM     42  C3  NAG d1177      12.813 -14.796  12.345  0.00  0.00     0.093 C 
ATOM     43  C7  NAG d1177       9.754 -13.383  13.381  0.00  0.00     0.214 C 
ATOM     44  N2  NAG d1177      10.512 -14.387  12.949  0.00  0.00    -0.349 N 
ATOM     45  C8  NAG d1177       8.319 -13.446  12.953  0.00  0.00    -0.003 C 
ATOM     46  O7  NAG d1177      10.162 -12.441  14.069  0.00  0.00    -0.274 OA
ATOM     47  O6  NAG d1177      15.395 -17.041  15.464  0.00  0.00    -0.398 OA
ATOM     48  C4  NAG d1177      14.161 -15.330  12.806  0.00  0.00     0.089 C 
ATOM     49  O5  NAG d1177      13.084 -16.471  14.631  0.00  0.00    -0.349 OA
ATOM     50  C5  NAG d1177      13.972 -16.653  13.548  0.00  0.00     0.089 C 
ATOM     51  C1  NAG d1177      11.784 -16.054  14.246  0.00  0.00     0.154 C 
ATOM     52  O3  NAG d1177      13.010 -13.512  11.799  0.00  0.00    -0.348 OA
ATOM     53  H   NAG d1177      16.105 -16.740  13.579  0.00  0.00     0.078 H 
ATOM     54  H   NAG d1177      15.314 -18.281  13.853  0.00  0.00     0.078 H 
ATOM     55  H   NAG d1177      15.076 -14.627  11.218  0.00  0.00     0.210 HD
ATOM     56  H   NAG d1177      12.112 -13.967  14.196  0.00  0.00     0.084 H 
ATOM     57  H   NAG d1177      12.407 -15.461  11.611  0.00  0.00     0.091 H 
ATOM     58  H   NAG d1177      10.166 -14.940  12.212  0.00  0.00     0.163 HD
ATOM     59  H   NAG d1177       8.159 -14.328  12.369  0.00  0.00     0.040 H 
ATOM     60  H   NAG d1177       8.083 -12.583  12.366  0.00  0.00     0.040 H 
ATOM     61  H   NAG d1177       7.688 -13.472  13.817  0.00  0.00     0.040 H 
ATOM     62  H   NAG d1177      15.372 -16.092  15.664  0.00  0.00     0.209 HD
ATOM     63  H   NAG d1177      14.630 -14.652  13.488  0.00  0.00     0.091 H 
ATOM     64  H   NAG d1177      13.569 -17.351  12.845  0.00  0.00     0.090 H 
ATOM     65  H   NAG d1177      11.411 -16.821  13.600  0.00  0.00     0.132 H 
ATOM     66  C6  NAG d1175       3.901 -21.002  18.273  0.00  0.00     0.043 C 
ATOM     67  O3  NAG d1175       8.593 -19.630  18.742  0.00  0.00    -0.348 OA
ATOM     68  C2  NAG d1175       7.373 -20.293  20.694  0.00  0.00     0.087 C 
ATOM     69  O6  NAG d1175       2.666 -21.110  18.942  0.00  0.00    -0.398 OA
ATOM     70  O1  NAG d1175       6.061 -21.314  22.458  0.00  0.00    -0.369 OA
ATOM     71  C7  NAG d1175       9.115 -20.260  22.408  0.00  0.00     0.214 C 
ATOM     72  N2  NAG d1175       8.245 -19.603  21.638  0.00  0.00    -0.349 N 
ATOM     73  C5  NAG d1175       4.892 -20.326  19.213  0.00  0.00     0.089 C 
ATOM     74  O5  NAG d1175       5.168 -21.172  20.319  0.00  0.00    -0.349 OA
ATOM     75  C4  NAG d1175       6.166 -19.952  18.451  0.00  0.00     0.089 C 
ATOM     76  O4  NAG d1175       5.821 -18.930  17.533  0.00  0.00    -0.390 OA
ATOM     77  O7  NAG d1175       9.974 -21.023  21.952  0.00  0.00    -0.274 OA
ATOM     78  C1  NAG d1175       5.977 -20.525  21.288  0.00  0.00     0.151 C 
ATOM     79  C8  NAG d1175       9.003 -20.008  23.887  0.00  0.00    -0.003 C 
ATOM     80  C3  NAG d1175       7.318 -19.507  19.372  0.00  0.00     0.093 C 
ATOM     81  H   NAG d1175       4.258 -21.976  18.010  0.00  0.00     0.078 H 
ATOM     82  H   NAG d1175       3.789 -20.427  17.378  0.00  0.00     0.078 H 
ATOM     83  H   NAG d1175       7.777 -21.262  20.489  0.00  0.00     0.084 H 
ATOM     84  H   NAG d1175       2.782 -21.632  19.752  0.00  0.00     0.209 HD
ATOM     85  H   NAG d1175       6.617 -20.864  23.113  0.00  0.00     0.212 HD
ATOM     86  H   NAG d1175       8.190 -18.623  21.710  0.00  0.00     0.163 HD
ATOM     87  H   NAG d1175       4.465 -19.422  19.593  0.00  0.00     0.090 H 
ATOM     88  H   NAG d1175       6.538 -20.818  17.946  0.00  0.00     0.091 H 
ATOM     89  H   NAG d1175       5.488 -18.159  18.019  0.00  0.00     0.210 HD
ATOM     90  H   NAG d1175       5.543 -19.583  21.552  0.00  0.00     0.132 H 
ATOM     91  H   NAG d1175       8.203 -19.322  24.073  0.00  0.00     0.040 H 
ATOM     92  H   NAG d1175       9.920 -19.591  24.248  0.00  0.00     0.040 H 
ATOM     93  H   NAG d1175       8.807 -20.930  24.392  0.00  0.00     0.040 H 
ATOM     94  H   NAG d1175       7.108 -18.479  19.582  0.00  0.00     0.091 H 
ATOM     95  C4  NAG d1181      10.131 -15.913  -6.648  0.00  0.00     0.089 C 
ATOM     96  C3  NAG d1181      11.596 -15.469  -6.680  0.00  0.00     0.086 C 
ATOM     97  C6  NAG d1181       7.972 -15.937  -5.328  0.00  0.00     0.043 C 
ATOM     98  C5  NAG d1181       9.356 -15.300  -5.473  0.00  0.00     0.089 C 
ATOM     99  C7  NAG d1181      14.643 -15.691  -5.105  0.00  0.00     0.214 C 
ATOM    100  C8  NAG d1181      14.825 -16.380  -3.780  0.00  0.00    -0.003 C 
ATOM    101  N2  NAG d1181      13.542 -14.954  -5.258  0.00  0.00    -0.349 N 
ATOM    102  O3  NAG d1181      12.336 -16.266  -7.593  0.00  0.00    -0.391 OA
ATOM    103  C1  NAG d1181      11.332 -14.891  -4.233  0.00  0.00     0.154 C 
ATOM    104  O6  NAG d1181       7.127 -15.095  -4.571  0.00  0.00    -0.398 OA
ATOM    105  O5  NAG d1181      10.051 -15.476  -4.251  0.00  0.00    -0.349 OA
ATOM    106  O7  NAG d1181      15.479 -15.813  -6.004  0.00  0.00    -0.274 OA
ATOM    107  O4  NAG d1181       9.511 -15.552  -7.862  0.00  0.00    -0.390 OA
ATOM    108  C2  NAG d1181      12.218 -15.557  -5.283  0.00  0.00     0.087 C 
ATOM    109  H   NAG d1181      10.117 -16.975  -6.518  0.00  0.00     0.091 H 
ATOM    110  H   NAG d1181      11.630 -14.450  -7.004  0.00  0.00     0.090 H 
ATOM    111  H   NAG d1181       8.067 -16.881  -4.833  0.00  0.00     0.078 H 
ATOM    112  H   NAG d1181       7.547 -16.077  -6.300  0.00  0.00     0.078 H 
ATOM    113  H   NAG d1181       9.255 -14.256  -5.686  0.00  0.00     0.090 H 
ATOM    114  H   NAG d1181      13.997 -16.150  -3.142  0.00  0.00     0.040 H 
ATOM    115  H   NAG d1181      15.732 -16.041  -3.324  0.00  0.00     0.040 H 
ATOM    116  H   NAG d1181      14.875 -17.438  -3.932  0.00  0.00     0.040 H 
ATOM    117  H   NAG d1181      13.627 -13.978  -5.355  0.00  0.00     0.163 HD
ATOM    118  H   NAG d1181      12.311 -17.193  -7.307  0.00  0.00     0.210 HD
ATOM    119  H   NAG d1181      11.209 -13.848  -4.437  0.00  0.00     0.132 H 
ATOM    120  H   NAG d1181       7.508 -14.964  -3.689  0.00  0.00     0.209 HD
ATOM    121  H   NAG d1181       9.533 -14.588  -7.962  0.00  0.00     0.210 HD
ATOM    122  H   NAG d1181      12.305 -16.597  -5.046  0.00  0.00     0.084 H 
ATOM    123  C7  NAG d1179      10.533 -14.893   4.619  0.00  0.00     0.214 C 
ATOM    124  C1  NAG d1179      12.632 -12.265   5.329  0.00  0.00     0.154 C 
ATOM    125  C2  NAG d1179      11.749 -12.837   4.227  0.00  0.00     0.087 C 
ATOM    126  O5  NAG d1179      12.761 -10.869   5.165  0.00  0.00    -0.349 OA
ATOM    127  O7  NAG d1179       9.437 -14.457   4.274  0.00  0.00    -0.274 OA
ATOM    128  O4  NAG d1179      12.921 -10.521   1.532  0.00  0.00    -0.390 OA
ATOM    129  N2  NAG d1179      11.682 -14.287   4.325  0.00  0.00    -0.349 N 
ATOM    130  C8  NAG d1179      10.607 -16.165   5.408  0.00  0.00    -0.003 C 
ATOM    131  O3  NAG d1179      11.085 -12.712   1.939  0.00  0.00    -0.348 OA
ATOM    132  C4  NAG d1179      12.393 -10.892   2.789  0.00  0.00     0.089 C 
ATOM    133  C5  NAG d1179      13.338 -10.496   3.925  0.00  0.00     0.089 C 
ATOM    134  O6  NAG d1179      12.438  -8.248   4.050  0.00  0.00    -0.398 OA
ATOM    135  C3  NAG d1179      12.147 -12.397   2.821  0.00  0.00     0.093 C 
ATOM    136  C6  NAG d1179      13.635  -8.997   3.943  0.00  0.00     0.043 C 
ATOM    137  H   NAG d1179      13.631 -12.648   5.316  0.00  0.00     0.132 H 
ATOM    138  H   NAG d1179      10.773 -12.429   4.389  0.00  0.00     0.084 H 
ATOM    139  H   NAG d1179      12.304 -10.783   0.832  0.00  0.00     0.210 HD
ATOM    140  H   NAG d1179      12.493 -14.825   4.172  0.00  0.00     0.163 HD
ATOM    141  H   NAG d1179      11.630 -16.394   5.621  0.00  0.00     0.040 H 
ATOM    142  H   NAG d1179      10.173 -16.962   4.840  0.00  0.00     0.040 H 
ATOM    143  H   NAG d1179      10.070 -16.047   6.326  0.00  0.00     0.040 H 
ATOM    144  H   NAG d1179      11.468 -10.373   2.928  0.00  0.00     0.091 H 
ATOM    145  H   NAG d1179      14.264 -11.009   3.766  0.00  0.00     0.090 H 
ATOM    146  H   NAG d1179      12.647  -7.302   4.060  0.00  0.00     0.209 HD
ATOM    147  H   NAG d1179      13.044 -12.899   2.527  0.00  0.00     0.091 H 
ATOM    148  H   NAG d1179      14.136  -8.728   3.036  0.00  0.00     0.078 H 
ATOM    149  H   NAG d1179      14.253  -8.779   4.789  0.00  0.00     0.078 H 
ATOM    150  C6  BDP d1180      13.578 -12.784  -2.076  0.00  0.00     0.206 C 
ATOM    151  O3  BDP d1180       9.261 -15.149  -1.669  0.00  0.00    -0.390 OA
ATOM    152  C1  BDP d1180      11.505 -13.549   0.852  0.00  0.00     0.160 C 
ATOM    153  O2  BDP d1180      10.006 -15.346   1.257  0.00  0.00    -0.388 OA
ATOM    154  C3  BDP d1180      10.518 -14.983  -1.045  0.00  0.00     0.092 C 
ATOM    155  O4  BDP d1180      11.968 -15.053  -2.954  0.00  0.00    -0.348 OA
ATOM    156  O5  BDP d1180      12.087 -12.772  -0.171  0.00  0.00    -0.340 OA
ATOM    157  C5  BDP d1180      12.611 -13.585  -1.201  0.00  0.00     0.152 C 
ATOM    158  O6B BDP d1180      13.187 -11.688  -2.546  0.00  0.00    -0.646 OA
ATOM    159  O6A BDP d1180      14.722 -13.266  -2.263  0.00  0.00    -0.646 OA
ATOM    160  C2  BDP d1180      10.299 -14.327   0.324  0.00  0.00     0.110 C 
ATOM    161  C4  BDP d1180      11.441 -14.187  -1.974  0.00  0.00     0.103 C 
ATOM    162  H   BDP d1180       8.673 -15.652  -1.084  0.00  0.00     0.210 HD
ATOM    163  H   BDP d1180      12.244 -14.241   1.198  0.00  0.00     0.133 H 
ATOM    164  H   BDP d1180       9.865 -14.952   2.132  0.00  0.00     0.210 HD
ATOM    165  H   BDP d1180      11.003 -15.920  -0.870  0.00  0.00     0.091 H 
ATOM    166  H   BDP d1180      13.191 -14.390  -0.802  0.00  0.00     0.104 H 
ATOM    167  H   BDP d1180       9.504 -13.622   0.200  0.00  0.00     0.094 H 
ATOM    168  H   BDP d1180      10.867 -13.401  -2.418  0.00  0.00     0.092 H 
ENDROOT
TORSDOF 43
ENDMDL
MODEL 57
REMARK VINA RESULT:      -5.7      3.663     19.156
REMARK  0 active torsions:
REMARK  status: ('A' for Active; 'I' for Inactive)
REMARK       I    between atoms: C1_1  and  O3_15 
REMARK       I    between atoms: C1_2  and  O3_93 
REMARK       I    between atoms: C6_3  and  C5_89 
REMARK       I    between atoms: C6_3  and  O6_76 
REMARK       I    between atoms: O3_4  and  C3_22 
REMARK       I    between atoms: C6_5  and  C5_48 
REMARK       I    between atoms: C6_5  and  O6_31 
REMARK       I    between atoms: C4_6  and  O4_74 
REMARK       I    between atoms: C7_7  and  C8_62 
REMARK       I    between atoms: C7_7  and  N2_60 
REMARK       I    between atoms: C6_8  and  C5_52 
REMARK       I    between atoms: C3_9  and  O3_38 
REMARK       I    between atoms: C1_10  and  O4_75 
REMARK       I    between atoms: C6_12  and  C5_51 
REMARK       I    between atoms: O3_13  and  C3_42 
REMARK       I    between atoms: O4_14  and  C4_84 
REMARK       I    between atoms: O3_15  and  C3_86 
REMARK       I    between atoms: C6_16  and  C5_23 
REMARK       I    between atoms: C6_16  and  O6_58 
REMARK       I    between atoms: C1_17  and  O3_63 
REMARK       I    between atoms: C2_18  and  N2_60 
REMARK       I    between atoms: C2_19  and  N2_53 
REMARK       I    between atoms: O2_20  and  C2_66 
REMARK       I    between atoms: C3_25  and  O3_93 
REMARK       I    between atoms: C7_26  and  C8_32 
REMARK       I    between atoms: C7_26  and  N2_37 
REMARK       I    between atoms: C2_28  and  N2_44 
REMARK       I    between atoms: C7_29  and  C8_54 
REMARK       I    between atoms: C7_29  and  N2_53 
REMARK       I    between atoms: O1_33  and  C1_80 
REMARK       I    between atoms: O4_34  and  C4_40 
REMARK       I    between atoms: O4_34  and  C1_92 
REMARK       I    between atoms: C7_36  and  C8_81 
REMARK       I    between atoms: C7_36  and  N2_44 
REMARK       I    between atoms: N2_37  and  C2_83 
REMARK       I    between atoms: O3_39  and  C3_61 
REMARK       I    between atoms: C1_41  and  O4_46 
REMARK       I    between atoms: O2_43  and  C2_73 
REMARK       I    between atoms: C6_45  and  C5_87 
REMARK       I    between atoms: O4_46  and  C4_67 
REMARK       I    between atoms: C4_50  and  O4_65 
REMARK       I    between atoms: C2_55  and  O2_82 
REMARK       I    between atoms: O4_57  and  C4_71 
REMARK       I    between atoms: O3_63  and  C3_85 
REMARK       I    between atoms: O4_75  and  C4_91 
REMARK       I    between atoms: C5_77  and  C6_90 
REMARK       I    between atoms: O6_79  and  C6_90 
ROOT
ATOM      1  C1  BDP d1176      12.721 -14.421  -2.801  0.00  0.00     0.160 C 
ATOM      2  O3  BDP d1176      14.970 -11.988  -1.012  0.00  0.00    -0.390 OA
ATOM      3  O5  BDP d1176      11.893 -14.461  -1.673  0.00  0.00    -0.340 OA
ATOM      4  O6A BDP d1176      10.654 -14.177   0.720  0.00  0.00    -0.646 OA
ATOM      5  C3  BDP d1176      14.419 -13.271  -1.232  0.00  0.00     0.092 C 
ATOM      6  O4  BDP d1176      14.244 -13.991   1.038  0.00  0.00    -0.348 OA
ATOM      7  C4  BDP d1176      13.475 -13.612  -0.087  0.00  0.00     0.103 C 
ATOM      8  C6  BDP d1176      11.518 -15.059   0.554  0.00  0.00     0.206 C 
ATOM      9  C2  BDP d1176      13.791 -13.336  -2.622  0.00  0.00     0.110 C 
ATOM     10  O6B BDP d1176      11.583 -16.146   1.164  0.00  0.00    -0.646 OA
ATOM     11  O2  BDP d1176      14.849 -13.597  -3.511  0.00  0.00    -0.388 OA
ATOM     12  C5  BDP d1176      12.574 -14.771  -0.492  0.00  0.00     0.152 C 
ATOM     13  H   BDP d1176      13.223 -15.357  -2.933  0.00  0.00     0.133 H 
ATOM     14  H   BDP d1176      15.572 -11.766  -1.739  0.00  0.00     0.210 HD
ATOM     15  H   BDP d1176      15.176 -14.027  -1.228  0.00  0.00     0.091 H 
ATOM     16  H   BDP d1176      12.871 -12.762   0.148  0.00  0.00     0.092 H 
ATOM     17  H   BDP d1176      13.283 -12.411  -2.798  0.00  0.00     0.094 H 
ATOM     18  H   BDP d1176      15.256 -14.449  -3.287  0.00  0.00     0.210 HD
ATOM     19  H   BDP d1176      13.211 -15.622  -0.612  0.00  0.00     0.104 H 
ATOM     20  C1  BDP d1178      14.756 -13.213   6.764  0.00  0.00     0.160 C 
ATOM     21  C6  BDP d1178      13.423 -10.687   9.160  0.00  0.00     0.206 C 
ATOM     22  O6B BDP d1178      12.298 -10.512   9.685  0.00  0.00    -0.646 OA
ATOM     23  O6A BDP d1178      14.347  -9.836   9.163  0.00  0.00    -0.646 OA
ATOM     24  O3  BDP d1178      15.357 -15.078   9.936  0.00  0.00    -0.390 OA
ATOM     25  O2  BDP d1178      15.895 -15.294   7.193  0.00  0.00    -0.388 OA
ATOM     26  C5  BDP d1178      13.655 -12.050   8.504  0.00  0.00     0.152 C 
ATOM     27  C3  BDP d1178      14.659 -14.326   8.969  0.00  0.00     0.092 C 
ATOM     28  C2  BDP d1178      15.530 -14.064   7.766  0.00  0.00     0.110 C 
ATOM     29  O4  BDP d1178      13.145 -13.320  10.427  0.00  0.00    -0.348 OA
ATOM     30  O5  BDP d1178      14.480 -11.959   7.348  0.00  0.00    -0.340 OA
ATOM     31  C4  BDP d1178      14.198 -13.005   9.561  0.00  0.00     0.103 C 
ATOM     32  H   BDP d1178      13.809 -13.637   6.502  0.00  0.00     0.133 H 
ATOM     33  H   BDP d1178      15.645 -15.918   9.546  0.00  0.00     0.210 HD
ATOM     34  H   BDP d1178      16.455 -15.136   6.417  0.00  0.00     0.210 HD
ATOM     35  H   BDP d1178      12.728 -12.438   8.138  0.00  0.00     0.104 H 
ATOM     36  H   BDP d1178      13.805 -14.892   8.660  0.00  0.00     0.091 H 
ATOM     37  H   BDP d1178      16.415 -13.537   8.052  0.00  0.00     0.094 H 
ATOM     38  H   BDP d1178      15.026 -12.524  10.039  0.00  0.00     0.092 H 
ATOM     39  C6  NAG d1177      15.691  -9.597   2.157  0.00  0.00     0.043 C 
ATOM     40  O4  NAG d1177      15.534 -10.394   5.031  0.00  0.00    -0.390 OA
ATOM     41  C2  NAG d1177      14.765 -13.641   3.361  0.00  0.00     0.087 C 
ATOM     42  C3  NAG d1177      14.861 -12.597   4.465  0.00  0.00     0.093 C 
ATOM     43  C7  NAG d1177      14.216 -16.001   3.810  0.00  0.00     0.214 C 
ATOM     44  N2  NAG d1177      13.890 -14.711   3.819  0.00  0.00    -0.349 N 
ATOM     45  C8  NAG d1177      13.060 -16.944   3.960  0.00  0.00    -0.003 C 
ATOM     46  O7  NAG d1177      15.368 -16.432   3.707  0.00  0.00    -0.274 OA
ATOM     47  O6  NAG d1177      16.488  -9.943   1.039  0.00  0.00    -0.398 OA
ATOM     48  C4  NAG d1177      15.601 -11.354   3.994  0.00  0.00     0.089 C 
ATOM     49  O5  NAG d1177      14.986 -11.849   1.721  0.00  0.00    -0.349 OA
ATOM     50  C5  NAG d1177      14.975 -10.832   2.701  0.00  0.00     0.089 C 
ATOM     51  C1  NAG d1177      14.237 -13.000   2.077  0.00  0.00     0.154 C 
ATOM     52  O3  NAG d1177      15.553 -13.131   5.570  0.00  0.00    -0.348 OA
ATOM     53  H   NAG d1177      16.315  -9.185   2.921  0.00  0.00     0.078 H 
ATOM     54  H   NAG d1177      14.959  -8.877   1.852  0.00  0.00     0.078 H 
ATOM     55  H   NAG d1177      15.939 -10.758   5.834  0.00  0.00     0.210 HD
ATOM     56  H   NAG d1177      15.732 -14.046   3.144  0.00  0.00     0.084 H 
ATOM     57  H   NAG d1177      13.862 -12.326   4.739  0.00  0.00     0.091 H 
ATOM     58  H   NAG d1177      12.999 -14.463   4.156  0.00  0.00     0.163 HD
ATOM     59  H   NAG d1177      12.151 -16.385   4.034  0.00  0.00     0.040 H 
ATOM     60  H   NAG d1177      13.191 -17.530   4.846  0.00  0.00     0.040 H 
ATOM     61  H   NAG d1177      13.013 -17.590   3.108  0.00  0.00     0.040 H 
ATOM     62  H   NAG d1177      17.154 -10.596   1.306  0.00  0.00     0.209 HD
ATOM     63  H   NAG d1177      16.625 -11.575   3.780  0.00  0.00     0.091 H 
ATOM     64  H   NAG d1177      13.971 -10.545   2.933  0.00  0.00     0.090 H 
ATOM     65  H   NAG d1177      13.235 -12.660   2.231  0.00  0.00     0.132 H 
ATOM     66  C6  NAG d1175       7.797 -16.708  -4.824  0.00  0.00     0.043 C 
ATOM     67  O3  NAG d1175      11.897 -14.148  -3.956  0.00  0.00    -0.348 OA
ATOM     68  C2  NAG d1175      11.544 -15.077  -6.135  0.00  0.00     0.087 C 
ATOM     69  O6  NAG d1175       7.223 -17.714  -5.626  0.00  0.00    -0.398 OA
ATOM     70  O1  NAG d1175      10.826 -15.810  -8.331  0.00  0.00    -0.369 OA
ATOM     71  C7  NAG d1175      13.440 -14.167  -7.381  0.00  0.00     0.214 C 
ATOM     72  N2  NAG d1175      12.952 -15.060  -6.518  0.00  0.00    -0.349 N 
ATOM     73  C5  NAG d1175       9.272 -16.593  -5.193  0.00  0.00     0.089 C 
ATOM     74  O5  NAG d1175       9.404 -16.101  -6.518  0.00  0.00    -0.349 OA
ATOM     75  C4  NAG d1175       9.998 -15.704  -4.181  0.00  0.00     0.089 C 
ATOM     76  O4  NAG d1175      10.013 -16.399  -2.948  0.00  0.00    -0.390 OA
ATOM     77  O7  NAG d1175      13.320 -12.946  -7.224  0.00  0.00    -0.274 OA
ATOM     78  C1  NAG d1175      10.754 -16.109  -6.951  0.00  0.00     0.151 C 
ATOM     79  C8  NAG d1175      14.170 -14.731  -8.568  0.00  0.00    -0.003 C 
ATOM     80  C3  NAG d1175      11.423 -15.319  -4.620  0.00  0.00     0.093 C 
ATOM     81  H   NAG d1175       7.305 -15.775  -5.003  0.00  0.00     0.078 H 
ATOM     82  H   NAG d1175       7.694 -16.955  -3.788  0.00  0.00     0.078 H 
ATOM     83  H   NAG d1175      11.111 -14.124  -6.356  0.00  0.00     0.084 H 
ATOM     84  H   NAG d1175       7.323 -17.479  -6.562  0.00  0.00     0.209 HD
ATOM     85  H   NAG d1175      11.753 -15.818  -8.617  0.00  0.00     0.212 HD
ATOM     86  H   NAG d1175      13.560 -15.729  -6.128  0.00  0.00     0.163 HD
ATOM     87  H   NAG d1175       9.726 -17.561  -5.159  0.00  0.00     0.090 H 
ATOM     88  H   NAG d1175       9.477 -14.773  -4.096  0.00  0.00     0.091 H 
ATOM     89  H   NAG d1175      10.491 -17.236  -3.054  0.00  0.00     0.210 HD
ATOM     90  H   NAG d1175      11.177 -17.081  -6.799  0.00  0.00     0.132 H 
ATOM     91  H   NAG d1175      14.162 -15.800  -8.518  0.00  0.00     0.040 H 
ATOM     92  H   NAG d1175      15.181 -14.383  -8.564  0.00  0.00     0.040 H 
ATOM     93  H   NAG d1175      13.687 -14.413  -9.468  0.00  0.00     0.040 H 
ATOM     94  H   NAG d1175      12.021 -16.164  -4.350  0.00  0.00     0.091 H 
ATOM     95  C4  NAG d1181       4.143  -9.751  20.156  0.00  0.00     0.089 C 
ATOM     96  C3  NAG d1181       5.355  -8.922  20.590  0.00  0.00     0.086 C 
ATOM     97  C6  NAG d1181       3.306 -11.644  18.701  0.00  0.00     0.043 C 
ATOM     98  C5  NAG d1181       4.537 -10.972  19.313  0.00  0.00     0.089 C 
ATOM     99  C7  NAG d1181       7.875  -6.843  19.524  0.00  0.00     0.214 C 
ATOM    100  C8  NAG d1181       8.140  -6.567  18.069  0.00  0.00    -0.003 C 
ATOM    101  N2  NAG d1181       7.557  -8.095  19.853  0.00  0.00    -0.349 N 
ATOM    102  O3  NAG d1181       4.937  -7.669  21.113  0.00  0.00    -0.391 OA
ATOM    103  C1  NAG d1181       6.612 -10.017  18.690  0.00  0.00     0.154 C 
ATOM    104  O6  NAG d1181       3.616 -12.969  18.321  0.00  0.00    -0.398 OA
ATOM    105  O5  NAG d1181       5.410 -10.609  18.258  0.00  0.00    -0.349 OA
ATOM    106  O7  NAG d1181       7.949  -5.943  20.364  0.00  0.00    -0.274 OA
ATOM    107  O4  NAG d1181       3.437 -10.175  21.301  0.00  0.00    -0.390 OA
ATOM    108  C2  NAG d1181       6.311  -8.706  19.414  0.00  0.00     0.087 C 
ATOM    109  H   NAG d1181       3.527  -9.127  19.543  0.00  0.00     0.091 H 
ATOM    110  H   NAG d1181       5.873  -9.461  21.355  0.00  0.00     0.090 H 
ATOM    111  H   NAG d1181       2.993 -11.093  17.839  0.00  0.00     0.078 H 
ATOM    112  H   NAG d1181       2.519 -11.663  19.426  0.00  0.00     0.078 H 
ATOM    113  H   NAG d1181       5.031 -11.653  19.976  0.00  0.00     0.090 H 
ATOM    114  H   NAG d1181       8.026  -7.471  17.508  0.00  0.00     0.040 H 
ATOM    115  H   NAG d1181       9.138  -6.198  17.952  0.00  0.00     0.040 H 
ATOM    116  H   NAG d1181       7.445  -5.836  17.712  0.00  0.00     0.040 H 
ATOM    117  H   NAG d1181       8.180  -8.619  20.407  0.00  0.00     0.163 HD
ATOM    118  H   NAG d1181       4.466  -7.173  20.426  0.00  0.00     0.210 HD
ATOM    119  H   NAG d1181       7.096 -10.715  19.341  0.00  0.00     0.132 H 
ATOM    120  H   NAG d1181       4.329 -12.958  17.664  0.00  0.00     0.209 HD
ATOM    121  H   NAG d1181       4.011 -10.738  21.843  0.00  0.00     0.210 HD
ATOM    122  H   NAG d1181       5.821  -8.044  18.731  0.00  0.00     0.084 H 
ATOM    123  C7  NAG d1179       9.955 -12.554  10.854  0.00  0.00     0.214 C 
ATOM    124  C1  NAG d1179      13.266 -12.775  11.752  0.00  0.00     0.154 C 
ATOM    125  C2  NAG d1179      11.856 -12.839  12.325  0.00  0.00     0.087 C 
ATOM    126  O5  NAG d1179      14.150 -13.513  12.566  0.00  0.00    -0.349 OA
ATOM    127  O7  NAG d1179       9.368 -13.573  11.213  0.00  0.00    -0.274 OA
ATOM    128  O4  NAG d1179      12.888 -12.815  15.922  0.00  0.00    -0.390 OA
ATOM    129  N2  NAG d1179      10.949 -12.006  11.551  0.00  0.00    -0.349 N 
ATOM    130  C8  NAG d1179       9.551 -11.878   9.580  0.00  0.00    -0.003 C 
ATOM    131  O3  NAG d1179      10.507 -12.914  14.291  0.00  0.00    -0.348 OA
ATOM    132  C4  NAG d1179      12.861 -13.254  14.580  0.00  0.00     0.089 C 
ATOM    133  C5  NAG d1179      14.216 -13.042  13.901  0.00  0.00     0.089 C 
ATOM    134  O6  NAG d1179      15.093 -15.147  14.725  0.00  0.00    -0.398 OA
ATOM    135  C3  NAG d1179      11.775 -12.507  13.813  0.00  0.00     0.093 C 
ATOM    136  C6  NAG d1179      15.353 -13.758  14.630  0.00  0.00     0.043 C 
ATOM    137  H   NAG d1179      13.667 -11.783  11.718  0.00  0.00     0.132 H 
ATOM    138  H   NAG d1179      11.550 -13.861  12.244  0.00  0.00     0.084 H 
ATOM    139  H   NAG d1179      12.018 -12.961  16.327  0.00  0.00     0.210 HD
ATOM    140  H   NAG d1179      11.071 -11.029  11.541  0.00  0.00     0.163 HD
ATOM    141  H   NAG d1179      10.163 -11.014   9.424  0.00  0.00     0.040 H 
ATOM    142  H   NAG d1179       8.525 -11.582   9.643  0.00  0.00     0.040 H 
ATOM    143  H   NAG d1179       9.677 -12.555   8.761  0.00  0.00     0.040 H 
ATOM    144  H   NAG d1179      12.647 -14.303  14.576  0.00  0.00     0.091 H 
ATOM    145  H   NAG d1179      14.426 -11.992  13.925  0.00  0.00     0.090 H 
ATOM    146  H   NAG d1179      15.825 -15.582  15.189  0.00  0.00     0.209 HD
ATOM    147  H   NAG d1179      11.914 -11.456  13.955  0.00  0.00     0.091 H 
ATOM    148  H   NAG d1179      15.451 -13.351  15.614  0.00  0.00     0.078 H 
ATOM    149  H   NAG d1179      16.258 -13.615  14.077  0.00  0.00     0.078 H 
ATOM    150  C6  BDP d1180      10.325 -10.119  18.099  0.00  0.00     0.206 C 
ATOM    151  O3  BDP d1180       6.229 -11.971  16.051  0.00  0.00    -0.390 OA
ATOM    152  C1  BDP d1180       9.781 -11.838  14.904  0.00  0.00     0.160 C 
ATOM    153  O2  BDP d1180       7.864 -11.930  13.506  0.00  0.00    -0.388 OA
ATOM    154  C3  BDP d1180       7.418 -11.269  15.754  0.00  0.00     0.092 C 
ATOM    155  O4  BDP d1180       7.480  -9.719  17.584  0.00  0.00    -0.348 OA
ATOM    156  O5  BDP d1180      10.197 -11.662  16.240  0.00  0.00    -0.340 OA
ATOM    157  C5  BDP d1180       9.580 -10.536  16.829  0.00  0.00     0.152 C 
ATOM    158  O6B BDP d1180      10.552 -10.993  18.970  0.00  0.00    -0.646 OA
ATOM    159  O6A BDP d1180      10.682  -8.919  18.191  0.00  0.00    -0.646 OA
ATOM    160  C2  BDP d1180       8.284 -12.142  14.837  0.00  0.00     0.110 C 
ATOM    161  C4  BDP d1180       8.108 -10.869  17.063  0.00  0.00     0.103 C 
ATOM    162  H   BDP d1180       5.789 -12.227  15.225  0.00  0.00     0.210 HD
ATOM    163  H   BDP d1180       9.978 -10.928  14.377  0.00  0.00     0.133 H 
ATOM    164  H   BDP d1180       8.400 -12.474  12.907  0.00  0.00     0.210 HD
ATOM    165  H   BDP d1180       7.222 -10.358  15.228  0.00  0.00     0.091 H 
ATOM    166  H   BDP d1180       9.625  -9.687  16.181  0.00  0.00     0.104 H 
ATOM    167  H   BDP d1180       8.156 -13.151  15.168  0.00  0.00     0.094 H 
ATOM    168  H   BDP d1180       8.034 -11.693  17.742  0.00  0.00     0.092 H 
ENDROOT
TORSDOF 43
ENDMDL
MODEL 58
REMARK VINA RESULT:      -5.7      5.589     18.806
REMARK  0 active torsions:
REMARK  status: ('A' for Active; 'I' for Inactive)
REMARK       I    between atoms: C1_1  and  O3_15 
REMARK       I    between atoms: C1_2  and  O3_93 
REMARK       I    between atoms: C6_3  and  C5_89 
REMARK       I    between atoms: C6_3  and  O6_76 
REMARK       I    between atoms: O3_4  and  C3_22 
REMARK       I    between atoms: C6_5  and  C5_48 
REMARK       I    between atoms: C6_5  and  O6_31 
REMARK       I    between atoms: C4_6  and  O4_74 
REMARK       I    between atoms: C7_7  and  C8_62 
REMARK       I    between atoms: C7_7  and  N2_60 
REMARK       I    between atoms: C6_8  and  C5_52 
REMARK       I    between atoms: C3_9  and  O3_38 
REMARK       I    between atoms: C1_10  and  O4_75 
REMARK       I    between atoms: C6_12  and  C5_51 
REMARK       I    between atoms: O3_13  and  C3_42 
REMARK       I    between atoms: O4_14  and  C4_84 
REMARK       I    between atoms: O3_15  and  C3_86 
REMARK       I    between atoms: C6_16  and  C5_23 
REMARK       I    between atoms: C6_16  and  O6_58 
REMARK       I    between atoms: C1_17  and  O3_63 
REMARK       I    between atoms: C2_18  and  N2_60 
REMARK       I    between atoms: C2_19  and  N2_53 
REMARK       I    between atoms: O2_20  and  C2_66 
REMARK       I    between atoms: C3_25  and  O3_93 
REMARK       I    between atoms: C7_26  and  C8_32 
REMARK       I    between atoms: C7_26  and  N2_37 
REMARK       I    between atoms: C2_28  and  N2_44 
REMARK       I    between atoms: C7_29  and  C8_54 
REMARK       I    between atoms: C7_29  and  N2_53 
REMARK       I    between atoms: O1_33  and  C1_80 
REMARK       I    between atoms: O4_34  and  C4_40 
REMARK       I    between atoms: O4_34  and  C1_92 
REMARK       I    between atoms: C7_36  and  C8_81 
REMARK       I    between atoms: C7_36  and  N2_44 
REMARK       I    between atoms: N2_37  and  C2_83 
REMARK       I    between atoms: O3_39  and  C3_61 
REMARK       I    between atoms: C1_41  and  O4_46 
REMARK       I    between atoms: O2_43  and  C2_73 
REMARK       I    between atoms: C6_45  and  C5_87 
REMARK       I    between atoms: O4_46  and  C4_67 
REMARK       I    between atoms: C4_50  and  O4_65 
REMARK       I    between atoms: C2_55  and  O2_82 
REMARK       I    between atoms: O4_57  and  C4_71 
REMARK       I    between atoms: O3_63  and  C3_85 
REMARK       I    between atoms: O4_75  and  C4_91 
REMARK       I    between atoms: C5_77  and  C6_90 
REMARK       I    between atoms: O6_79  and  C6_90 
ROOT
ATOM      1  C1  BDP d1176       9.734 -15.543  -3.552  0.00  0.00     0.160 C 
ATOM      2  O3  BDP d1176       7.967 -12.687  -1.852  0.00  0.00    -0.390 OA
ATOM      3  O5  BDP d1176      10.328 -15.882  -2.331  0.00  0.00    -0.340 OA
ATOM      4  O6A BDP d1176      11.189 -16.107   0.229  0.00  0.00    -0.646 OA
ATOM      5  C3  BDP d1176       9.110 -13.332  -2.374  0.00  0.00     0.092 C 
ATOM      6  O4  BDP d1176      10.698 -12.660  -0.723  0.00  0.00    -0.348 OA
ATOM      7  C4  BDP d1176       9.998 -13.783  -1.225  0.00  0.00     0.103 C 
ATOM      8  C6  BDP d1176      11.814 -15.408  -0.592  0.00  0.00     0.206 C 
ATOM      9  C2  BDP d1176       8.688 -14.443  -3.333  0.00  0.00     0.110 C 
ATOM     10  O6B BDP d1176      13.037 -15.160  -0.563  0.00  0.00    -0.646 OA
ATOM     11  O2  BDP d1176       8.434 -13.813  -4.566  0.00  0.00    -0.388 OA
ATOM     12  C5  BDP d1176      10.999 -14.817  -1.723  0.00  0.00     0.152 C 
ATOM     13  H   BDP d1176      10.466 -15.168  -4.236  0.00  0.00     0.133 H 
ATOM     14  H   BDP d1176       7.397 -12.397  -2.582  0.00  0.00     0.210 HD
ATOM     15  H   BDP d1176       9.702 -12.661  -2.962  0.00  0.00     0.091 H 
ATOM     16  H   BDP d1176       9.398 -14.218  -0.454  0.00  0.00     0.092 H 
ATOM     17  H   BDP d1176       7.842 -14.941  -2.909  0.00  0.00     0.094 H 
ATOM     18  H   BDP d1176       9.246 -13.386  -4.883  0.00  0.00     0.210 HD
ATOM     19  H   BDP d1176      11.643 -14.308  -2.410  0.00  0.00     0.104 H 
ATOM     20  C1  BDP d1178      12.234  -9.982   4.189  0.00  0.00     0.160 C 
ATOM     21  C6  BDP d1178      11.075 -10.202   7.725  0.00  0.00     0.206 C 
ATOM     22  O6B BDP d1178      11.269 -11.036   8.642  0.00  0.00    -0.646 OA
ATOM     23  O6A BDP d1178      10.189  -9.312   7.751  0.00  0.00    -0.646 OA
ATOM     24  O3  BDP d1178      15.126  -8.299   5.831  0.00  0.00    -0.390 OA
ATOM     25  O2  BDP d1178      14.150  -8.852   3.261  0.00  0.00    -0.388 OA
ATOM     26  C5  BDP d1178      12.018 -10.292   6.523  0.00  0.00     0.152 C 
ATOM     27  C3  BDP d1178      14.143  -9.280   5.593  0.00  0.00     0.092 C 
ATOM     28  C2  BDP d1178      13.311  -8.922   4.387  0.00  0.00     0.110 C 
ATOM     29  O4  BDP d1178      14.008 -10.085   7.775  0.00  0.00    -0.348 OA
ATOM     30  O5  BDP d1178      11.366  -9.965   5.301  0.00  0.00    -0.340 OA
ATOM     31  C4  BDP d1178      13.242  -9.428   6.807  0.00  0.00     0.103 C 
ATOM     32  H   BDP d1178      12.631 -10.974   4.134  0.00  0.00     0.133 H 
ATOM     33  H   BDP d1178      15.695  -8.214   5.050  0.00  0.00     0.210 HD
ATOM     34  H   BDP d1178      13.624  -8.622   2.480  0.00  0.00     0.210 HD
ATOM     35  H   BDP d1178      12.338 -11.304   6.389  0.00  0.00     0.104 H 
ATOM     36  H   BDP d1178      14.638 -10.209   5.406  0.00  0.00     0.091 H 
ATOM     37  H   BDP d1178      12.838  -7.973   4.527  0.00  0.00     0.094 H 
ATOM     38  H   BDP d1178      12.894  -8.462   7.108  0.00  0.00     0.092 H 
ATOM     39  C6  NAG d1177       6.983 -10.720   1.531  0.00  0.00     0.043 C 
ATOM     40  O4  NAG d1177       8.883  -9.806   3.647  0.00  0.00    -0.390 OA
ATOM     41  C2  NAG d1177      11.251 -11.283   1.171  0.00  0.00     0.087 C 
ATOM     42  C3  NAG d1177      10.737 -10.733   2.494  0.00  0.00     0.093 C 
ATOM     43  C7  NAG d1177      13.640 -11.717   0.752  0.00  0.00     0.214 C 
ATOM     44  N2  NAG d1177      12.515 -11.962   1.418  0.00  0.00    -0.349 N 
ATOM     45  C8  NAG d1177      14.701 -12.766   0.899  0.00  0.00    -0.003 C 
ATOM     46  O7  NAG d1177      13.845 -10.708   0.070  0.00  0.00    -0.274 OA
ATOM     47  O6  NAG d1177       6.746 -10.422   0.167  0.00  0.00    -0.398 OA
ATOM     48  C4  NAG d1177       9.327 -10.178   2.357  0.00  0.00     0.089 C 
ATOM     49  O5  NAG d1177       8.938 -11.629   0.477  0.00  0.00    -0.349 OA
ATOM     50  C5  NAG d1177       8.412 -11.226   1.724  0.00  0.00     0.089 C 
ATOM     51  C1  NAG d1177      10.219 -12.233   0.560  0.00  0.00     0.154 C 
ATOM     52  O3  NAG d1177      11.579  -9.696   2.941  0.00  0.00    -0.348 OA
ATOM     53  H   NAG d1177       6.839  -9.836   2.116  0.00  0.00     0.078 H 
ATOM     54  H   NAG d1177       6.299 -11.483   1.844  0.00  0.00     0.078 H 
ATOM     55  H   NAG d1177       9.485  -9.142   4.017  0.00  0.00     0.210 HD
ATOM     56  H   NAG d1177      11.409 -10.489   0.471  0.00  0.00     0.084 H 
ATOM     57  H   NAG d1177      10.727 -11.541   3.196  0.00  0.00     0.091 H 
ATOM     58  H   NAG d1177      12.538 -12.647   2.125  0.00  0.00     0.163 HD
ATOM     59  H   NAG d1177      14.338 -13.556   1.523  0.00  0.00     0.040 H 
ATOM     60  H   NAG d1177      15.573 -12.333   1.343  0.00  0.00     0.040 H 
ATOM     61  H   NAG d1177      14.949 -13.159  -0.065  0.00  0.00     0.040 H 
ATOM     62  H   NAG d1177       7.363  -9.732  -0.124  0.00  0.00     0.209 HD
ATOM     63  H   NAG d1177       9.313  -9.321   1.716  0.00  0.00     0.091 H 
ATOM     64  H   NAG d1177       8.371 -12.054   2.400  0.00  0.00     0.090 H 
ATOM     65  H   NAG d1177      10.099 -13.087   1.193  0.00  0.00     0.132 H 
ATOM     66  C6  NAG d1175      11.611 -20.955  -4.422  0.00  0.00     0.043 C 
ATOM     67  O3  NAG d1175       9.125 -16.732  -4.102  0.00  0.00    -0.348 OA
ATOM     68  C2  NAG d1175       9.135 -17.924  -6.180  0.00  0.00     0.087 C 
ATOM     69  O6  NAG d1175      12.273 -21.831  -5.305  0.00  0.00    -0.398 OA
ATOM     70  O1  NAG d1175       9.005 -19.451  -8.059  0.00  0.00    -0.369 OA
ATOM     71  C7  NAG d1175       7.570 -16.607  -7.520  0.00  0.00     0.214 C 
ATOM     72  N2  NAG d1175       8.789 -16.767  -7.000  0.00  0.00    -0.349 N 
ATOM     73  C5  NAG d1175      11.173 -19.728  -5.212  0.00  0.00     0.089 C 
ATOM     74  O5  NAG d1175      10.177 -20.089  -6.158  0.00  0.00    -0.349 OA
ATOM     75  C4  NAG d1175      10.683 -18.636  -4.258  0.00  0.00     0.089 C 
ATOM     76  O4  NAG d1175      11.808 -18.183  -3.528  0.00  0.00    -0.390 OA
ATOM     77  O7  NAG d1175       6.541 -16.608  -6.833  0.00  0.00    -0.274 OA
ATOM     78  C1  NAG d1175       9.841 -19.005  -7.009  0.00  0.00     0.151 C 
ATOM     79  C8  NAG d1175       7.512 -16.406  -9.009  0.00  0.00    -0.003 C 
ATOM     80  C3  NAG d1175       9.979 -17.470  -4.977  0.00  0.00     0.093 C 
ATOM     81  H   NAG d1175      10.755 -21.440  -4.002  0.00  0.00     0.078 H 
ATOM     82  H   NAG d1175      12.265 -20.668  -3.625  0.00  0.00     0.078 H 
ATOM     83  H   NAG d1175       8.235 -18.369  -5.809  0.00  0.00     0.084 H 
ATOM     84  H   NAG d1175      11.670 -22.084  -6.022  0.00  0.00     0.209 HD
ATOM     85  H   NAG d1175       8.781 -18.703  -8.634  0.00  0.00     0.212 HD
ATOM     86  H   NAG d1175       9.475 -16.084  -7.175  0.00  0.00     0.163 HD
ATOM     87  H   NAG d1175      12.008 -19.334  -5.754  0.00  0.00     0.090 H 
ATOM     88  H   NAG d1175       9.939 -19.048  -3.609  0.00  0.00     0.091 H 
ATOM     89  H   NAG d1175      12.465 -17.815  -4.141  0.00  0.00     0.210 HD
ATOM     90  H   NAG d1175      10.730 -18.596  -7.442  0.00  0.00     0.132 H 
ATOM     91  H   NAG d1175       8.503 -16.438  -9.413  0.00  0.00     0.040 H 
ATOM     92  H   NAG d1175       7.071 -15.455  -9.224  0.00  0.00     0.040 H 
ATOM     93  H   NAG d1175       6.922 -17.181  -9.451  0.00  0.00     0.040 H 
ATOM     94  H   NAG d1175      10.779 -16.849  -5.322  0.00  0.00     0.091 H 
ATOM     95  C4  NAG d1181      15.817 -14.567  20.624  0.00  0.00     0.089 C 
ATOM     96  C3  NAG d1181      15.087 -13.248  20.896  0.00  0.00     0.086 C 
ATOM     97  C6  NAG d1181      17.053 -15.970  18.919  0.00  0.00     0.043 C 
ATOM     98  C5  NAG d1181      16.535 -14.573  19.267  0.00  0.00     0.089 C 
ATOM     99  C7  NAG d1181      12.457 -11.239  19.971  0.00  0.00     0.214 C 
ATOM    100  C8  NAG d1181      11.588 -11.535  18.779  0.00  0.00    -0.003 C 
ATOM    101  N2  NAG d1181      13.765 -11.459  19.835  0.00  0.00    -0.349 N 
ATOM    102  O3  NAG d1181      14.215 -13.385  22.008  0.00  0.00    -0.391 OA
ATOM    103  C1  NAG d1181      15.158 -12.852  18.400  0.00  0.00     0.154 C 
ATOM    104  O6  NAG d1181      18.062 -15.882  17.934  0.00  0.00    -0.398 OA
ATOM    105  O5  NAG d1181      15.671 -14.151  18.225  0.00  0.00    -0.349 OA
ATOM    106  O7  NAG d1181      11.970 -10.816  21.022  0.00  0.00    -0.274 OA
ATOM    107  O4  NAG d1181      16.751 -14.802  21.654  0.00  0.00    -0.390 OA
ATOM    108  C2  NAG d1181      14.299 -12.802  19.662  0.00  0.00     0.087 C 
ATOM    109  H   NAG d1181      15.081 -15.344  20.597  0.00  0.00     0.091 H 
ATOM    110  H   NAG d1181      15.819 -12.501  21.120  0.00  0.00     0.090 H 
ATOM    111  H   NAG d1181      16.245 -16.564  18.545  0.00  0.00     0.078 H 
ATOM    112  H   NAG d1181      17.460 -16.423  19.798  0.00  0.00     0.078 H 
ATOM    113  H   NAG d1181      17.357 -13.892  19.355  0.00  0.00     0.090 H 
ATOM    114  H   NAG d1181      12.196 -11.890  17.974  0.00  0.00     0.040 H 
ATOM    115  H   NAG d1181      11.081 -10.643  18.478  0.00  0.00     0.040 H 
ATOM    116  H   NAG d1181      10.868 -12.284  19.040  0.00  0.00     0.040 H 
ATOM    117  H   NAG d1181      14.385 -10.694  19.852  0.00  0.00     0.163 HD
ATOM    118  H   NAG d1181      13.547 -14.061  21.813  0.00  0.00     0.210 HD
ATOM    119  H   NAG d1181      15.992 -12.187  18.475  0.00  0.00     0.132 H 
ATOM    120  H   NAG d1181      17.698 -15.472  17.134  0.00  0.00     0.209 HD
ATOM    121  H   NAG d1181      17.408 -14.089  21.662  0.00  0.00     0.210 HD
ATOM    122  H   NAG d1181      13.485 -13.488  19.548  0.00  0.00     0.084 H 
ATOM    123  C7  NAG d1179      13.885 -12.840   9.603  0.00  0.00     0.214 C 
ATOM    124  C1  NAG d1179      14.031  -9.449   9.064  0.00  0.00     0.154 C 
ATOM    125  C2  NAG d1179      14.497 -10.537  10.023  0.00  0.00     0.087 C 
ATOM    126  O5  NAG d1179      14.918  -8.352   9.114  0.00  0.00    -0.349 OA
ATOM    127  O7  NAG d1179      15.026 -13.288   9.686  0.00  0.00    -0.274 OA
ATOM    128  O4  NAG d1179      15.793  -8.216  12.658  0.00  0.00    -0.390 OA
ATOM    129  N2  NAG d1179      13.544 -11.635  10.055  0.00  0.00    -0.349 N 
ATOM    130  C8  NAG d1179      12.810 -13.670   8.971  0.00  0.00    -0.003 C 
ATOM    131  O3  NAG d1179      15.526 -11.040  12.116  0.00  0.00    -0.348 OA
ATOM    132  C4  NAG d1179      15.655  -8.768  11.365  0.00  0.00     0.089 C 
ATOM    133  C5  NAG d1179      15.019  -7.765  10.400  0.00  0.00     0.089 C 
ATOM    134  O6  NAG d1179      17.149  -6.728   9.886  0.00  0.00    -0.398 OA
ATOM    135  C3  NAG d1179      14.805 -10.033  11.431  0.00  0.00     0.093 C 
ATOM    136  C6  NAG d1179      15.819  -6.467  10.296  0.00  0.00     0.043 C 
ATOM    137  H   NAG d1179      13.068  -9.050   9.307  0.00  0.00     0.132 H 
ATOM    138  H   NAG d1179      15.430 -10.892   9.637  0.00  0.00     0.084 H 
ATOM    139  H   NAG d1179      16.198  -8.872  13.247  0.00  0.00     0.210 HD
ATOM    140  H   NAG d1179      12.639 -11.486  10.413  0.00  0.00     0.163 HD
ATOM    141  H   NAG d1179      11.887 -13.128   8.983  0.00  0.00     0.040 H 
ATOM    142  H   NAG d1179      12.695 -14.583   9.517  0.00  0.00     0.040 H 
ATOM    143  H   NAG d1179      13.079 -13.891   7.959  0.00  0.00     0.040 H 
ATOM    144  H   NAG d1179      16.631  -9.010  10.999  0.00  0.00     0.091 H 
ATOM    145  H   NAG d1179      14.051  -7.520  10.785  0.00  0.00     0.090 H 
ATOM    146  H   NAG d1179      17.639  -5.893   9.826  0.00  0.00     0.209 HD
ATOM    147  H   NAG d1179      13.892  -9.808  11.940  0.00  0.00     0.091 H 
ATOM    148  H   NAG d1179      15.835  -5.986  11.252  0.00  0.00     0.078 H 
ATOM    149  H   NAG d1179      15.354  -5.834   9.569  0.00  0.00     0.078 H 
ATOM    150  C6  BDP d1180      14.547  -9.650  16.526  0.00  0.00     0.206 C 
ATOM    151  O3  BDP d1180      15.916 -14.288  15.520  0.00  0.00    -0.390 OA
ATOM    152  C1  BDP d1180      14.888 -11.435  13.340  0.00  0.00     0.160 C 
ATOM    153  O2  BDP d1180      14.649 -13.741  12.827  0.00  0.00    -0.388 OA
ATOM    154  C3  BDP d1180      15.010 -13.272  15.139  0.00  0.00     0.092 C 
ATOM    155  O4  BDP d1180      14.333 -12.458  17.291  0.00  0.00    -0.348 OA
ATOM    156  O5  BDP d1180      15.214 -10.535  14.376  0.00  0.00    -0.340 OA
ATOM    157  C5  BDP d1180      14.508 -10.837  15.562  0.00  0.00     0.152 C 
ATOM    158  O6B BDP d1180      15.662  -9.145  16.804  0.00  0.00    -0.646 OA
ATOM    159  O6A BDP d1180      13.451  -9.236  16.977  0.00  0.00    -0.646 OA
ATOM    160  C2  BDP d1180      15.324 -12.856  13.696  0.00  0.00     0.110 C 
ATOM    161  C4  BDP d1180      15.088 -12.122  16.148  0.00  0.00     0.103 C 
ATOM    162  H   BDP d1180      15.870 -15.018  14.883  0.00  0.00     0.210 HD
ATOM    163  H   BDP d1180      13.826 -11.416  13.212  0.00  0.00     0.133 H 
ATOM    164  H   BDP d1180      14.833 -13.495  11.907  0.00  0.00     0.210 HD
ATOM    165  H   BDP d1180      13.997 -13.616  15.153  0.00  0.00     0.091 H 
ATOM    166  H   BDP d1180      13.471 -11.006  15.363  0.00  0.00     0.104 H 
ATOM    167  H   BDP d1180      16.388 -12.890  13.595  0.00  0.00     0.094 H 
ATOM    168  H   BDP d1180      16.117 -11.966  16.394  0.00  0.00     0.092 H 
ENDROOT
TORSDOF 43
ENDMDL
MODEL 59
REMARK VINA RESULT:      -5.6      3.840     18.970
REMARK  0 active torsions:
REMARK  status: ('A' for Active; 'I' for Inactive)
REMARK       I    between atoms: C1_1  and  O3_15 
REMARK       I    between atoms: C1_2  and  O3_93 
REMARK       I    between atoms: C6_3  and  C5_89 
REMARK       I    between atoms: C6_3  and  O6_76 
REMARK       I    between atoms: O3_4  and  C3_22 
REMARK       I    between atoms: C6_5  and  C5_48 
REMARK       I    between atoms: C6_5  and  O6_31 
REMARK       I    between atoms: C4_6  and  O4_74 
REMARK       I    between atoms: C7_7  and  C8_62 
REMARK       I    between atoms: C7_7  and  N2_60 
REMARK       I    between atoms: C6_8  and  C5_52 
REMARK       I    between atoms: C3_9  and  O3_38 
REMARK       I    between atoms: C1_10  and  O4_75 
REMARK       I    between atoms: C6_12  and  C5_51 
REMARK       I    between atoms: O3_13  and  C3_42 
REMARK       I    between atoms: O4_14  and  C4_84 
REMARK       I    between atoms: O3_15  and  C3_86 
REMARK       I    between atoms: C6_16  and  C5_23 
REMARK       I    between atoms: C6_16  and  O6_58 
REMARK       I    between atoms: C1_17  and  O3_63 
REMARK       I    between atoms: C2_18  and  N2_60 
REMARK       I    between atoms: C2_19  and  N2_53 
REMARK       I    between atoms: O2_20  and  C2_66 
REMARK       I    between atoms: C3_25  and  O3_93 
REMARK       I    between atoms: C7_26  and  C8_32 
REMARK       I    between atoms: C7_26  and  N2_37 
REMARK       I    between atoms: C2_28  and  N2_44 
REMARK       I    between atoms: C7_29  and  C8_54 
REMARK       I    between atoms: C7_29  and  N2_53 
REMARK       I    between atoms: O1_33  and  C1_80 
REMARK       I    between atoms: O4_34  and  C4_40 
REMARK       I    between atoms: O4_34  and  C1_92 
REMARK       I    between atoms: C7_36  and  C8_81 
REMARK       I    between atoms: C7_36  and  N2_44 
REMARK       I    between atoms: N2_37  and  C2_83 
REMARK       I    between atoms: O3_39  and  C3_61 
REMARK       I    between atoms: C1_41  and  O4_46 
REMARK       I    between atoms: O2_43  and  C2_73 
REMARK       I    between atoms: C6_45  and  C5_87 
REMARK       I    between atoms: O4_46  and  C4_67 
REMARK       I    between atoms: C4_50  and  O4_65 
REMARK       I    between atoms: C2_55  and  O2_82 
REMARK       I    between atoms: O4_57  and  C4_71 
REMARK       I    between atoms: O3_63  and  C3_85 
REMARK       I    between atoms: O4_75  and  C4_91 
REMARK       I    between atoms: C5_77  and  C6_90 
REMARK       I    between atoms: O6_79  and  C6_90 
ROOT
ATOM      1  C1  BDP d1176       9.844 -14.434  -2.504  0.00  0.00     0.160 C 
ATOM      2  O3  BDP d1176      12.838 -12.607  -1.138  0.00  0.00    -0.390 OA
ATOM      3  O5  BDP d1176       9.230 -14.334  -1.250  0.00  0.00    -0.340 OA
ATOM      4  O6A BDP d1176       8.506 -13.873   1.320  0.00  0.00    -0.646 OA
ATOM      5  C3  BDP d1176      11.992 -13.732  -1.255  0.00  0.00     0.092 C 
ATOM      6  O4  BDP d1176      12.051 -14.476   1.013  0.00  0.00    -0.348 OA
ATOM      7  C4  BDP d1176      11.204 -13.901   0.036  0.00  0.00     0.103 C 
ATOM      8  C6  BDP d1176       9.116 -14.914   1.010  0.00  0.00     0.206 C 
ATOM      9  C2  BDP d1176      11.139 -13.611  -2.516  0.00  0.00     0.110 C 
ATOM     10  O6B BDP d1176       9.045 -16.011   1.603  0.00  0.00    -0.646 OA
ATOM     11  O2  BDP d1176      11.948 -14.064  -3.574  0.00  0.00    -0.388 OA
ATOM     12  C5  BDP d1176      10.017 -14.824  -0.204  0.00  0.00     0.152 C 
ATOM     13  H   BDP d1176      10.099 -15.451  -2.718  0.00  0.00     0.133 H 
ATOM     14  H   BDP d1176      13.343 -12.494  -1.959  0.00  0.00     0.210 HD
ATOM     15  H   BDP d1176      12.555 -14.633  -1.380  0.00  0.00     0.091 H 
ATOM     16  H   BDP d1176      10.849 -12.949   0.369  0.00  0.00     0.092 H 
ATOM     17  H   BDP d1176      10.823 -12.593  -2.605  0.00  0.00     0.094 H 
ATOM     18  H   BDP d1176      12.191 -14.990  -3.421  0.00  0.00     0.210 HD
ATOM     19  H   BDP d1176      10.423 -15.788  -0.430  0.00  0.00     0.104 H 
ATOM     20  C1  BDP d1178      13.682 -14.026   6.562  0.00  0.00     0.160 C 
ATOM     21  C6  BDP d1178      13.358 -11.357   9.144  0.00  0.00     0.206 C 
ATOM     22  O6B BDP d1178      12.403 -10.962   9.855  0.00  0.00    -0.646 OA
ATOM     23  O6A BDP d1178      14.432 -10.726   8.985  0.00  0.00    -0.646 OA
ATOM     24  O3  BDP d1178      14.390 -16.086   9.588  0.00  0.00    -0.390 OA
ATOM     25  O2  BDP d1178      14.395 -16.317   6.793  0.00  0.00    -0.388 OA
ATOM     26  C5  BDP d1178      13.172 -12.714   8.462  0.00  0.00     0.152 C 
ATOM     27  C3  BDP d1178      13.719 -15.168   8.753  0.00  0.00     0.092 C 
ATOM     28  C2  BDP d1178      14.409 -15.058   7.417  0.00  0.00     0.110 C 
ATOM     29  O4  BDP d1178      12.731 -13.911  10.448  0.00  0.00    -0.348 OA
ATOM     30  O5  BDP d1178      13.789 -12.763   7.181  0.00  0.00    -0.340 OA
ATOM     31  C4  BDP d1178      13.665 -13.801   9.413  0.00  0.00     0.103 C 
ATOM     32  H   BDP d1178      12.635 -14.227   6.468  0.00  0.00     0.133 H 
ATOM     33  H   BDP d1178      14.418 -16.954   9.156  0.00  0.00     0.210 HD
ATOM     34  H   BDP d1178      14.837 -16.256   5.932  0.00  0.00     0.210 HD
ATOM     35  H   BDP d1178      12.134 -12.880   8.263  0.00  0.00     0.104 H 
ATOM     36  H   BDP d1178      12.723 -15.526   8.598  0.00  0.00     0.091 H 
ATOM     37  H   BDP d1178      15.424 -14.745   7.544  0.00  0.00     0.094 H 
ATOM     38  H   BDP d1178      14.646 -13.526   9.739  0.00  0.00     0.092 H 
ATOM     39  C6  NAG d1177      14.590 -10.538   1.851  0.00  0.00     0.043 C 
ATOM     40  O4  NAG d1177      14.752 -11.383   4.712  0.00  0.00    -0.390 OA
ATOM     41  C2  NAG d1177      13.021 -14.327   3.210  0.00  0.00     0.087 C 
ATOM     42  C3  NAG d1177      13.528 -13.367   4.278  0.00  0.00     0.093 C 
ATOM     43  C7  NAG d1177      12.054 -16.528   3.754  0.00  0.00     0.214 C 
ATOM     44  N2  NAG d1177      12.024 -15.199   3.815  0.00  0.00    -0.349 N 
ATOM     45  C8  NAG d1177      10.763 -17.204   4.104  0.00  0.00    -0.003 C 
ATOM     46  O7  NAG d1177      13.051 -17.193   3.454  0.00  0.00    -0.274 OA
ATOM     47  O6  NAG d1177      15.092 -11.009   0.613  0.00  0.00    -0.398 OA
ATOM     48  C4  NAG d1177      14.431 -12.298   3.682  0.00  0.00     0.089 C 
ATOM     49  O5  NAG d1177      13.347 -12.569   1.550  0.00  0.00    -0.349 OA
ATOM     50  C5  NAG d1177      13.724 -11.608   2.515  0.00  0.00     0.089 C 
ATOM     51  C1  NAG d1177      12.436 -13.544   2.034  0.00  0.00     0.154 C 
ATOM     52  O3  NAG d1177      14.264 -14.076   5.248  0.00  0.00    -0.348 OA
ATOM     53  H   NAG d1177      15.409 -10.297   2.495  0.00  0.00     0.078 H 
ATOM     54  H   NAG d1177      13.992  -9.667   1.676  0.00  0.00     0.078 H 
ATOM     55  H   NAG d1177      15.198 -11.853   5.434  0.00  0.00     0.210 HD
ATOM     56  H   NAG d1177      13.825 -14.923   2.829  0.00  0.00     0.084 H 
ATOM     57  H   NAG d1177      12.674 -12.898   4.719  0.00  0.00     0.091 H 
ATOM     58  H   NAG d1177      11.279 -14.777   4.300  0.00  0.00     0.163 HD
ATOM     59  H   NAG d1177      10.024 -16.466   4.333  0.00  0.00     0.040 H 
ATOM     60  H   NAG d1177      10.911 -17.836   4.956  0.00  0.00     0.040 H 
ATOM     61  H   NAG d1177      10.433 -17.794   3.275  0.00  0.00     0.040 H 
ATOM     62  H   NAG d1177      15.634 -11.799   0.764  0.00  0.00     0.209 HD
ATOM     63  H   NAG d1177      15.331 -12.726   3.295  0.00  0.00     0.091 H 
ATOM     64  H   NAG d1177      12.861 -11.120   2.915  0.00  0.00     0.090 H 
ATOM     65  H   NAG d1177      11.573 -13.001   2.358  0.00  0.00     0.132 H 
ATOM     66  C6  NAG d1175       4.270 -15.535  -3.639  0.00  0.00     0.043 C 
ATOM     67  O3  NAG d1175       8.915 -13.950  -3.500  0.00  0.00    -0.348 OA
ATOM     68  C2  NAG d1175       8.004 -14.704  -5.583  0.00  0.00     0.087 C 
ATOM     69  O6  NAG d1175       3.362 -16.365  -4.327  0.00  0.00    -0.398 OA
ATOM     70  O1  NAG d1175       6.783 -15.189  -7.620  0.00  0.00    -0.369 OA
ATOM     71  C7  NAG d1175       9.815 -14.181  -7.140  0.00  0.00     0.214 C 
ATOM     72  N2  NAG d1175       9.297 -14.978  -6.203  0.00  0.00    -0.349 N 
ATOM     73  C5  NAG d1175       5.650 -15.727  -4.258  0.00  0.00     0.089 C 
ATOM     74  O5  NAG d1175       5.659 -15.229  -5.588  0.00  0.00    -0.349 OA
ATOM     75  C4  NAG d1175       6.713 -15.051  -3.389  0.00  0.00     0.089 C 
ATOM     76  O4  NAG d1175       6.784 -15.775  -2.175  0.00  0.00    -0.390 OA
ATOM     77  O7  NAG d1175       9.993 -12.969  -6.968  0.00  0.00    -0.274 OA
ATOM     78  C1  NAG d1175       6.882 -15.513  -6.247  0.00  0.00     0.151 C 
ATOM     79  C8  NAG d1175      10.192 -14.848  -8.434  0.00  0.00    -0.003 C 
ATOM     80  C3  NAG d1175       8.092 -14.967  -4.069  0.00  0.00     0.093 C 
ATOM     81  H   NAG d1175       3.970 -14.512  -3.733  0.00  0.00     0.078 H 
ATOM     82  H   NAG d1175       4.292 -15.790  -2.600  0.00  0.00     0.078 H 
ATOM     83  H   NAG d1175       7.759 -13.673  -5.729  0.00  0.00     0.084 H 
ATOM     84  H   NAG d1175       3.352 -16.124  -5.267  0.00  0.00     0.209 HD
ATOM     85  H   NAG d1175       7.623 -15.386  -8.061  0.00  0.00     0.212 HD
ATOM     86  H   NAG d1175       9.802 -15.775  -5.922  0.00  0.00     0.163 HD
ATOM     87  H   NAG d1175       5.881 -16.771  -4.300  0.00  0.00     0.090 H 
ATOM     88  H   NAG d1175       6.429 -14.033  -3.218  0.00  0.00     0.091 H 
ATOM     89  H   NAG d1175       7.043 -16.692  -2.360  0.00  0.00     0.210 HD
ATOM     90  H   NAG d1175       7.102 -16.558  -6.167  0.00  0.00     0.132 H 
ATOM     91  H   NAG d1175       9.960 -15.891  -8.380  0.00  0.00     0.040 H 
ATOM     92  H   NAG d1175      11.241 -14.726  -8.605  0.00  0.00     0.040 H 
ATOM     93  H   NAG d1175       9.645 -14.403  -9.238  0.00  0.00     0.040 H 
ATOM     94  H   NAG d1175       8.528 -15.930  -3.904  0.00  0.00     0.091 H 
ATOM     95  C4  NAG d1181       6.504  -8.827  21.576  0.00  0.00     0.089 C 
ATOM     96  C3  NAG d1181       7.924  -8.294  21.791  0.00  0.00     0.086 C 
ATOM     97  C6  NAG d1181       5.040 -10.444  20.293  0.00  0.00     0.043 C 
ATOM     98  C5  NAG d1181       6.474 -10.074  20.681  0.00  0.00     0.089 C 
ATOM     99  C7  NAG d1181      10.619  -6.771  20.299  0.00  0.00     0.214 C 
ATOM    100  C8  NAG d1181      10.687  -6.508  18.819  0.00  0.00    -0.003 C 
ATOM    101  N2  NAG d1181      10.095  -7.936  20.682  0.00  0.00    -0.349 N 
ATOM    102  O3  NAG d1181       7.884  -7.000  22.375  0.00  0.00    -0.391 OA
ATOM    103  C1  NAG d1181       8.571  -9.568  19.705  0.00  0.00     0.154 C 
ATOM    104  O6  NAG d1181       4.984 -11.790  19.869  0.00  0.00    -0.398 OA
ATOM    105  O5  NAG d1181       7.214  -9.871  19.490  0.00  0.00    -0.349 OA
ATOM    106  O7  NAG d1181      11.028  -5.938  21.111  0.00  0.00    -0.274 OA
ATOM    107  O4  NAG d1181       5.927  -9.129  22.826  0.00  0.00    -0.390 OA
ATOM    108  C2  NAG d1181       8.690  -8.249  20.466  0.00  0.00     0.087 C 
ATOM    109  H   NAG d1181       5.944  -8.064  21.076  0.00  0.00     0.091 H 
ATOM    110  H   NAG d1181       8.433  -8.958  22.457  0.00  0.00     0.090 H 
ATOM    111  H   NAG d1181       4.714  -9.809  19.496  0.00  0.00     0.078 H 
ATOM    112  H   NAG d1181       4.403 -10.318  21.143  0.00  0.00     0.078 H 
ATOM    113  H   NAG d1181       6.912 -10.868  21.250  0.00  0.00     0.090 H 
ATOM    114  H   NAG d1181      10.286  -7.346  18.289  0.00  0.00     0.040 H 
ATOM    115  H   NAG d1181      11.707  -6.359  18.531  0.00  0.00     0.040 H 
ATOM    116  H   NAG d1181      10.118  -5.632  18.585  0.00  0.00     0.040 H 
ATOM    117  H   NAG d1181      10.674  -8.601  21.122  0.00  0.00     0.163 HD
ATOM    118  H   NAG d1181       7.423  -6.390  21.777  0.00  0.00     0.210 HD
ATOM    119  H   NAG d1181       8.994 -10.376  20.265  0.00  0.00     0.132 H 
ATOM    120  H   NAG d1181       5.561 -11.910  19.098  0.00  0.00     0.209 HD
ATOM    121  H   NAG d1181       6.447  -9.821  23.263  0.00  0.00     0.210 HD
ATOM    122  H   NAG d1181       8.248  -7.473  19.877  0.00  0.00     0.084 H 
ATOM    123  C7  NAG d1179       9.904 -12.491  11.418  0.00  0.00     0.214 C 
ATOM    124  C1  NAG d1179      13.189 -13.451  11.730  0.00  0.00     0.154 C 
ATOM    125  C2  NAG d1179      11.918 -13.230  12.539  0.00  0.00     0.087 C 
ATOM    126  O5  NAG d1179      14.017 -14.391  12.382  0.00  0.00    -0.349 OA
ATOM    127  O7  NAG d1179       9.178 -13.371  11.875  0.00  0.00    -0.274 OA
ATOM    128  O4  NAG d1179      13.524 -13.553  15.903  0.00  0.00    -0.390 OA
ATOM    129  N2  NAG d1179      11.097 -12.195  11.931  0.00  0.00    -0.349 N 
ATOM    130  C8  NAG d1179       9.448 -11.700  10.230  0.00  0.00    -0.003 C 
ATOM    131  O3  NAG d1179      10.937 -13.080  14.709  0.00  0.00    -0.348 OA
ATOM    132  C4  NAG d1179      13.175 -13.930  14.587  0.00  0.00     0.089 C 
ATOM    133  C5  NAG d1179      14.409 -13.991  13.684  0.00  0.00     0.089 C 
ATOM    134  O6  NAG d1179      14.931 -16.263  14.350  0.00  0.00    -0.398 OA
ATOM    135  C3  NAG d1179      12.165 -12.941  14.018  0.00  0.00     0.093 C 
ATOM    136  C6  NAG d1179      15.469 -14.961  14.207  0.00  0.00     0.043 C 
ATOM    137  H   NAG d1179      13.786 -12.569  11.625  0.00  0.00     0.132 H 
ATOM    138  H   NAG d1179      11.387 -14.159  12.515  0.00  0.00     0.084 H 
ATOM    139  H   NAG d1179      12.725 -13.523  16.453  0.00  0.00     0.210 HD
ATOM    140  H   NAG d1179      11.426 -11.267  11.897  0.00  0.00     0.163 HD
ATOM    141  H   NAG d1179      10.198 -10.984   9.969  0.00  0.00     0.040 H 
ATOM    142  H   NAG d1179       8.536 -11.192  10.469  0.00  0.00     0.040 H 
ATOM    143  H   NAG d1179       9.282 -12.360   9.404  0.00  0.00     0.040 H 
ATOM    144  H   NAG d1179      12.740 -14.907  14.624  0.00  0.00     0.091 H 
ATOM    145  H   NAG d1179      14.843 -13.013  13.668  0.00  0.00     0.090 H 
ATOM    146  H   NAG d1179      15.618 -16.862  14.682  0.00  0.00     0.209 HD
ATOM    147  H   NAG d1179      12.551 -11.950  14.130  0.00  0.00     0.091 H 
ATOM    148  H   NAG d1179      15.818 -14.619  15.159  0.00  0.00     0.078 H 
ATOM    149  H   NAG d1179      16.276 -14.997  13.506  0.00  0.00     0.078 H 
ATOM    150  C6  BDP d1180      12.017 -10.446  18.482  0.00  0.00     0.206 C 
ATOM    151  O3  BDP d1180       7.330 -11.300  17.179  0.00  0.00    -0.390 OA
ATOM    152  C1  BDP d1180      10.578 -11.896  15.435  0.00  0.00     0.160 C 
ATOM    153  O2  BDP d1180       8.479 -11.524  14.389  0.00  0.00    -0.388 OA
ATOM    154  C3  BDP d1180       8.576 -10.861  16.679  0.00  0.00     0.092 C 
ATOM    155  O4  BDP d1180       9.283  -9.425  18.465  0.00  0.00    -0.348 OA
ATOM    156  O5  BDP d1180      11.243 -11.860  16.678  0.00  0.00    -0.340 OA
ATOM    157  C5  BDP d1180      10.995 -10.649  17.362  0.00  0.00     0.152 C 
ATOM    158  O6B BDP d1180      12.192 -11.379  19.304  0.00  0.00    -0.646 OA
ATOM    159  O6A BDP d1180      12.637  -9.356  18.507  0.00  0.00    -0.646 OA
ATOM    160  C2  BDP d1180       9.062 -11.868  15.628  0.00  0.00     0.110 C 
ATOM    161  C4  BDP d1180       9.547 -10.665  17.847  0.00  0.00     0.103 C 
ATOM    162  H   BDP d1180       6.711 -11.426  16.442  0.00  0.00     0.210 HD
ATOM    163  H   BDP d1180      10.877 -11.031  14.879  0.00  0.00     0.133 H 
ATOM    164  H   BDP d1180       8.775 -12.149  13.708  0.00  0.00     0.210 HD
ATOM    165  H   BDP d1180       8.497  -9.912  16.191  0.00  0.00     0.091 H 
ATOM    166  H   BDP d1180      11.114  -9.807  16.713  0.00  0.00     0.104 H 
ATOM    167  H   BDP d1180       8.774 -12.836  15.979  0.00  0.00     0.094 H 
ATOM    168  H   BDP d1180       9.412 -11.477  18.531  0.00  0.00     0.092 H 
ENDROOT
TORSDOF 43
ENDMDL
MODEL 60
REMARK VINA RESULT:      -5.6      6.201      8.145
REMARK  0 active torsions:
REMARK  status: ('A' for Active; 'I' for Inactive)
REMARK       I    between atoms: C1_1  and  O3_15 
REMARK       I    between atoms: C1_2  and  O3_93 
REMARK       I    between atoms: C6_3  and  C5_89 
REMARK       I    between atoms: C6_3  and  O6_76 
REMARK       I    between atoms: O3_4  and  C3_22 
REMARK       I    between atoms: C6_5  and  C5_48 
REMARK       I    between atoms: C6_5  and  O6_31 
REMARK       I    between atoms: C4_6  and  O4_74 
REMARK       I    between atoms: C7_7  and  C8_62 
REMARK       I    between atoms: C7_7  and  N2_60 
REMARK       I    between atoms: C6_8  and  C5_52 
REMARK       I    between atoms: C3_9  and  O3_38 
REMARK       I    between atoms: C1_10  and  O4_75 
REMARK       I    between atoms: C6_12  and  C5_51 
REMARK       I    between atoms: O3_13  and  C3_42 
REMARK       I    between atoms: O4_14  and  C4_84 
REMARK       I    between atoms: O3_15  and  C3_86 
REMARK       I    between atoms: C6_16  and  C5_23 
REMARK       I    between atoms: C6_16  and  O6_58 
REMARK       I    between atoms: C1_17  and  O3_63 
REMARK       I    between atoms: C2_18  and  N2_60 
REMARK       I    between atoms: C2_19  and  N2_53 
REMARK       I    between atoms: O2_20  and  C2_66 
REMARK       I    between atoms: C3_25  and  O3_93 
REMARK       I    between atoms: C7_26  and  C8_32 
REMARK       I    between atoms: C7_26  and  N2_37 
REMARK       I    between atoms: C2_28  and  N2_44 
REMARK       I    between atoms: C7_29  and  C8_54 
REMARK       I    between atoms: C7_29  and  N2_53 
REMARK       I    between atoms: O1_33  and  C1_80 
REMARK       I    between atoms: O4_34  and  C4_40 
REMARK       I    between atoms: O4_34  and  C1_92 
REMARK       I    between atoms: C7_36  and  C8_81 
REMARK       I    between atoms: C7_36  and  N2_44 
REMARK       I    between atoms: N2_37  and  C2_83 
REMARK       I    between atoms: O3_39  and  C3_61 
REMARK       I    between atoms: C1_41  and  O4_46 
REMARK       I    between atoms: O2_43  and  C2_73 
REMARK       I    between atoms: C6_45  and  C5_87 
REMARK       I    between atoms: O4_46  and  C4_67 
REMARK       I    between atoms: C4_50  and  O4_65 
REMARK       I    between atoms: C2_55  and  O2_82 
REMARK       I    between atoms: O4_57  and  C4_71 
REMARK       I    between atoms: O3_63  and  C3_85 
REMARK       I    between atoms: O4_75  and  C4_91 
REMARK       I    between atoms: C5_77  and  C6_90 
REMARK       I    between atoms: O6_79  and  C6_90 
ROOT
ATOM      1  C1  BDP d1176      15.184 -10.732  15.134  0.00  0.00     0.160 C 
ATOM      2  O3  BDP d1176      15.179  -7.995  12.550  0.00  0.00    -0.390 OA
ATOM      3  O5  BDP d1176      15.292 -11.679  14.109  0.00  0.00    -0.340 OA
ATOM      4  O6A BDP d1176      15.497 -13.068  11.791  0.00  0.00    -0.646 OA
ATOM      5  C3  BDP d1176      14.595  -9.081  13.239  0.00  0.00     0.092 C 
ATOM      6  O4  BDP d1176      13.461 -10.112  11.408  0.00  0.00    -0.348 OA
ATOM      7  C4  BDP d1176      14.535 -10.286  12.312  0.00  0.00     0.103 C 
ATOM      8  C6  BDP d1176      14.379 -12.798  12.273  0.00  0.00     0.206 C 
ATOM      9  C2  BDP d1176      15.332  -9.320  14.555  0.00  0.00     0.110 C 
ATOM     10  O6B BDP d1176      13.333 -13.462  12.116  0.00  0.00    -0.646 OA
ATOM     11  O2  BDP d1176      14.791  -8.400  15.472  0.00  0.00    -0.388 OA
ATOM     12  C5  BDP d1176      14.304 -11.552  13.128  0.00  0.00     0.152 C 
ATOM     13  H   BDP d1176      14.227 -10.795  15.607  0.00  0.00     0.133 H 
ATOM     14  H   BDP d1176      15.219  -7.223  13.137  0.00  0.00     0.210 HD
ATOM     15  H   BDP d1176      13.583  -8.869  13.516  0.00  0.00     0.091 H 
ATOM     16  H   BDP d1176      15.457 -10.376  11.777  0.00  0.00     0.092 H 
ATOM     17  H   BDP d1176      16.379  -9.199  14.373  0.00  0.00     0.094 H 
ATOM     18  H   BDP d1176      13.843  -8.573  15.583  0.00  0.00     0.210 HD
ATOM     19  H   BDP d1176      13.327 -11.461  13.556  0.00  0.00     0.104 H 
ATOM     20  C1  BDP d1178      12.013 -10.548   5.807  0.00  0.00     0.160 C 
ATOM     21  C6  BDP d1178      13.967 -10.815   2.644  0.00  0.00     0.206 C 
ATOM     22  O6B BDP d1178      14.592 -11.755   2.097  0.00  0.00    -0.646 OA
ATOM     23  O6A BDP d1178      14.075  -9.607   2.316  0.00  0.00    -0.646 OA
ATOM     24  O3  BDP d1178       9.290 -11.760   3.567  0.00  0.00    -0.390 OA
ATOM     25  O2  BDP d1178       9.649 -10.828   6.187  0.00  0.00    -0.388 OA
ATOM     26  C5  BDP d1178      13.001 -11.209   3.763  0.00  0.00     0.152 C 
ATOM     27  C3  BDP d1178      10.557 -11.712   4.184  0.00  0.00     0.092 C 
ATOM     28  C2  BDP d1178      10.617 -10.595   5.196  0.00  0.00     0.110 C 
ATOM     29  O4  BDP d1178      11.751 -12.731   2.462  0.00  0.00    -0.348 OA
ATOM     30  O5  BDP d1178      12.944 -10.232   4.796  0.00  0.00    -0.340 OA
ATOM     31  C4  BDP d1178      11.643 -11.512   3.140  0.00  0.00     0.103 C 
ATOM     32  H   BDP d1178      12.320 -11.489   6.215  0.00  0.00     0.133 H 
ATOM     33  H   BDP d1178       8.606 -11.887   4.243  0.00  0.00     0.210 HD
ATOM     34  H   BDP d1178       9.680 -10.115   6.844  0.00  0.00     0.210 HD
ATOM     35  H   BDP d1178      13.356 -12.092   4.253  0.00  0.00     0.104 H 
ATOM     36  H   BDP d1178      10.717 -12.642   4.687  0.00  0.00     0.091 H 
ATOM     37  H   BDP d1178      10.415  -9.654   4.728  0.00  0.00     0.094 H 
ATOM     38  H   BDP d1178      11.382 -10.686   2.512  0.00  0.00     0.092 H 
ATOM     39  C6  NAG d1177      15.607  -6.830   8.711  0.00  0.00     0.043 C 
ATOM     40  O4  NAG d1177      14.221  -8.021   6.349  0.00  0.00    -0.390 OA
ATOM     41  C2  NAG d1177      12.718 -10.015   9.121  0.00  0.00     0.087 C 
ATOM     42  C3  NAG d1177      13.117  -9.624   7.705  0.00  0.00     0.093 C 
ATOM     43  C7  NAG d1177      11.115 -11.825   9.596  0.00  0.00     0.214 C 
ATOM     44  N2  NAG d1177      12.276 -11.403   9.105  0.00  0.00    -0.349 N 
ATOM     45  C8  NAG d1177      11.025 -13.305   9.817  0.00  0.00    -0.003 C 
ATOM     46  O7  NAG d1177      10.152 -11.094   9.848  0.00  0.00    -0.274 OA
ATOM     47  O6  NAG d1177      15.223  -6.117   9.873  0.00  0.00    -0.398 OA
ATOM     48  C4  NAG d1177      13.772  -8.251   7.670  0.00  0.00     0.089 C 
ATOM     49  O5  NAG d1177      14.444  -8.513   9.966  0.00  0.00    -0.349 OA
ATOM     50  C5  NAG d1177      14.922  -8.195   8.675  0.00  0.00     0.089 C 
ATOM     51  C1  NAG d1177      13.899  -9.818  10.073  0.00  0.00     0.154 C 
ATOM     52  O3  NAG d1177      11.976  -9.590   6.879  0.00  0.00    -0.348 OA
ATOM     53  H   NAG d1177      15.325  -6.270   7.844  0.00  0.00     0.078 H 
ATOM     54  H   NAG d1177      16.668  -6.973   8.726  0.00  0.00     0.078 H 
ATOM     55  H   NAG d1177      13.467  -8.064   5.740  0.00  0.00     0.210 HD
ATOM     56  H   NAG d1177      11.918  -9.396   9.470  0.00  0.00     0.084 H 
ATOM     57  H   NAG d1177      13.817 -10.353   7.355  0.00  0.00     0.091 H 
ATOM     58  H   NAG d1177      12.877 -12.071   8.703  0.00  0.00     0.163 HD
ATOM     59  H   NAG d1177      11.952 -13.764   9.543  0.00  0.00     0.040 H 
ATOM     60  H   NAG d1177      10.236 -13.709   9.217  0.00  0.00     0.040 H 
ATOM     61  H   NAG d1177      10.823 -13.500  10.850  0.00  0.00     0.040 H 
ATOM     62  H   NAG d1177      14.263  -5.983   9.867  0.00  0.00     0.209 HD
ATOM     63  H   NAG d1177      13.076  -7.486   7.946  0.00  0.00     0.091 H 
ATOM     64  H   NAG d1177      15.650  -8.911   8.358  0.00  0.00     0.090 H 
ATOM     65  H   NAG d1177      14.690 -10.488   9.807  0.00  0.00     0.132 H 
ATOM     66  C6  NAG d1175      16.921 -15.521  17.894  0.00  0.00     0.043 C 
ATOM     67  O3  NAG d1175      16.220 -11.002  16.106  0.00  0.00    -0.348 OA
ATOM     68  C2  NAG d1175      16.384 -11.304  18.476  0.00  0.00     0.087 C 
ATOM     69  O6  NAG d1175      16.737 -16.350  19.019  0.00  0.00    -0.398 OA
ATOM     70  O1  NAG d1175      16.913 -11.794  20.791  0.00  0.00    -0.369 OA
ATOM     71  C7  NAG d1175      16.353  -8.995  19.278  0.00  0.00     0.214 C 
ATOM     72  N2  NAG d1175      15.697 -10.062  18.818  0.00  0.00    -0.349 N 
ATOM     73  C5  NAG d1175      16.267 -14.176  18.185  0.00  0.00     0.089 C 
ATOM     74  O5  NAG d1175      16.966 -13.511  19.228  0.00  0.00    -0.349 OA
ATOM     75  C4  NAG d1175      16.211 -13.333  16.910  0.00  0.00     0.089 C 
ATOM     76  O4  NAG d1175      15.302 -13.966  16.028  0.00  0.00    -0.390 OA
ATOM     77  O7  NAG d1175      17.298  -8.474  18.674  0.00  0.00    -0.274 OA
ATOM     78  C1  NAG d1175      16.308 -12.319  19.625  0.00  0.00     0.151 C 
ATOM     79  C8  NAG d1175      15.864  -8.438  20.587  0.00  0.00    -0.003 C 
ATOM     80  C3  NAG d1175      15.810 -11.867  17.165  0.00  0.00     0.093 C 
ATOM     81  H   NAG d1175      17.967 -15.384  17.712  0.00  0.00     0.078 H 
ATOM     82  H   NAG d1175      16.480 -15.968  17.028  0.00  0.00     0.078 H 
ATOM     83  H   NAG d1175      17.423 -11.098  18.325  0.00  0.00     0.084 H 
ATOM     84  H   NAG d1175      17.141 -15.935  19.797  0.00  0.00     0.209 HD
ATOM     85  H   NAG d1175      16.457 -10.980  21.054  0.00  0.00     0.212 HD
ATOM     86  H   NAG d1175      14.721 -10.010  18.705  0.00  0.00     0.163 HD
ATOM     87  H   NAG d1175      15.261 -14.331  18.516  0.00  0.00     0.090 H 
ATOM     88  H   NAG d1175      17.191 -13.279  16.483  0.00  0.00     0.091 H 
ATOM     89  H   NAG d1175      14.424 -14.001  16.440  0.00  0.00     0.210 HD
ATOM     90  H   NAG d1175      15.282 -12.528  19.847  0.00  0.00     0.132 H 
ATOM     91  H   NAG d1175      15.045  -9.028  20.943  0.00  0.00     0.040 H 
ATOM     92  H   NAG d1175      15.540  -7.428  20.447  0.00  0.00     0.040 H 
ATOM     93  H   NAG d1175      16.658  -8.462  21.304  0.00  0.00     0.040 H 
ATOM     94  H   NAG d1175      14.742 -11.892  17.229  0.00  0.00     0.091 H 
ATOM     95  C4  NAG d1181      16.708 -20.318  -7.849  0.00  0.00     0.089 C 
ATOM     96  C3  NAG d1181      16.501 -18.981  -8.569  0.00  0.00     0.086 C 
ATOM     97  C6  NAG d1181      16.202 -21.690  -5.784  0.00  0.00     0.043 C 
ATOM     98  C5  NAG d1181      15.812 -20.463  -6.610  0.00  0.00     0.089 C 
ATOM     99  C7  NAG d1181      16.937 -15.579  -8.376  0.00  0.00     0.214 C 
ATOM    100  C8  NAG d1181      17.435 -14.892  -7.133  0.00  0.00    -0.003 C 
ATOM    101  N2  NAG d1181      16.075 -16.581  -8.209  0.00  0.00    -0.349 N 
ATOM    102  O3  NAG d1181      17.531 -18.768  -9.523  0.00  0.00    -0.391 OA
ATOM    103  C1  NAG d1181      15.522 -18.122  -6.402  0.00  0.00     0.154 C 
ATOM    104  O6  NAG d1181      15.136 -22.062  -4.935  0.00  0.00    -0.398 OA
ATOM    105  O5  NAG d1181      15.901 -19.322  -5.774  0.00  0.00    -0.349 OA
ATOM    106  O7  NAG d1181      17.321 -15.223  -9.493  0.00  0.00    -0.274 OA
ATOM    107  O4  NAG d1181      16.447 -21.374  -8.746  0.00  0.00    -0.390 OA
ATOM    108  C2  NAG d1181      16.467 -17.826  -7.565  0.00  0.00     0.087 C 
ATOM    109  H   NAG d1181      17.723 -20.350  -7.512  0.00  0.00     0.091 H 
ATOM    110  H   NAG d1181      15.561 -19.018  -9.078  0.00  0.00     0.090 H 
ATOM    111  H   NAG d1181      17.062 -21.459  -5.191  0.00  0.00     0.078 H 
ATOM    112  H   NAG d1181      16.423 -22.502  -6.445  0.00  0.00     0.078 H 
ATOM    113  H   NAG d1181      14.809 -20.571  -6.970  0.00  0.00     0.090 H 
ATOM    114  H   NAG d1181      16.988 -15.344  -6.273  0.00  0.00     0.040 H 
ATOM    115  H   NAG d1181      17.172 -13.855  -7.169  0.00  0.00     0.040 H 
ATOM    116  H   NAG d1181      18.500 -14.989  -7.074  0.00  0.00     0.040 H 
ATOM    117  H   NAG d1181      15.149 -16.476  -8.528  0.00  0.00     0.163 HD
ATOM    118  H   NAG d1181      18.388 -18.734  -9.070  0.00  0.00     0.210 HD
ATOM    119  H   NAG d1181      14.516 -18.245  -6.746  0.00  0.00     0.132 H 
ATOM    120  H   NAG d1181      14.931 -21.329  -4.334  0.00  0.00     0.209 HD
ATOM    121  H   NAG d1181      15.524 -21.328  -9.040  0.00  0.00     0.210 HD
ATOM    122  H   NAG d1181      17.460 -17.720  -7.179  0.00  0.00     0.084 H 
ATOM    123  C7  NAG d1179      14.049 -15.016   1.794  0.00  0.00     0.214 C 
ATOM    124  C1  NAG d1179      11.691 -12.635   1.029  0.00  0.00     0.154 C 
ATOM    125  C2  NAG d1179      12.285 -13.945   0.529  0.00  0.00     0.087 C 
ATOM    126  O5  NAG d1179      10.372 -12.489   0.548  0.00  0.00    -0.349 OA
ATOM    127  O7  NAG d1179      13.509 -16.120   1.849  0.00  0.00    -0.274 OA
ATOM    128  O4  NAG d1179      10.612 -13.889  -2.818  0.00  0.00    -0.390 OA
ATOM    129  N2  NAG d1179      13.675 -14.067   0.938  0.00  0.00    -0.349 N 
ATOM    130  C8  NAG d1179      15.181 -14.701   2.723  0.00  0.00    -0.003 C 
ATOM    131  O3  NAG d1179      12.412 -15.521  -1.258  0.00  0.00    -0.348 OA
ATOM    132  C4  NAG d1179      10.703 -13.848  -1.409  0.00  0.00     0.089 C 
ATOM    133  C5  NAG d1179      10.286 -12.479  -0.867  0.00  0.00     0.089 C 
ATOM    134  O6  NAG d1179       7.935 -13.074  -0.842  0.00  0.00    -0.398 OA
ATOM    135  C3  NAG d1179      12.130 -14.164  -0.974  0.00  0.00     0.093 C 
ATOM    136  C6  NAG d1179       8.863 -12.097  -1.278  0.00  0.00     0.043 C 
ATOM    137  H   NAG d1179      12.219 -11.769   0.685  0.00  0.00     0.132 H 
ATOM    138  H   NAG d1179      11.714 -14.724   0.991  0.00  0.00     0.084 H 
ATOM    139  H   NAG d1179      10.882 -14.766  -3.134  0.00  0.00     0.210 HD
ATOM    140  H   NAG d1179      14.347 -13.443   0.578  0.00  0.00     0.163 HD
ATOM    141  H   NAG d1179      15.527 -13.706   2.539  0.00  0.00     0.040 H 
ATOM    142  H   NAG d1179      15.980 -15.394   2.559  0.00  0.00     0.040 H 
ATOM    143  H   NAG d1179      14.844 -14.780   3.736  0.00  0.00     0.040 H 
ATOM    144  H   NAG d1179      10.035 -14.583  -1.010  0.00  0.00     0.091 H 
ATOM    145  H   NAG d1179      10.950 -11.752  -1.285  0.00  0.00     0.090 H 
ATOM    146  H   NAG d1179       7.041 -12.813  -1.112  0.00  0.00     0.209 HD
ATOM    147  H   NAG d1179      12.801 -13.520  -1.502  0.00  0.00     0.091 H 
ATOM    148  H   NAG d1179       8.815 -12.018  -2.344  0.00  0.00     0.078 H 
ATOM    149  H   NAG d1179       8.615 -11.160  -0.824  0.00  0.00     0.078 H 
ATOM    150  C6  BDP d1180      13.474 -15.019  -5.836  0.00  0.00     0.206 C 
ATOM    151  O3  BDP d1180      15.067 -18.895  -3.221  0.00  0.00    -0.390 OA
ATOM    152  C1  BDP d1180      13.460 -15.673  -2.227  0.00  0.00     0.160 C 
ATOM    153  O2  BDP d1180      14.925 -16.975  -0.886  0.00  0.00    -0.388 OA
ATOM    154  C3  BDP d1180      15.000 -17.483  -3.216  0.00  0.00     0.092 C 
ATOM    155  O4  BDP d1180      15.581 -17.009  -5.495  0.00  0.00    -0.348 OA
ATOM    156  O5  BDP d1180      12.946 -15.536  -3.533  0.00  0.00    -0.340 OA
ATOM    157  C5  BDP d1180      13.976 -15.568  -4.499  0.00  0.00     0.152 C 
ATOM    158  O6B BDP d1180      12.417 -15.495  -6.315  0.00  0.00    -0.646 OA
ATOM    159  O6A BDP d1180      14.147 -14.106  -6.374  0.00  0.00    -0.646 OA
ATOM    160  C2  BDP d1180      14.117 -17.041  -2.042  0.00  0.00     0.110 C 
ATOM    161  C4  BDP d1180      14.506 -16.998  -4.582  0.00  0.00     0.103 C 
ATOM    162  H   BDP d1180      15.380 -19.207  -2.357  0.00  0.00     0.210 HD
ATOM    163  H   BDP d1180      14.195 -14.909  -2.082  0.00  0.00     0.133 H 
ATOM    164  H   BDP d1180      14.386 -16.696  -0.130  0.00  0.00     0.210 HD
ATOM    165  H   BDP d1180      15.962 -17.039  -3.070  0.00  0.00     0.091 H 
ATOM    166  H   BDP d1180      14.789 -14.932  -4.218  0.00  0.00     0.104 H 
ATOM    167  H   BDP d1180      13.328 -17.759  -1.969  0.00  0.00     0.094 H 
ATOM    168  H   BDP d1180      13.719 -17.649  -4.901  0.00  0.00     0.092 H 
ENDROOT
TORSDOF 43
ENDMDL
MODEL 61
REMARK VINA RESULT:      -5.6      5.130      8.239
REMARK  0 active torsions:
REMARK  status: ('A' for Active; 'I' for Inactive)
REMARK       I    between atoms: C1_1  and  O3_15 
REMARK       I    between atoms: C1_2  and  O3_93 
REMARK       I    between atoms: C6_3  and  C5_89 
REMARK       I    between atoms: C6_3  and  O6_76 
REMARK       I    between atoms: O3_4  and  C3_22 
REMARK       I    between atoms: C6_5  and  C5_48 
REMARK       I    between atoms: C6_5  and  O6_31 
REMARK       I    between atoms: C4_6  and  O4_74 
REMARK       I    between atoms: C7_7  and  C8_62 
REMARK       I    between atoms: C7_7  and  N2_60 
REMARK       I    between atoms: C6_8  and  C5_52 
REMARK       I    between atoms: C3_9  and  O3_38 
REMARK       I    between atoms: C1_10  and  O4_75 
REMARK       I    between atoms: C6_12  and  C5_51 
REMARK       I    between atoms: O3_13  and  C3_42 
REMARK       I    between atoms: O4_14  and  C4_84 
REMARK       I    between atoms: O3_15  and  C3_86 
REMARK       I    between atoms: C6_16  and  C5_23 
REMARK       I    between atoms: C6_16  and  O6_58 
REMARK       I    between atoms: C1_17  and  O3_63 
REMARK       I    between atoms: C2_18  and  N2_60 
REMARK       I    between atoms: C2_19  and  N2_53 
REMARK       I    between atoms: O2_20  and  C2_66 
REMARK       I    between atoms: C3_25  and  O3_93 
REMARK       I    between atoms: C7_26  and  C8_32 
REMARK       I    between atoms: C7_26  and  N2_37 
REMARK       I    between atoms: C2_28  and  N2_44 
REMARK       I    between atoms: C7_29  and  C8_54 
REMARK       I    between atoms: C7_29  and  N2_53 
REMARK       I    between atoms: O1_33  and  C1_80 
REMARK       I    between atoms: O4_34  and  C4_40 
REMARK       I    between atoms: O4_34  and  C1_92 
REMARK       I    between atoms: C7_36  and  C8_81 
REMARK       I    between atoms: C7_36  and  N2_44 
REMARK       I    between atoms: N2_37  and  C2_83 
REMARK       I    between atoms: O3_39  and  C3_61 
REMARK       I    between atoms: C1_41  and  O4_46 
REMARK       I    between atoms: O2_43  and  C2_73 
REMARK       I    between atoms: C6_45  and  C5_87 
REMARK       I    between atoms: O4_46  and  C4_67 
REMARK       I    between atoms: C4_50  and  O4_65 
REMARK       I    between atoms: C2_55  and  O2_82 
REMARK       I    between atoms: O4_57  and  C4_71 
REMARK       I    between atoms: O3_63  and  C3_85 
REMARK       I    between atoms: O4_75  and  C4_91 
REMARK       I    between atoms: C5_77  and  C6_90 
REMARK       I    between atoms: O6_79  and  C6_90 
ROOT
ATOM      1  C1  BDP d1176      13.396 -13.529  12.359  0.00  0.00     0.160 C 
ATOM      2  O3  BDP d1176      14.932 -16.255  10.265  0.00  0.00    -0.390 OA
ATOM      3  O5  BDP d1176      12.407 -13.358  11.383  0.00  0.00    -0.340 OA
ATOM      4  O6A BDP d1176      10.762 -13.435   9.231  0.00  0.00    -0.646 OA
ATOM      5  C3  BDP d1176      14.621 -14.907  10.552  0.00  0.00     0.092 C 
ATOM      6  O4  BDP d1176      14.183 -14.151   8.330  0.00  0.00    -0.348 OA
ATOM      7  C4  BDP d1176      13.563 -14.420   9.573  0.00  0.00     0.103 C 
ATOM      8  C6  BDP d1176      11.763 -12.692   9.239  0.00  0.00     0.206 C 
ATOM      9  C2  BDP d1176      14.248 -14.760  12.025  0.00  0.00     0.110 C 
ATOM     10  O6B BDP d1176      11.887 -11.622   8.608  0.00  0.00    -0.646 OA
ATOM     11  O2  BDP d1176      15.465 -14.666  12.724  0.00  0.00    -0.388 OA
ATOM     12  C5  BDP d1176      12.922 -13.143  10.101  0.00  0.00     0.152 C 
ATOM     13  H   BDP d1176      14.045 -12.680  12.392  0.00  0.00     0.133 H 
ATOM     14  H   BDP d1176      15.607 -16.570  10.887  0.00  0.00     0.210 HD
ATOM     15  H   BDP d1176      15.471 -14.272  10.410  0.00  0.00     0.091 H 
ATOM     16  H   BDP d1176      12.808 -15.169   9.455  0.00  0.00     0.092 H 
ATOM     17  H   BDP d1176      13.645 -15.601  12.298  0.00  0.00     0.094 H 
ATOM     18  H   BDP d1176      15.951 -13.883  12.422  0.00  0.00     0.210 HD
ATOM     19  H   BDP d1176      13.689 -12.397  10.100  0.00  0.00     0.104 H 
ATOM     20  C1  BDP d1178      13.620 -14.949   2.611  0.00  0.00     0.160 C 
ATOM     21  C6  BDP d1178      11.551 -17.229   0.510  0.00  0.00     0.206 C 
ATOM     22  O6B BDP d1178      10.341 -17.230   0.180  0.00  0.00    -0.646 OA
ATOM     23  O6A BDP d1178      12.325 -18.208   0.369  0.00  0.00    -0.646 OA
ATOM     24  O3  BDP d1178      13.959 -13.169  -0.646  0.00  0.00    -0.390 OA
ATOM     25  O2  BDP d1178      14.969 -13.058   1.967  0.00  0.00    -0.388 OA
ATOM     26  C5  BDP d1178      12.087 -15.921   1.096  0.00  0.00     0.152 C 
ATOM     27  C3  BDP d1178      13.327 -13.816   0.435  0.00  0.00     0.092 C 
ATOM     28  C2  BDP d1178      14.335 -14.215   1.482  0.00  0.00     0.110 C 
ATOM     29  O4  BDP d1178      11.461 -14.574  -0.738  0.00  0.00    -0.348 OA
ATOM     30  O5  BDP d1178      13.069 -16.143   2.102  0.00  0.00    -0.340 OA
ATOM     31  C4  BDP d1178      12.583 -15.049  -0.052  0.00  0.00     0.103 C 
ATOM     32  H   BDP d1178      12.803 -14.391   3.019  0.00  0.00     0.133 H 
ATOM     33  H   BDP d1178      14.429 -12.384  -0.323  0.00  0.00     0.210 HD
ATOM     34  H   BDP d1178      15.620 -13.304   2.642  0.00  0.00     0.210 HD
ATOM     35  H   BDP d1178      11.301 -15.403   1.603  0.00  0.00     0.104 H 
ATOM     36  H   BDP d1178      12.629 -13.132   0.870  0.00  0.00     0.091 H 
ATOM     37  H   BDP d1178      15.074 -14.865   1.063  0.00  0.00     0.094 H 
ATOM     38  H   BDP d1178      13.240 -15.644  -0.651  0.00  0.00     0.092 H 
ATOM     39  C6  NAG d1177      14.757 -18.702   7.062  0.00  0.00     0.043 C 
ATOM     40  O4  NAG d1177      14.248 -17.866   4.240  0.00  0.00    -0.390 OA
ATOM     41  C2  NAG d1177      14.255 -14.555   5.959  0.00  0.00     0.087 C 
ATOM     42  C3  NAG d1177      14.011 -15.593   4.872  0.00  0.00     0.093 C 
ATOM     43  C7  NAG d1177      13.994 -12.136   5.568  0.00  0.00     0.214 C 
ATOM     44  N2  NAG d1177      13.484 -13.363   5.634  0.00  0.00    -0.349 N 
ATOM     45  C8  NAG d1177      12.983 -11.030   5.594  0.00  0.00    -0.003 C 
ATOM     46  O7  NAG d1177      15.200 -11.882   5.473  0.00  0.00    -0.274 OA
ATOM     47  O6  NAG d1177      15.771 -18.487   8.027  0.00  0.00    -0.398 OA
ATOM     48  C4  NAG d1177      14.626 -16.936   5.235  0.00  0.00     0.089 C 
ATOM     49  O5  NAG d1177      14.475 -16.373   7.570  0.00  0.00    -0.349 OA
ATOM     50  C5  NAG d1177      14.152 -17.369   6.622  0.00  0.00     0.089 C 
ATOM     51  C1  NAG d1177      13.857 -15.121   7.323  0.00  0.00     0.154 C 
ATOM     52  O3  NAG d1177      14.583 -15.158   3.659  0.00  0.00    -0.348 OA
ATOM     53  H   NAG d1177      15.179 -19.196   6.212  0.00  0.00     0.078 H 
ATOM     54  H   NAG d1177      13.988 -19.307   7.494  0.00  0.00     0.078 H 
ATOM     55  H   NAG d1177      14.564 -17.561   3.375  0.00  0.00     0.210 HD
ATOM     56  H   NAG d1177      15.293 -14.301   6.008  0.00  0.00     0.084 H 
ATOM     57  H   NAG d1177      12.952 -15.709   4.771  0.00  0.00     0.091 H 
ATOM     58  H   NAG d1177      12.524 -13.472   5.452  0.00  0.00     0.163 HD
ATOM     59  H   NAG d1177      12.001 -11.447   5.680  0.00  0.00     0.040 H 
ATOM     60  H   NAG d1177      13.051 -10.463   4.689  0.00  0.00     0.040 H 
ATOM     61  H   NAG d1177      13.173 -10.392   6.431  0.00  0.00     0.040 H 
ATOM     62  H   NAG d1177      16.473 -17.938   7.643  0.00  0.00     0.209 HD
ATOM     63  H   NAG d1177      15.693 -16.872   5.274  0.00  0.00     0.091 H 
ATOM     64  H   NAG d1177      13.092 -17.502   6.564  0.00  0.00     0.090 H 
ATOM     65  H   NAG d1177      12.804 -15.306   7.342  0.00  0.00     0.132 H 
ATOM     66  C6  NAG d1175       9.267 -10.552  15.127  0.00  0.00     0.043 C 
ATOM     67  O3  NAG d1175      12.742 -13.686  13.639  0.00  0.00    -0.348 OA
ATOM     68  C2  NAG d1175      12.895 -12.733  15.831  0.00  0.00     0.087 C 
ATOM     69  O6  NAG d1175       8.988  -9.478  15.995  0.00  0.00    -0.398 OA
ATOM     70  O1  NAG d1175      12.666 -11.919  18.103  0.00  0.00    -0.369 OA
ATOM     71  C7  NAG d1175      14.815 -13.925  16.762  0.00  0.00     0.214 C 
ATOM     72  N2  NAG d1175      14.329 -12.962  15.977  0.00  0.00    -0.349 N 
ATOM     73  C5  NAG d1175      10.749 -10.888  15.250  0.00  0.00     0.089 C 
ATOM     74  O5  NAG d1175      11.023 -11.405  16.544  0.00  0.00    -0.349 OA
ATOM     75  C4  NAG d1175      11.158 -11.867  14.147  0.00  0.00     0.089 C 
ATOM     76  O4  NAG d1175      11.071 -11.172  12.917  0.00  0.00    -0.390 OA
ATOM     77  O7  NAG d1175      14.492 -15.114  16.647  0.00  0.00    -0.274 OA
ATOM     78  C1  NAG d1175      12.413 -11.601  16.748  0.00  0.00     0.151 C 
ATOM     79  C8  NAG d1175      15.807 -13.485  17.804  0.00  0.00    -0.003 C 
ATOM     80  C3  NAG d1175      12.563 -12.463  14.353  0.00  0.00     0.093 C 
ATOM     81  H   NAG d1175       8.678 -11.402  15.400  0.00  0.00     0.078 H 
ATOM     82  H   NAG d1175       9.032 -10.283  14.118  0.00  0.00     0.078 H 
ATOM     83  H   NAG d1175      12.368 -13.613  16.136  0.00  0.00     0.084 H 
ATOM     84  H   NAG d1175       9.206  -9.733  16.906  0.00  0.00     0.209 HD
ATOM     85  H   NAG d1175      13.619 -12.051  18.231  0.00  0.00     0.212 HD
ATOM     86  H   NAG d1175      14.957 -12.388  15.481  0.00  0.00     0.163 HD
ATOM     87  H   NAG d1175      11.330  -9.998  15.126  0.00  0.00     0.090 H 
ATOM     88  H   NAG d1175      10.498 -12.709  14.165  0.00  0.00     0.091 H 
ATOM     89  H   NAG d1175      11.679 -10.416  12.929  0.00  0.00     0.210 HD
ATOM     90  H   NAG d1175      12.944 -10.702  16.512  0.00  0.00     0.132 H 
ATOM     91  H   NAG d1175      15.949 -12.427  17.737  0.00  0.00     0.040 H 
ATOM     92  H   NAG d1175      16.741 -13.980  17.639  0.00  0.00     0.040 H 
ATOM     93  H   NAG d1175      15.437 -13.735  18.776  0.00  0.00     0.040 H 
ATOM     94  H   NAG d1175      13.227 -11.714  13.973  0.00  0.00     0.091 H 
ATOM     95  C4  NAG d1181       0.546 -16.684  -8.792  0.00  0.00     0.089 C 
ATOM     96  C3  NAG d1181       1.535 -17.681  -9.405  0.00  0.00     0.086 C 
ATOM     97  C6  NAG d1181       0.251 -14.699  -7.251  0.00  0.00     0.043 C 
ATOM     98  C5  NAG d1181       1.251 -15.542  -8.046  0.00  0.00     0.089 C 
ATOM     99  C7  NAG d1181       3.860 -20.120  -8.734  0.00  0.00     0.214 C 
ATOM    100  C8  NAG d1181       4.318 -20.444  -7.338  0.00  0.00    -0.003 C 
ATOM    101  N2  NAG d1181       3.680 -18.832  -9.027  0.00  0.00    -0.349 N 
ATOM    102  O3  NAG d1181       0.855 -18.853  -9.832  0.00  0.00    -0.391 OA
ATOM    103  C1  NAG d1181       3.236 -16.800  -7.756  0.00  0.00     0.154 C 
ATOM    104  O6  NAG d1181       0.813 -13.438  -6.949  0.00  0.00    -0.398 OA
ATOM    105  O5  NAG d1181       2.223 -16.040  -7.143  0.00  0.00    -0.349 OA
ATOM    106  O7  NAG d1181       3.660 -21.015  -9.560  0.00  0.00    -0.274 OA
ATOM    107  O4  NAG d1181      -0.267 -16.150  -9.812  0.00  0.00    -0.390 OA
ATOM    108  C2  NAG d1181       2.629 -18.046  -8.399  0.00  0.00     0.087 C 
ATOM    109  H   NAG d1181      -0.045 -17.214  -8.075  0.00  0.00     0.091 H 
ATOM    110  H   NAG d1181       1.992 -17.218 -10.254  0.00  0.00     0.090 H 
ATOM    111  H   NAG d1181       0.007 -15.204  -6.340  0.00  0.00     0.078 H 
ATOM    112  H   NAG d1181      -0.633 -14.558  -7.836  0.00  0.00     0.078 H 
ATOM    113  H   NAG d1181       1.724 -14.937  -8.792  0.00  0.00     0.090 H 
ATOM    114  H   NAG d1181       4.433 -19.538  -6.781  0.00  0.00     0.040 H 
ATOM    115  H   NAG d1181       5.255 -20.959  -7.381  0.00  0.00     0.040 H 
ATOM    116  H   NAG d1181       3.590 -21.067  -6.859  0.00  0.00     0.040 H 
ATOM    117  H   NAG d1181       4.274 -18.402  -9.685  0.00  0.00     0.163 HD
ATOM    118  H   NAG d1181       0.436 -19.279  -9.068  0.00  0.00     0.210 HD
ATOM    119  H   NAG d1181       3.704 -16.177  -8.490  0.00  0.00     0.132 H 
ATOM    120  H   NAG d1181       1.615 -13.560  -6.418  0.00  0.00     0.209 HD
ATOM    121  H   NAG d1181       0.286 -15.674 -10.451  0.00  0.00     0.210 HD
ATOM    122  H   NAG d1181       2.166 -18.633  -7.634  0.00  0.00     0.084 H 
ATOM    123  C7  NAG d1179       8.166 -14.853  -0.621  0.00  0.00     0.214 C 
ATOM    124  C1  NAG d1179      11.278 -15.120  -2.055  0.00  0.00     0.154 C 
ATOM    125  C2  NAG d1179       9.819 -14.842  -2.389  0.00  0.00     0.087 C 
ATOM    126  O5  NAG d1179      12.116 -14.515  -3.016  0.00  0.00    -0.349 OA
ATOM    127  O7  NAG d1179       7.685 -13.755  -0.895  0.00  0.00    -0.274 OA
ATOM    128  O4  NAG d1179      10.227 -14.991  -6.106  0.00  0.00    -0.390 OA
ATOM    129  N2  NAG d1179       8.939 -15.537  -1.463  0.00  0.00    -0.349 N 
ATOM    130  C8  NAG d1179       7.883 -15.472   0.714  0.00  0.00    -0.003 C 
ATOM    131  O3  NAG d1179       8.189 -14.551  -4.108  0.00  0.00    -0.348 OA
ATOM    132  C4  NAG d1179      10.488 -14.563  -4.786  0.00  0.00     0.089 C 
ATOM    133  C5  NAG d1179      11.890 -14.980  -4.336  0.00  0.00     0.089 C 
ATOM    134  O6  NAG d1179      12.920 -13.022  -5.327  0.00  0.00    -0.398 OA
ATOM    135  C3  NAG d1179       9.445 -15.146  -3.838  0.00  0.00     0.093 C 
ATOM    136  C6  NAG d1179      12.984 -14.435  -5.253  0.00  0.00     0.043 C 
ATOM    137  H   NAG d1179      11.529 -16.160  -2.071  0.00  0.00     0.132 H 
ATOM    138  H   NAG d1179       9.685 -13.786  -2.276  0.00  0.00     0.084 H 
ATOM    139  H   NAG d1179       9.334 -14.713  -6.365  0.00  0.00     0.210 HD
ATOM    140  H   NAG d1179       8.915 -16.521  -1.457  0.00  0.00     0.163 HD
ATOM    141  H   NAG d1179       8.377 -16.418   0.780  0.00  0.00     0.040 H 
ATOM    142  H   NAG d1179       6.827 -15.611   0.825  0.00  0.00     0.040 H 
ATOM    143  H   NAG d1179       8.241 -14.827   1.488  0.00  0.00     0.040 H 
ATOM    144  H   NAG d1179      10.435 -13.494  -4.764  0.00  0.00     0.091 H 
ATOM    145  H   NAG d1179      11.935 -16.049  -4.376  0.00  0.00     0.090 H 
ATOM    146  H   NAG d1179      13.622 -12.697  -5.912  0.00  0.00     0.209 HD
ATOM    147  H   NAG d1179       9.401 -16.205  -3.984  0.00  0.00     0.091 H 
ATOM    148  H   NAG d1179      12.856 -14.844  -6.234  0.00  0.00     0.078 H 
ATOM    149  H   NAG d1179      13.937 -14.716  -4.854  0.00  0.00     0.078 H 
ATOM    150  C6  BDP d1180       6.969 -17.257  -7.786  0.00  0.00     0.206 C 
ATOM    151  O3  BDP d1180       3.588 -14.832  -5.124  0.00  0.00    -0.390 OA
ATOM    152  C1  BDP d1180       7.221 -15.502  -4.575  0.00  0.00     0.160 C 
ATOM    153  O2  BDP d1180       5.597 -15.137  -2.882  0.00  0.00    -0.388 OA
ATOM    154  C3  BDP d1180       4.692 -15.707  -5.015  0.00  0.00     0.092 C 
ATOM    155  O4  BDP d1180       4.221 -17.234  -6.804  0.00  0.00    -0.348 OA
ATOM    156  O5  BDP d1180       7.380 -15.727  -5.958  0.00  0.00    -0.340 OA
ATOM    157  C5  BDP d1180       6.514 -16.744  -6.419  0.00  0.00     0.152 C 
ATOM    158  O6B BDP d1180       7.176 -16.419  -8.698  0.00  0.00    -0.646 OA
ATOM    159  O6A BDP d1180       7.124 -18.495  -7.916  0.00  0.00    -0.646 OA
ATOM    160  C2  BDP d1180       5.818 -14.979  -4.267  0.00  0.00     0.110 C 
ATOM    161  C4  BDP d1180       5.090 -16.194  -6.412  0.00  0.00     0.103 C 
ATOM    162  H   BDP d1180       3.333 -14.521  -4.241  0.00  0.00     0.210 HD
ATOM    163  H   BDP d1180       7.365 -16.436  -4.073  0.00  0.00     0.133 H 
ATOM    164  H   BDP d1180       6.299 -14.684  -2.389  0.00  0.00     0.210 HD
ATOM    165  H   BDP d1180       4.454 -16.582  -4.448  0.00  0.00     0.091 H 
ATOM    166  H   BDP d1180       6.539 -17.596  -5.773  0.00  0.00     0.104 H 
ATOM    167  H   BDP d1180       5.787 -13.960  -4.589  0.00  0.00     0.094 H 
ATOM    168  H   BDP d1180       5.028 -15.363  -7.083  0.00  0.00     0.092 H 
ENDROOT
TORSDOF 43
ENDMDL
MODEL 62
REMARK VINA RESULT:      -5.6      6.359      8.723
REMARK  0 active torsions:
REMARK  status: ('A' for Active; 'I' for Inactive)
REMARK       I    between atoms: C1_1  and  O3_15 
REMARK       I    between atoms: C1_2  and  O3_93 
REMARK       I    between atoms: C6_3  and  C5_89 
REMARK       I    between atoms: C6_3  and  O6_76 
REMARK       I    between atoms: O3_4  and  C3_22 
REMARK       I    between atoms: C6_5  and  C5_48 
REMARK       I    between atoms: C6_5  and  O6_31 
REMARK       I    between atoms: C4_6  and  O4_74 
REMARK       I    between atoms: C7_7  and  C8_62 
REMARK       I    between atoms: C7_7  and  N2_60 
REMARK       I    between atoms: C6_8  and  C5_52 
REMARK       I    between atoms: C3_9  and  O3_38 
REMARK       I    between atoms: C1_10  and  O4_75 
REMARK       I    between atoms: C6_12  and  C5_51 
REMARK       I    between atoms: O3_13  and  C3_42 
REMARK       I    between atoms: O4_14  and  C4_84 
REMARK       I    between atoms: O3_15  and  C3_86 
REMARK       I    between atoms: C6_16  and  C5_23 
REMARK       I    between atoms: C6_16  and  O6_58 
REMARK       I    between atoms: C1_17  and  O3_63 
REMARK       I    between atoms: C2_18  and  N2_60 
REMARK       I    between atoms: C2_19  and  N2_53 
REMARK       I    between atoms: O2_20  and  C2_66 
REMARK       I    between atoms: C3_25  and  O3_93 
REMARK       I    between atoms: C7_26  and  C8_32 
REMARK       I    between atoms: C7_26  and  N2_37 
REMARK       I    between atoms: C2_28  and  N2_44 
REMARK       I    between atoms: C7_29  and  C8_54 
REMARK       I    between atoms: C7_29  and  N2_53 
REMARK       I    between atoms: O1_33  and  C1_80 
REMARK       I    between atoms: O4_34  and  C4_40 
REMARK       I    between atoms: O4_34  and  C1_92 
REMARK       I    between atoms: C7_36  and  C8_81 
REMARK       I    between atoms: C7_36  and  N2_44 
REMARK       I    between atoms: N2_37  and  C2_83 
REMARK       I    between atoms: O3_39  and  C3_61 
REMARK       I    between atoms: C1_41  and  O4_46 
REMARK       I    between atoms: O2_43  and  C2_73 
REMARK       I    between atoms: C6_45  and  C5_87 
REMARK       I    between atoms: O4_46  and  C4_67 
REMARK       I    between atoms: C4_50  and  O4_65 
REMARK       I    between atoms: C2_55  and  O2_82 
REMARK       I    between atoms: O4_57  and  C4_71 
REMARK       I    between atoms: O3_63  and  C3_85 
REMARK       I    between atoms: O4_75  and  C4_91 
REMARK       I    between atoms: C5_77  and  C6_90 
REMARK       I    between atoms: O6_79  and  C6_90 
ROOT
ATOM      1  C1  BDP d1176      14.377 -13.032  12.782  0.00  0.00     0.160 C 
ATOM      2  O3  BDP d1176      15.063 -16.388  11.220  0.00  0.00    -0.390 OA
ATOM      3  O5  BDP d1176      13.464 -12.758  11.756  0.00  0.00    -0.340 OA
ATOM      4  O6A BDP d1176      11.836 -12.735   9.590  0.00  0.00    -0.646 OA
ATOM      5  C3  BDP d1176      15.145 -14.978  11.270  0.00  0.00     0.092 C 
ATOM      6  O4  BDP d1176      14.909 -14.514   8.939  0.00  0.00    -0.348 OA
ATOM      7  C4  BDP d1176      14.254 -14.387  10.187  0.00  0.00     0.103 C 
ATOM      8  C6  BDP d1176      13.005 -12.309   9.511  0.00  0.00     0.206 C 
ATOM      9  C2  BDP d1176      14.847 -14.489  12.685  0.00  0.00     0.110 C 
ATOM     10  O6B BDP d1176      13.415 -11.437   8.717  0.00  0.00    -0.646 OA
ATOM     11  O2  BDP d1176      16.051 -14.621  13.401  0.00  0.00    -0.388 OA
ATOM     12  C5  BDP d1176      14.003 -12.913  10.476  0.00  0.00     0.152 C 
ATOM     13  H   BDP d1176      15.239 -12.403  12.697  0.00  0.00     0.133 H 
ATOM     14  H   BDP d1176      15.631 -16.769  11.909  0.00  0.00     0.210 HD
ATOM     15  H   BDP d1176      16.137 -14.637  11.056  0.00  0.00     0.091 H 
ATOM     16  H   BDP d1176      13.318 -14.906  10.167  0.00  0.00     0.092 H 
ATOM     17  H   BDP d1176      14.036 -15.071  13.071  0.00  0.00     0.094 H 
ATOM     18  H   BDP d1176      16.732 -14.066  12.991  0.00  0.00     0.210 HD
ATOM     19  H   BDP d1176      14.948 -12.421  10.379  0.00  0.00     0.104 H 
ATOM     20  C1  BDP d1178      14.074 -16.072   3.414  0.00  0.00     0.160 C 
ATOM     21  C6  BDP d1178      11.424 -18.006   1.645  0.00  0.00     0.206 C 
ATOM     22  O6B BDP d1178      10.257 -17.726   1.278  0.00  0.00    -0.646 OA
ATOM     23  O6A BDP d1178      11.891 -19.170   1.694  0.00  0.00    -0.646 OA
ATOM     24  O3  BDP d1178      14.857 -15.028  -0.078  0.00  0.00    -0.390 OA
ATOM     25  O2  BDP d1178      15.890 -14.765   2.515  0.00  0.00    -0.388 OA
ATOM     26  C5  BDP d1178      12.312 -16.820   2.026  0.00  0.00     0.152 C 
ATOM     27  C3  BDP d1178      14.082 -15.284   1.072  0.00  0.00     0.092 C 
ATOM     28  C2  BDP d1178      14.952 -15.765   2.206  0.00  0.00     0.110 C 
ATOM     29  O4  BDP d1178      12.064 -15.678  -0.025  0.00  0.00    -0.348 OA
ATOM     30  O5  BDP d1178      13.205 -17.134   3.089  0.00  0.00    -0.340 OA
ATOM     31  C4  BDP d1178      13.018 -16.325   0.769  0.00  0.00     0.103 C 
ATOM     32  H   BDP d1178      13.451 -15.249   3.695  0.00  0.00     0.133 H 
ATOM     33  H   BDP d1178      15.531 -14.363   0.128  0.00  0.00     0.210 HD
ATOM     34  H   BDP d1178      16.454 -15.066   3.244  0.00  0.00     0.210 HD
ATOM     35  H   BDP d1178      11.708 -16.025   2.414  0.00  0.00     0.104 H 
ATOM     36  H   BDP d1178      13.609 -14.370   1.364  0.00  0.00     0.091 H 
ATOM     37  H   BDP d1178      15.474 -16.656   1.925  0.00  0.00     0.094 H 
ATOM     38  H   BDP d1178      13.474 -17.171   0.299  0.00  0.00     0.092 H 
ATOM     39  C6  NAG d1177      14.171 -19.191   8.458  0.00  0.00     0.043 C 
ATOM     40  O4  NAG d1177      13.881 -18.732   5.521  0.00  0.00    -0.390 OA
ATOM     41  C2  NAG d1177      14.835 -15.314   6.672  0.00  0.00     0.087 C 
ATOM     42  C3  NAG d1177      14.297 -16.410   5.762  0.00  0.00     0.093 C 
ATOM     43  C7  NAG d1177      15.257 -13.019   5.879  0.00  0.00     0.214 C 
ATOM     44  N2  NAG d1177      14.425 -14.027   6.128  0.00  0.00    -0.349 N 
ATOM     45  C8  NAG d1177      14.596 -11.688   5.687  0.00  0.00    -0.003 C 
ATOM     46  O7  NAG d1177      16.484 -13.129   5.786  0.00  0.00    -0.274 OA
ATOM     47  O6  NAG d1177      15.216 -19.108   9.410  0.00  0.00    -0.398 OA
ATOM     48  C4  NAG d1177      14.517 -17.790   6.363  0.00  0.00     0.089 C 
ATOM     49  O5  NAG d1177      14.559 -16.825   8.567  0.00  0.00    -0.349 OA
ATOM     50  C5  NAG d1177      13.958 -17.836   7.785  0.00  0.00     0.089 C 
ATOM     51  C1  NAG d1177      14.312 -15.510   8.095  0.00  0.00     0.154 C 
ATOM     52  O3  NAG d1177      14.953 -16.361   4.515  0.00  0.00    -0.348 OA
ATOM     53  H   NAG d1177      14.427 -19.918   7.717  0.00  0.00     0.078 H 
ATOM     54  H   NAG d1177      13.268 -19.477   8.957  0.00  0.00     0.078 H 
ATOM     55  H   NAG d1177      14.259 -18.676   4.630  0.00  0.00     0.210 HD
ATOM     56  H   NAG d1177      15.904 -15.354   6.714  0.00  0.00     0.084 H 
ATOM     57  H   NAG d1177      13.247 -16.243   5.644  0.00  0.00     0.091 H 
ATOM     58  H   NAG d1177      13.470 -13.894   5.933  0.00  0.00     0.163 HD
ATOM     59  H   NAG d1177      13.538 -11.795   5.806  0.00  0.00     0.040 H 
ATOM     60  H   NAG d1177      14.809 -11.322   4.704  0.00  0.00     0.040 H 
ATOM     61  H   NAG d1177      14.967 -10.996   6.414  0.00  0.00     0.040 H 
ATOM     62  H   NAG d1177      16.039 -18.848   8.966  0.00  0.00     0.209 HD
ATOM     63  H   NAG d1177      15.560 -18.020   6.428  0.00  0.00     0.091 H 
ATOM     64  H   NAG d1177      12.902 -17.677   7.712  0.00  0.00     0.090 H 
ATOM     65  H   NAG d1177      13.249 -15.389   8.107  0.00  0.00     0.132 H 
ATOM     66  C6  NAG d1175      11.282  -8.604  14.875  0.00  0.00     0.043 C 
ATOM     67  O3  NAG d1175      13.722 -12.784  14.046  0.00  0.00    -0.348 OA
ATOM     68  C2  NAG d1175      14.163 -11.557  16.055  0.00  0.00     0.087 C 
ATOM     69  O6  NAG d1175      11.325  -7.365  15.545  0.00  0.00    -0.398 OA
ATOM     70  O1  NAG d1175      14.199 -10.343  18.153  0.00  0.00    -0.369 OA
ATOM     71  C7  NAG d1175      15.684 -13.062  17.237  0.00  0.00     0.214 C 
ATOM     72  N2  NAG d1175      15.477 -12.148  16.287  0.00  0.00    -0.349 N 
ATOM     73  C5  NAG d1175      12.611  -9.313  15.104  0.00  0.00     0.089 C 
ATOM     74  O5  NAG d1175      12.746  -9.661  16.474  0.00  0.00    -0.349 OA
ATOM     75  C4  NAG d1175      12.716 -10.538  14.192  0.00  0.00     0.089 C 
ATOM     76  O4  NAG d1175      12.812 -10.062  12.862  0.00  0.00    -0.390 OA
ATOM     77  O7  NAG d1175      15.039 -14.115  17.308  0.00  0.00    -0.274 OA
ATOM     78  C1  NAG d1175      14.028 -10.199  16.756  0.00  0.00     0.151 C 
ATOM     79  C8  NAG d1175      16.772 -12.747  18.226  0.00  0.00    -0.003 C 
ATOM     80  C3  NAG d1175      13.901 -11.458  14.542  0.00  0.00     0.093 C 
ATOM     81  H   NAG d1175      10.482  -9.199  15.264  0.00  0.00     0.078 H 
ATOM     82  H   NAG d1175      11.118  -8.454  13.828  0.00  0.00     0.078 H 
ATOM     83  H   NAG d1175      13.415 -12.191  16.482  0.00  0.00     0.084 H 
ATOM     84  H   NAG d1175      11.474  -7.514  16.492  0.00  0.00     0.209 HD
ATOM     85  H   NAG d1175      15.078 -10.711  18.335  0.00  0.00     0.212 HD
ATOM     86  H   NAG d1175      16.234 -11.863  15.726  0.00  0.00     0.163 HD
ATOM     87  H   NAG d1175      13.416  -8.654  14.856  0.00  0.00     0.090 H 
ATOM     88  H   NAG d1175      11.847 -11.148  14.325  0.00  0.00     0.091 H 
ATOM     89  H   NAG d1175      13.608  -9.514  12.772  0.00  0.00     0.210 HD
ATOM     90  H   NAG d1175      14.787  -9.535  16.395  0.00  0.00     0.132 H 
ATOM     91  H   NAG d1175      17.204 -11.796  17.992  0.00  0.00     0.040 H 
ATOM     92  H   NAG d1175      17.528 -13.502  18.178  0.00  0.00     0.040 H 
ATOM     93  H   NAG d1175      16.360 -12.717  19.213  0.00  0.00     0.040 H 
ATOM     94  H   NAG d1175      14.743 -10.997  14.069  0.00  0.00     0.091 H 
ATOM     95  C4  NAG d1181       0.896 -15.993  -8.001  0.00  0.00     0.089 C 
ATOM     96  C3  NAG d1181       1.558 -17.313  -8.407  0.00  0.00     0.086 C 
ATOM     97  C6  NAG d1181       1.187 -13.775  -6.818  0.00  0.00     0.043 C 
ATOM     98  C5  NAG d1181       1.901 -14.983  -7.429  0.00  0.00     0.089 C 
ATOM     99  C7  NAG d1181       3.117 -20.154  -7.262  0.00  0.00     0.214 C 
ATOM    100  C8  NAG d1181       3.483 -20.354  -5.817  0.00  0.00    -0.003 C 
ATOM    101  N2  NAG d1181       3.301 -18.935  -7.769  0.00  0.00    -0.349 N 
ATOM    102  O3  NAG d1181       0.573 -18.304  -8.659  0.00  0.00    -0.391 OA
ATOM    103  C1  NAG d1181       3.459 -16.677  -6.866  0.00  0.00     0.154 C 
ATOM    104  O6  NAG d1181       2.083 -12.687  -6.709  0.00  0.00    -0.398 OA
ATOM    105  O5  NAG d1181       2.707 -15.573  -6.422  0.00  0.00    -0.349 OA
ATOM    106  O7  NAG d1181       2.664 -21.083  -7.936  0.00  0.00    -0.274 OA
ATOM    107  O4  NAG d1181       0.252 -15.433  -9.123  0.00  0.00    -0.390 OA
ATOM    108  C2  NAG d1181       2.519 -17.794  -7.317  0.00  0.00     0.087 C 
ATOM    109  H   NAG d1181       0.189 -16.210  -7.228  0.00  0.00     0.091 H 
ATOM    110  H   NAG d1181       2.117 -17.145  -9.304  0.00  0.00     0.090 H 
ATOM    111  H   NAG d1181       0.823 -14.032  -5.846  0.00  0.00     0.078 H 
ATOM    112  H   NAG d1181       0.371 -13.494  -7.450  0.00  0.00     0.078 H 
ATOM    113  H   NAG d1181       2.516 -14.668  -8.247  0.00  0.00     0.090 H 
ATOM    114  H   NAG d1181       3.854 -19.435  -5.413  0.00  0.00     0.040 H 
ATOM    115  H   NAG d1181       4.238 -21.108  -5.741  0.00  0.00     0.040 H 
ATOM    116  H   NAG d1181       2.616 -20.660  -5.268  0.00  0.00     0.040 H 
ATOM    117  H   NAG d1181       3.983 -18.804  -8.468  0.00  0.00     0.163 HD
ATOM    118  H   NAG d1181       0.060 -18.463  -7.850  0.00  0.00     0.210 HD
ATOM    119  H   NAG d1181       4.073 -16.339  -7.675  0.00  0.00     0.132 H 
ATOM    120  H   NAG d1181       2.825 -12.937  -6.137  0.00  0.00     0.209 HD
ATOM    121  H   NAG d1181       0.908 -15.243  -9.811  0.00  0.00     0.210 HD
ATOM    122  H   NAG d1181       1.920 -18.092  -6.482  0.00  0.00     0.084 H 
ATOM    123  C7  NAG d1179       8.824 -15.008   0.020  0.00  0.00     0.214 C 
ATOM    124  C1  NAG d1179      11.720 -16.365  -1.240  0.00  0.00     0.154 C 
ATOM    125  C2  NAG d1179      10.392 -15.753  -1.666  0.00  0.00     0.087 C 
ATOM    126  O5  NAG d1179      12.681 -16.187  -2.258  0.00  0.00    -0.349 OA
ATOM    127  O7  NAG d1179       8.667 -13.882  -0.447  0.00  0.00    -0.274 OA
ATOM    128  O4  NAG d1179      10.697 -16.630  -5.292  0.00  0.00    -0.390 OA
ATOM    129  N2  NAG d1179       9.365 -16.011  -0.670  0.00  0.00    -0.349 N 
ATOM    130  C8  NAG d1179       8.396 -15.290   1.428  0.00  0.00    -0.003 C 
ATOM    131  O3  NAG d1179       8.888 -15.314  -3.466  0.00  0.00    -0.348 OA
ATOM    132  C4  NAG d1179      11.083 -16.077  -4.051  0.00  0.00     0.089 C 
ATOM    133  C5  NAG d1179      12.318 -16.785  -3.489  0.00  0.00     0.089 C 
ATOM    134  O6  NAG d1179      13.843 -15.386  -4.753  0.00  0.00    -0.398 OA
ATOM    135  C3  NAG d1179       9.931 -16.180  -3.058  0.00  0.00     0.093 C 
ATOM    136  C6  NAG d1179      13.510 -16.728  -4.445  0.00  0.00     0.043 C 
ATOM    137  H   NAG d1179      11.669 -17.422  -1.076  0.00  0.00     0.132 H 
ATOM    138  H   NAG d1179      10.561 -14.698  -1.733  0.00  0.00     0.084 H 
ATOM    139  H   NAG d1179       9.914 -16.163  -5.624  0.00  0.00     0.210 HD
ATOM    140  H   NAG d1179       9.066 -16.934  -0.503  0.00  0.00     0.163 HD
ATOM    141  H   NAG d1179       8.607 -16.311   1.667  0.00  0.00     0.040 H 
ATOM    142  H   NAG d1179       7.346 -15.110   1.524  0.00  0.00     0.040 H 
ATOM    143  H   NAG d1179       8.930 -14.650   2.098  0.00  0.00     0.040 H 
ATOM    144  H   NAG d1179      11.332 -15.048  -4.207  0.00  0.00     0.091 H 
ATOM    145  H   NAG d1179      12.061 -17.816  -3.352  0.00  0.00     0.090 H 
ATOM    146  H   NAG d1179      14.600 -15.371  -5.358  0.00  0.00     0.209 HD
ATOM    147  H   NAG d1179       9.591 -17.193  -3.029  0.00  0.00     0.091 H 
ATOM    148  H   NAG d1179      13.260 -17.243  -5.349  0.00  0.00     0.078 H 
ATOM    149  H   NAG d1179      14.351 -17.191  -3.972  0.00  0.00     0.078 H 
ATOM    150  C6  BDP d1180       6.914 -18.151  -6.690  0.00  0.00     0.206 C 
ATOM    151  O3  BDP d1180       4.380 -14.471  -4.583  0.00  0.00    -0.390 OA
ATOM    152  C1  BDP d1180       7.687 -16.022  -3.804  0.00  0.00     0.160 C 
ATOM    153  O2  BDP d1180       6.251 -14.942  -2.252  0.00  0.00    -0.388 OA
ATOM    154  C3  BDP d1180       5.197 -15.587  -4.293  0.00  0.00     0.092 C 
ATOM    155  O4  BDP d1180       4.295 -17.200  -5.821  0.00  0.00    -0.348 OA
ATOM    156  O5  BDP d1180       7.760 -16.512  -5.124  0.00  0.00    -0.340 OA
ATOM    157  C5  BDP d1180       6.638 -17.309  -5.442  0.00  0.00     0.152 C 
ATOM    158  O6B BDP d1180       7.335 -17.568  -7.719  0.00  0.00    -0.646 OA
ATOM    159  O6A BDP d1180       6.715 -19.387  -6.608  0.00  0.00    -0.646 OA
ATOM    160  C2  BDP d1180       6.490 -15.086  -3.636  0.00  0.00     0.110 C 
ATOM    161  C4  BDP d1180       5.424 -16.392  -5.576  0.00  0.00     0.103 C 
ATOM    162  H   BDP d1180       4.233 -13.958  -3.772  0.00  0.00     0.210 HD
ATOM    163  H   BDP d1180       7.570 -16.861  -3.150  0.00  0.00     0.133 H 
ATOM    164  H   BDP d1180       7.058 -14.626  -1.815  0.00  0.00     0.210 HD
ATOM    165  H   BDP d1180       4.730 -16.253  -3.599  0.00  0.00     0.091 H 
ATOM    166  H   BDP d1180       6.432 -18.014  -4.664  0.00  0.00     0.104 H 
ATOM    167  H   BDP d1180       6.742 -14.167  -4.122  0.00  0.00     0.094 H 
ATOM    168  H   BDP d1180       5.589 -15.701  -6.376  0.00  0.00     0.092 H 
ENDROOT
TORSDOF 43
ENDMDL
MODEL 63
REMARK VINA RESULT:      -5.5      5.208     19.288
REMARK  0 active torsions:
REMARK  status: ('A' for Active; 'I' for Inactive)
REMARK       I    between atoms: C1_1  and  O3_15 
REMARK       I    between atoms: C1_2  and  O3_93 
REMARK       I    between atoms: C6_3  and  C5_89 
REMARK       I    between atoms: C6_3  and  O6_76 
REMARK       I    between atoms: O3_4  and  C3_22 
REMARK       I    between atoms: C6_5  and  C5_48 
REMARK       I    between atoms: C6_5  and  O6_31 
REMARK       I    between atoms: C4_6  and  O4_74 
REMARK       I    between atoms: C7_7  and  C8_62 
REMARK       I    between atoms: C7_7  and  N2_60 
REMARK       I    between atoms: C6_8  and  C5_52 
REMARK       I    between atoms: C3_9  and  O3_38 
REMARK       I    between atoms: C1_10  and  O4_75 
REMARK       I    between atoms: C6_12  and  C5_51 
REMARK       I    between atoms: O3_13  and  C3_42 
REMARK       I    between atoms: O4_14  and  C4_84 
REMARK       I    between atoms: O3_15  and  C3_86 
REMARK       I    between atoms: C6_16  and  C5_23 
REMARK       I    between atoms: C6_16  and  O6_58 
REMARK       I    between atoms: C1_17  and  O3_63 
REMARK       I    between atoms: C2_18  and  N2_60 
REMARK       I    between atoms: C2_19  and  N2_53 
REMARK       I    between atoms: O2_20  and  C2_66 
REMARK       I    between atoms: C3_25  and  O3_93 
REMARK       I    between atoms: C7_26  and  C8_32 
REMARK       I    between atoms: C7_26  and  N2_37 
REMARK       I    between atoms: C2_28  and  N2_44 
REMARK       I    between atoms: C7_29  and  C8_54 
REMARK       I    between atoms: C7_29  and  N2_53 
REMARK       I    between atoms: O1_33  and  C1_80 
REMARK       I    between atoms: O4_34  and  C4_40 
REMARK       I    between atoms: O4_34  and  C1_92 
REMARK       I    between atoms: C7_36  and  C8_81 
REMARK       I    between atoms: C7_36  and  N2_44 
REMARK       I    between atoms: N2_37  and  C2_83 
REMARK       I    between atoms: O3_39  and  C3_61 
REMARK       I    between atoms: C1_41  and  O4_46 
REMARK       I    between atoms: O2_43  and  C2_73 
REMARK       I    between atoms: C6_45  and  C5_87 
REMARK       I    between atoms: O4_46  and  C4_67 
REMARK       I    between atoms: C4_50  and  O4_65 
REMARK       I    between atoms: C2_55  and  O2_82 
REMARK       I    between atoms: O4_57  and  C4_71 
REMARK       I    between atoms: O3_63  and  C3_85 
REMARK       I    between atoms: O4_75  and  C4_91 
REMARK       I    between atoms: C5_77  and  C6_90 
REMARK       I    between atoms: O6_79  and  C6_90 
ROOT
ATOM      1  C1  BDP d1176      12.612 -19.375   0.433  0.00  0.00     0.160 C 
ATOM      2  O3  BDP d1176      15.599 -17.965   2.240  0.00  0.00    -0.390 OA
ATOM      3  O5  BDP d1176      11.780 -18.847   1.428  0.00  0.00    -0.340 OA
ATOM      4  O6A BDP d1176      10.646 -17.639   3.572  0.00  0.00    -0.646 OA
ATOM      5  C3  BDP d1176      14.529 -18.875   2.089  0.00  0.00     0.092 C 
ATOM      6  O4  BDP d1176      13.869 -19.050   4.377  0.00  0.00    -0.348 OA
ATOM      7  C4  BDP d1176      13.454 -18.557   3.118  0.00  0.00     0.103 C 
ATOM      8  C6  BDP d1176      11.005 -18.832   3.631  0.00  0.00     0.206 C 
ATOM      9  C2  BDP d1176      14.048 -18.879   0.640  0.00  0.00     0.110 C 
ATOM     10  O6B BDP d1176      10.507 -19.712   4.364  0.00  0.00    -0.646 OA
ATOM     11  O2  BDP d1176      14.923 -19.735  -0.054  0.00  0.00    -0.388 OA
ATOM     12  C5  BDP d1176      12.147 -19.231   2.721  0.00  0.00     0.152 C 
ATOM     13  H   BDP d1176      12.624 -20.444   0.480  0.00  0.00     0.133 H 
ATOM     14  H   BDP d1176      16.287 -18.164   1.586  0.00  0.00     0.210 HD
ATOM     15  H   BDP d1176      14.840 -19.880   2.286  0.00  0.00     0.091 H 
ATOM     16  H   BDP d1176      13.303 -17.499   3.167  0.00  0.00     0.092 H 
ATOM     17  H   BDP d1176      14.049 -17.868   0.290  0.00  0.00     0.094 H 
ATOM     18  H   BDP d1176      14.865 -20.628   0.320  0.00  0.00     0.210 HD
ATOM     19  H   BDP d1176      12.317 -20.285   2.790  0.00  0.00     0.104 H 
ATOM     20  C1  BDP d1178      14.260 -17.649   9.993  0.00  0.00     0.160 C 
ATOM     21  C6  BDP d1178      14.094 -14.434  11.874  0.00  0.00     0.206 C 
ATOM     22  O6B BDP d1178      13.147 -13.684  12.210  0.00  0.00    -0.646 OA
ATOM     23  O6A BDP d1178      15.306 -14.107  11.913  0.00  0.00    -0.646 OA
ATOM     24  O3  BDP d1178      13.679 -19.027  13.408  0.00  0.00    -0.390 OA
ATOM     25  O2  BDP d1178      14.254 -19.916  10.811  0.00  0.00    -0.388 OA
ATOM     26  C5  BDP d1178      13.708 -15.842  11.416  0.00  0.00     0.152 C 
ATOM     27  C3  BDP d1178      13.489 -18.213  12.272  0.00  0.00     0.092 C 
ATOM     28  C2  BDP d1178      14.467 -18.578  11.184  0.00  0.00     0.110 C 
ATOM     29  O4  BDP d1178      12.520 -16.405  13.377  0.00  0.00    -0.348 OA
ATOM     30  O5  BDP d1178      14.562 -16.328  10.387  0.00  0.00    -0.340 OA
ATOM     31  C4  BDP d1178      13.659 -16.749  12.640  0.00  0.00     0.103 C 
ATOM     32  H   BDP d1178      13.247 -17.635   9.648  0.00  0.00     0.133 H 
ATOM     33  H   BDP d1178      13.567 -19.959  13.160  0.00  0.00     0.210 HD
ATOM     34  H   BDP d1178      14.879 -20.160  10.111  0.00  0.00     0.210 HD
ATOM     35  H   BDP d1178      12.737 -15.823  10.967  0.00  0.00     0.104 H 
ATOM     36  H   BDP d1178      12.495 -18.374  11.911  0.00  0.00     0.091 H 
ATOM     37  H   BDP d1178      15.473 -18.470  11.533  0.00  0.00     0.094 H 
ATOM     38  H   BDP d1178      14.577 -16.623  13.174  0.00  0.00     0.092 H 
ATOM     39  C6  NAG d1177      17.120 -15.670   5.189  0.00  0.00     0.043 C 
ATOM     40  O4  NAG d1177      16.395 -15.820   8.083  0.00  0.00    -0.390 OA
ATOM     41  C2  NAG d1177      14.319 -18.593   6.696  0.00  0.00     0.087 C 
ATOM     42  C3  NAG d1177      14.811 -17.538   7.678  0.00  0.00     0.093 C 
ATOM     43  C7  NAG d1177      12.696 -20.337   7.325  0.00  0.00     0.214 C 
ATOM     44  N2  NAG d1177      13.013 -19.058   7.142  0.00  0.00    -0.349 N 
ATOM     45  C8  NAG d1177      11.225 -20.615   7.414  0.00  0.00    -0.003 C 
ATOM     46  O7  NAG d1177      13.515 -21.254   7.437  0.00  0.00    -0.274 OA
ATOM     47  O6  NAG d1177      17.743 -16.520   4.243  0.00  0.00    -0.398 OA
ATOM     48  C4  NAG d1177      16.081 -16.863   7.181  0.00  0.00     0.089 C 
ATOM     49  O5  NAG d1177      15.476 -17.396   4.913  0.00  0.00    -0.349 OA
ATOM     50  C5  NAG d1177      15.871 -16.337   5.761  0.00  0.00     0.089 C 
ATOM     51  C1  NAG d1177      14.251 -18.006   5.286  0.00  0.00     0.154 C 
ATOM     52  O3  NAG d1177      15.088 -18.137   8.924  0.00  0.00    -0.348 OA
ATOM     53  H   NAG d1177      17.806 -15.465   5.983  0.00  0.00     0.078 H 
ATOM     54  H   NAG d1177      16.837 -14.759   4.704  0.00  0.00     0.078 H 
ATOM     55  H   NAG d1177      16.522 -16.189   8.971  0.00  0.00     0.210 HD
ATOM     56  H   NAG d1177      14.996 -19.422   6.666  0.00  0.00     0.084 H 
ATOM     57  H   NAG d1177      14.039 -16.804   7.774  0.00  0.00     0.091 H 
ATOM     58  H   NAG d1177      12.321 -18.382   7.318  0.00  0.00     0.163 HD
ATOM     59  H   NAG d1177      10.681 -19.701   7.294  0.00  0.00     0.040 H 
ATOM     60  H   NAG d1177      11.000 -21.041   8.369  0.00  0.00     0.040 H 
ATOM     61  H   NAG d1177      10.944 -21.300   6.642  0.00  0.00     0.040 H 
ATOM     62  H   NAG d1177      18.002 -17.349   4.674  0.00  0.00     0.209 HD
ATOM     63  H   NAG d1177      16.895 -17.556   7.142  0.00  0.00     0.091 H 
ATOM     64  H   NAG d1177      15.104 -15.593   5.813  0.00  0.00     0.090 H 
ATOM     65  H   NAG d1177      13.516 -17.229   5.256  0.00  0.00     0.132 H 
ATOM     66  C6  NAG d1175       7.356 -19.484  -2.002  0.00  0.00     0.043 C 
ATOM     67  O3  NAG d1175      12.100 -18.954  -0.851  0.00  0.00    -0.348 OA
ATOM     68  C2  NAG d1175      11.515 -19.970  -2.940  0.00  0.00     0.087 C 
ATOM     69  O6  NAG d1175       6.437 -20.238  -2.760  0.00  0.00    -0.398 OA
ATOM     70  O1  NAG d1175      10.702 -20.652  -5.120  0.00  0.00    -0.369 OA
ATOM     71  C7  NAG d1175      13.703 -20.239  -3.996  0.00  0.00     0.214 C 
ATOM     72  N2  NAG d1175      12.790 -20.657  -3.117  0.00  0.00    -0.349 N 
ATOM     73  C5  NAG d1175       8.735 -20.112  -2.167  0.00  0.00     0.089 C 
ATOM     74  O5  NAG d1175       9.180 -19.961  -3.507  0.00  0.00    -0.349 OA
ATOM     75  C4  NAG d1175       9.716 -19.494  -1.169  0.00  0.00     0.089 C 
ATOM     76  O4  NAG d1175       9.311 -19.905   0.125  0.00  0.00    -0.390 OA
ATOM     77  O7  NAG d1175      14.159 -19.089  -3.997  0.00  0.00    -0.274 OA
ATOM     78  C1  NAG d1175      10.397 -20.652  -3.739  0.00  0.00     0.151 C 
ATOM     79  C8  NAG d1175      14.169 -21.261  -4.996  0.00  0.00    -0.003 C 
ATOM     80  C3  NAG d1175      11.183 -19.876  -1.441  0.00  0.00     0.093 C 
ATOM     81  H   NAG d1175       7.373 -18.474  -2.354  0.00  0.00     0.078 H 
ATOM     82  H   NAG d1175       7.072 -19.482  -0.971  0.00  0.00     0.078 H 
ATOM     83  H   NAG d1175      11.597 -18.976  -3.327  0.00  0.00     0.084 H 
ATOM     84  H   NAG d1175       6.706 -20.233  -3.692  0.00  0.00     0.209 HD
ATOM     85  H   NAG d1175      11.535 -21.126  -5.267  0.00  0.00     0.212 HD
ATOM     86  H   NAG d1175      12.983 -21.453  -2.572  0.00  0.00     0.163 HD
ATOM     87  H   NAG d1175       8.678 -21.160  -1.960  0.00  0.00     0.090 H 
ATOM     88  H   NAG d1175       9.687 -18.429  -1.264  0.00  0.00     0.091 H 
ATOM     89  H   NAG d1175       9.347 -20.873   0.182  0.00  0.00     0.210 HD
ATOM     90  H   NAG d1175      10.301 -21.670  -3.420  0.00  0.00     0.132 H 
ATOM     91  H   NAG d1175      13.656 -22.185  -4.827  0.00  0.00     0.040 H 
ATOM     92  H   NAG d1175      15.222 -21.413  -4.886  0.00  0.00     0.040 H 
ATOM     93  H   NAG d1175      13.959 -20.913  -5.986  0.00  0.00     0.040 H 
ATOM     94  H   NAG d1175      11.293 -20.842  -0.994  0.00  0.00     0.091 H 
ATOM     95  C4  NAG d1181       5.551  -7.584  21.255  0.00  0.00     0.089 C 
ATOM     96  C3  NAG d1181       6.975  -7.335  21.761  0.00  0.00     0.086 C 
ATOM     97  C6  NAG d1181       4.034  -9.105  19.918  0.00  0.00     0.043 C 
ATOM     98  C5  NAG d1181       5.388  -8.972  20.620  0.00  0.00     0.089 C 
ATOM     99  C7  NAG d1181      10.247  -6.833  20.839  0.00  0.00     0.214 C 
ATOM    100  C8  NAG d1181      10.718  -6.953  19.415  0.00  0.00    -0.003 C 
ATOM    101  N2  NAG d1181       9.355  -7.730  21.258  0.00  0.00    -0.349 N 
ATOM    102  O3  NAG d1181       7.156  -5.962  22.075  0.00  0.00    -0.391 OA
ATOM    103  C1  NAG d1181       7.708  -9.179  20.196  0.00  0.00     0.154 C 
ATOM    104  O6  NAG d1181       3.714 -10.469  19.738  0.00  0.00    -0.398 OA
ATOM    105  O5  NAG d1181       6.405  -9.225  19.666  0.00  0.00    -0.349 OA
ATOM    106  O7  NAG d1181      10.672  -5.938  21.574  0.00  0.00    -0.274 OA
ATOM    107  O4  NAG d1181       4.646  -7.446  22.328  0.00  0.00    -0.390 OA
ATOM    108  C2  NAG d1181       8.005  -7.775  20.717  0.00  0.00     0.087 C 
ATOM    109  H   NAG d1181       5.347  -6.860  20.493  0.00  0.00     0.091 H 
ATOM    110  H   NAG d1181       7.121  -7.914  22.648  0.00  0.00     0.090 H 
ATOM    111  H   NAG d1181       4.082  -8.624  18.963  0.00  0.00     0.078 H 
ATOM    112  H   NAG d1181       3.280  -8.645  20.520  0.00  0.00     0.078 H 
ATOM    113  H   NAG d1181       5.454  -9.682  21.418  0.00  0.00     0.090 H 
ATOM    114  H   NAG d1181      10.235  -7.786  18.949  0.00  0.00     0.040 H 
ATOM    115  H   NAG d1181      11.777  -7.100  19.401  0.00  0.00     0.040 H 
ATOM    116  H   NAG d1181      10.475  -6.056  18.882  0.00  0.00     0.040 H 
ATOM    117  H   NAG d1181       9.617  -8.379  21.951  0.00  0.00     0.163 HD
ATOM    118  H   NAG d1181       7.026  -5.427  21.276  0.00  0.00     0.210 HD
ATOM    119  H   NAG d1181       7.758  -9.902  20.984  0.00  0.00     0.132 H 
ATOM    120  H   NAG d1181       4.395 -10.892  19.192  0.00  0.00     0.209 HD
ATOM    121  H   NAG d1181       4.847  -8.109  23.006  0.00  0.00     0.210 HD
ATOM    122  H   NAG d1181       7.934  -7.086  19.901  0.00  0.00     0.084 H 
ATOM    123  C7  NAG d1179      10.041 -14.217  13.255  0.00  0.00     0.214 C 
ATOM    124  C1  NAG d1179      12.784 -15.761  14.635  0.00  0.00     0.154 C 
ATOM    125  C2  NAG d1179      11.471 -15.083  15.004  0.00  0.00     0.087 C 
ATOM    126  O5  NAG d1179      13.156 -16.674  15.646  0.00  0.00    -0.349 OA
ATOM    127  O7  NAG d1179       9.020 -14.784  13.638  0.00  0.00    -0.274 OA
ATOM    128  O4  NAG d1179      12.124 -14.932  18.686  0.00  0.00    -0.390 OA
ATOM    129  N2  NAG d1179      11.121 -14.072  14.020  0.00  0.00    -0.349 N 
ATOM    130  C8  NAG d1179      10.097 -13.654  11.867  0.00  0.00    -0.003 C 
ATOM    131  O3  NAG d1179      10.103 -14.211  16.754  0.00  0.00    -0.348 OA
ATOM    132  C4  NAG d1179      11.994 -15.528  17.412  0.00  0.00     0.089 C 
ATOM    133  C5  NAG d1179      13.336 -16.068  16.914  0.00  0.00     0.089 C 
ATOM    134  O6  NAG d1179      13.059 -18.173  18.087  0.00  0.00    -0.398 OA
ATOM    135  C3  NAG d1179      11.445 -14.509  16.419  0.00  0.00     0.093 C 
ATOM    136  C6  NAG d1179      13.947 -17.090  17.874  0.00  0.00     0.043 C 
ATOM    137  H   NAG d1179      13.605 -15.080  14.547  0.00  0.00     0.132 H 
ATOM    138  H   NAG d1179      10.728 -15.854  14.996  0.00  0.00     0.084 H 
ATOM    139  H   NAG d1179      11.260 -14.599  18.977  0.00  0.00     0.210 HD
ATOM    140  H   NAG d1179      11.687 -13.273  13.918  0.00  0.00     0.163 HD
ATOM    141  H   NAG d1179      11.052 -13.201  11.705  0.00  0.00     0.040 H 
ATOM    142  H   NAG d1179       9.328 -12.920  11.749  0.00  0.00     0.040 H 
ATOM    143  H   NAG d1179       9.951 -14.441  11.157  0.00  0.00     0.040 H 
ATOM    144  H   NAG d1179      11.314 -16.350  17.496  0.00  0.00     0.091 H 
ATOM    145  H   NAG d1179      14.011 -15.240  16.850  0.00  0.00     0.090 H 
ATOM    146  H   NAG d1179      13.464 -18.809  18.696  0.00  0.00     0.209 HD
ATOM    147  H   NAG d1179      12.050 -13.628  16.460  0.00  0.00     0.091 H 
ATOM    148  H   NAG d1179      14.150 -16.614  18.810  0.00  0.00     0.078 H 
ATOM    149  H   NAG d1179      14.851 -17.467  17.443  0.00  0.00     0.078 H 
ATOM    150  C6  BDP d1180      10.971 -11.048  20.157  0.00  0.00     0.206 C 
ATOM    151  O3  BDP d1180       6.650 -11.156  17.767  0.00  0.00    -0.390 OA
ATOM    152  C1  BDP d1180       9.923 -12.838  17.131  0.00  0.00     0.160 C 
ATOM    153  O2  BDP d1180       8.297 -12.283  15.493  0.00  0.00    -0.388 OA
ATOM    154  C3  BDP d1180       8.048 -11.128  17.566  0.00  0.00     0.092 C 
ATOM    155  O4  BDP d1180       8.694  -9.495  19.199  0.00  0.00    -0.348 OA
ATOM    156  O5  BDP d1180      10.273 -12.651  18.485  0.00  0.00    -0.340 OA
ATOM    157  C5  BDP d1180      10.214 -11.287  18.849  0.00  0.00     0.152 C 
ATOM    158  O6B BDP d1180      10.696 -11.772  21.145  0.00  0.00    -0.646 OA
ATOM    159  O6A BDP d1180      11.841 -10.144  20.163  0.00  0.00    -0.646 OA
ATOM    160  C2  BDP d1180       8.469 -12.438  16.886  0.00  0.00     0.110 C 
ATOM    161  C4  BDP d1180       8.745 -10.873  18.906  0.00  0.00     0.103 C 
ATOM    162  H   BDP d1180       6.204 -11.318  16.920  0.00  0.00     0.210 HD
ATOM    163  H   BDP d1180      10.563 -12.218  16.539  0.00  0.00     0.133 H 
ATOM    164  H   BDP d1180       8.558 -13.102  15.042  0.00  0.00     0.210 HD
ATOM    165  H   BDP d1180       8.342 -10.330  16.917  0.00  0.00     0.091 H 
ATOM    166  H   BDP d1180      10.701 -10.671  18.123  0.00  0.00     0.104 H 
ATOM    167  H   BDP d1180       7.857 -13.208  17.306  0.00  0.00     0.094 H 
ATOM    168  H   BDP d1180       8.244 -11.449  19.655  0.00  0.00     0.092 H 
ENDROOT
TORSDOF 43
ENDMDL
MODEL 64
REMARK VINA RESULT:      -5.5      4.651     19.235
REMARK  0 active torsions:
REMARK  status: ('A' for Active; 'I' for Inactive)
REMARK       I    between atoms: C1_1  and  O3_15 
REMARK       I    between atoms: C1_2  and  O3_93 
REMARK       I    between atoms: C6_3  and  C5_89 
REMARK       I    between atoms: C6_3  and  O6_76 
REMARK       I    between atoms: O3_4  and  C3_22 
REMARK       I    between atoms: C6_5  and  C5_48 
REMARK       I    between atoms: C6_5  and  O6_31 
REMARK       I    between atoms: C4_6  and  O4_74 
REMARK       I    between atoms: C7_7  and  C8_62 
REMARK       I    between atoms: C7_7  and  N2_60 
REMARK       I    between atoms: C6_8  and  C5_52 
REMARK       I    between atoms: C3_9  and  O3_38 
REMARK       I    between atoms: C1_10  and  O4_75 
REMARK       I    between atoms: C6_12  and  C5_51 
REMARK       I    between atoms: O3_13  and  C3_42 
REMARK       I    between atoms: O4_14  and  C4_84 
REMARK       I    between atoms: O3_15  and  C3_86 
REMARK       I    between atoms: C6_16  and  C5_23 
REMARK       I    between atoms: C6_16  and  O6_58 
REMARK       I    between atoms: C1_17  and  O3_63 
REMARK       I    between atoms: C2_18  and  N2_60 
REMARK       I    between atoms: C2_19  and  N2_53 
REMARK       I    between atoms: O2_20  and  C2_66 
REMARK       I    between atoms: C3_25  and  O3_93 
REMARK       I    between atoms: C7_26  and  C8_32 
REMARK       I    between atoms: C7_26  and  N2_37 
REMARK       I    between atoms: C2_28  and  N2_44 
REMARK       I    between atoms: C7_29  and  C8_54 
REMARK       I    between atoms: C7_29  and  N2_53 
REMARK       I    between atoms: O1_33  and  C1_80 
REMARK       I    between atoms: O4_34  and  C4_40 
REMARK       I    between atoms: O4_34  and  C1_92 
REMARK       I    between atoms: C7_36  and  C8_81 
REMARK       I    between atoms: C7_36  and  N2_44 
REMARK       I    between atoms: N2_37  and  C2_83 
REMARK       I    between atoms: O3_39  and  C3_61 
REMARK       I    between atoms: C1_41  and  O4_46 
REMARK       I    between atoms: O2_43  and  C2_73 
REMARK       I    between atoms: C6_45  and  C5_87 
REMARK       I    between atoms: O4_46  and  C4_67 
REMARK       I    between atoms: C4_50  and  O4_65 
REMARK       I    between atoms: C2_55  and  O2_82 
REMARK       I    between atoms: O4_57  and  C4_71 
REMARK       I    between atoms: O3_63  and  C3_85 
REMARK       I    between atoms: O4_75  and  C4_91 
REMARK       I    between atoms: C5_77  and  C6_90 
REMARK       I    between atoms: O6_79  and  C6_90 
ROOT
ATOM      1  C1  BDP d1176      12.624 -18.140  -0.459  0.00  0.00     0.160 C 
ATOM      2  O3  BDP d1176      15.632 -16.881   1.423  0.00  0.00    -0.390 OA
ATOM      3  O5  BDP d1176      11.801 -17.660   0.566  0.00  0.00    -0.340 OA
ATOM      4  O6A BDP d1176      10.685 -16.564   2.779  0.00  0.00    -0.646 OA
ATOM      5  C3  BDP d1176      14.549 -17.765   1.221  0.00  0.00     0.092 C 
ATOM      6  O4  BDP d1176      13.888 -18.064   3.496  0.00  0.00    -0.348 OA
ATOM      7  C4  BDP d1176      13.479 -17.493   2.268  0.00  0.00     0.103 C 
ATOM      8  C6  BDP d1176      11.027 -17.762   2.768  0.00  0.00     0.206 C 
ATOM      9  C2  BDP d1176      14.068 -17.677  -0.225  0.00  0.00     0.110 C 
ATOM     10  O6B BDP d1176      10.517 -18.677   3.448  0.00  0.00    -0.646 OA
ATOM     11  O2  BDP d1176      14.930 -18.504  -0.969  0.00  0.00    -0.388 OA
ATOM     12  C5  BDP d1176      12.163 -18.124   1.835  0.00  0.00     0.152 C 
ATOM     13  H   BDP d1176      12.622 -19.210  -0.475  0.00  0.00     0.133 H 
ATOM     14  H   BDP d1176      16.317 -17.051   0.758  0.00  0.00     0.210 HD
ATOM     15  H   BDP d1176      14.846 -18.784   1.359  0.00  0.00     0.091 H 
ATOM     16  H   BDP d1176      13.343 -16.437   2.379  0.00  0.00     0.092 H 
ATOM     17  H   BDP d1176      14.083 -16.648  -0.516  0.00  0.00     0.094 H 
ATOM     18  H   BDP d1176      14.860 -19.416  -0.648  0.00  0.00     0.210 HD
ATOM     19  H   BDP d1176      12.318 -19.183   1.842  0.00  0.00     0.104 H 
ATOM     20  C1  BDP d1178      14.301 -17.000   9.184  0.00  0.00     0.160 C 
ATOM     21  C6  BDP d1178      14.182 -13.899  11.250  0.00  0.00     0.206 C 
ATOM     22  O6B BDP d1178      13.245 -13.157  11.630  0.00  0.00    -0.646 OA
ATOM     23  O6A BDP d1178      15.398 -13.592  11.306  0.00  0.00    -0.646 OA
ATOM     24  O3  BDP d1178      13.702 -18.568  12.513  0.00  0.00    -0.390 OA
ATOM     25  O2  BDP d1178      14.264 -19.311   9.868  0.00  0.00    -0.388 OA
ATOM     26  C5  BDP d1178      13.775 -15.272  10.710  0.00  0.00     0.152 C 
ATOM     27  C3  BDP d1178      13.523 -17.686  11.427  0.00  0.00     0.092 C 
ATOM     28  C2  BDP d1178      14.496 -18.000  10.318  0.00  0.00     0.110 C 
ATOM     29  O4  BDP d1178      12.581 -15.932  12.637  0.00  0.00    -0.348 OA
ATOM     30  O5  BDP d1178      14.622 -15.709   9.654  0.00  0.00    -0.340 OA
ATOM     31  C4  BDP d1178      13.714 -16.249  11.880  0.00  0.00     0.103 C 
ATOM     32  H   BDP d1178      13.289 -16.952   8.841  0.00  0.00     0.133 H 
ATOM     33  H   BDP d1178      13.577 -19.481  12.211  0.00  0.00     0.210 HD
ATOM     34  H   BDP d1178      14.885 -19.523   9.154  0.00  0.00     0.210 HD
ATOM     35  H   BDP d1178      12.804 -15.213  10.264  0.00  0.00     0.104 H 
ATOM     36  H   BDP d1178      12.527 -17.811  11.058  0.00  0.00     0.091 H 
ATOM     37  H   BDP d1178      15.503 -17.927  10.671  0.00  0.00     0.094 H 
ATOM     38  H   BDP d1178      14.634 -16.167  12.419  0.00  0.00     0.092 H 
ATOM     39  C6  NAG d1177      17.187 -14.784   4.500  0.00  0.00     0.043 C 
ATOM     40  O4  NAG d1177      16.461 -15.093   7.381  0.00  0.00    -0.390 OA
ATOM     41  C2  NAG d1177      14.346 -17.750   5.837  0.00  0.00     0.087 C 
ATOM     42  C3  NAG d1177      14.853 -16.762   6.879  0.00  0.00     0.093 C 
ATOM     43  C7  NAG d1177      12.698 -19.505   6.365  0.00  0.00     0.214 C 
ATOM     44  N2  NAG d1177      13.034 -18.222   6.256  0.00  0.00    -0.349 N 
ATOM     45  C8  NAG d1177      11.223 -19.767   6.439  0.00  0.00    -0.003 C 
ATOM     46  O7  NAG d1177      13.504 -20.439   6.422  0.00  0.00    -0.274 OA
ATOM     47  O6  NAG d1177      17.797 -15.586   3.505  0.00  0.00    -0.398 OA
ATOM     48  C4  NAG d1177      16.132 -16.077   6.420  0.00  0.00     0.089 C 
ATOM     49  O5  NAG d1177      15.518 -16.468   4.126  0.00  0.00    -0.349 OA
ATOM     50  C5  NAG d1177      15.928 -15.466   5.034  0.00  0.00     0.089 C 
ATOM     51  C1  NAG d1177      14.285 -17.081   4.464  0.00  0.00     0.154 C 
ATOM     52  O3  NAG d1177      15.122 -17.436   8.087  0.00  0.00    -0.348 OA
ATOM     53  H   NAG d1177      17.876 -14.636   5.304  0.00  0.00     0.078 H 
ATOM     54  H   NAG d1177      16.917 -13.842   4.070  0.00  0.00     0.078 H 
ATOM     55  H   NAG d1177      16.583 -15.515   8.246  0.00  0.00     0.210 HD
ATOM     56  H   NAG d1177      15.011 -18.585   5.758  0.00  0.00     0.084 H 
ATOM     57  H   NAG d1177      14.092 -16.024   7.018  0.00  0.00     0.091 H 
ATOM     58  H   NAG d1177      12.350 -17.548   6.473  0.00  0.00     0.163 HD
ATOM     59  H   NAG d1177      10.693 -18.840   6.374  0.00  0.00     0.040 H 
ATOM     60  H   NAG d1177      10.992 -20.245   7.368  0.00  0.00     0.040 H 
ATOM     61  H   NAG d1177      10.932 -20.402   5.629  0.00  0.00     0.040 H 
ATOM     62  H   NAG d1177      18.045 -16.442   3.887  0.00  0.00     0.209 HD
ATOM     63  H   NAG d1177      16.936 -16.778   6.339  0.00  0.00     0.091 H 
ATOM     64  H   NAG d1177      15.173 -14.715   5.130  0.00  0.00     0.090 H 
ATOM     65  H   NAG d1177      13.562 -16.293   4.480  0.00  0.00     0.132 H 
ATOM     66  C6  NAG d1175       7.366 -18.032  -2.889  0.00  0.00     0.043 C 
ATOM     67  O3  NAG d1175      12.118 -17.638  -1.715  0.00  0.00    -0.348 OA
ATOM     68  C2  NAG d1175      11.518 -18.521  -3.859  0.00  0.00     0.087 C 
ATOM     69  O6  NAG d1175       6.437 -18.728  -3.689  0.00  0.00    -0.398 OA
ATOM     70  O1  NAG d1175      10.694 -19.063  -6.074  0.00  0.00    -0.369 OA
ATOM     71  C7  NAG d1175      13.702 -18.758  -4.932  0.00  0.00     0.214 C 
ATOM     72  N2  NAG d1175      12.783 -19.214  -4.078  0.00  0.00    -0.349 N 
ATOM     73  C5  NAG d1175       8.736 -18.669  -3.093  0.00  0.00     0.089 C 
ATOM     74  O5  NAG d1175       9.183 -18.446  -4.422  0.00  0.00    -0.349 OA
ATOM     75  C4  NAG d1175       9.726 -18.125  -2.061  0.00  0.00     0.089 C 
ATOM     76  O4  NAG d1175       9.316 -18.604  -0.794  0.00  0.00    -0.390 OA
ATOM     77  O7  NAG d1175      14.174 -17.617  -4.866  0.00  0.00    -0.274 OA
ATOM     78  C1  NAG d1175      10.390 -19.139  -4.695  0.00  0.00     0.151 C 
ATOM     79  C8  NAG d1175      14.152 -19.727  -5.991  0.00  0.00    -0.003 C 
ATOM     80  C3  NAG d1175      11.188 -18.510  -2.357  0.00  0.00     0.093 C 
ATOM     81  H   NAG d1175       7.398 -17.003  -3.181  0.00  0.00     0.078 H 
ATOM     82  H   NAG d1175       7.083 -18.086  -1.859  0.00  0.00     0.078 H 
ATOM     83  H   NAG d1175      11.614 -17.507  -4.188  0.00  0.00     0.084 H 
ATOM     84  H   NAG d1175       6.705 -18.672  -4.619  0.00  0.00     0.209 HD
ATOM     85  H   NAG d1175      11.521 -19.539  -6.250  0.00  0.00     0.212 HD
ATOM     86  H   NAG d1175      12.965 -20.044  -3.580  0.00  0.00     0.163 HD
ATOM     87  H   NAG d1175       8.665 -19.726  -2.947  0.00  0.00     0.090 H 
ATOM     88  H   NAG d1175       9.713 -17.055  -2.094  0.00  0.00     0.091 H 
ATOM     89  H   NAG d1175       9.339 -19.574  -0.793  0.00  0.00     0.210 HD
ATOM     90  H   NAG d1175      10.280 -20.172  -4.436  0.00  0.00     0.132 H 
ATOM     91  H   NAG d1175      13.627 -20.652  -5.876  0.00  0.00     0.040 H 
ATOM     92  H   NAG d1175      15.203 -19.900  -5.892  0.00  0.00     0.040 H 
ATOM     93  H   NAG d1175      13.947 -19.319  -6.959  0.00  0.00     0.040 H 
ATOM     94  H   NAG d1175      11.284 -19.502  -1.968  0.00  0.00     0.091 H 
ATOM     95  C4  NAG d1181       5.740  -7.490  21.027  0.00  0.00     0.089 C 
ATOM     96  C3  NAG d1181       7.168  -7.291  21.545  0.00  0.00     0.086 C 
ATOM     97  C6  NAG d1181       4.202  -8.909  19.604  0.00  0.00     0.043 C 
ATOM     98  C5  NAG d1181       5.557  -8.836  20.312  0.00  0.00     0.089 C 
ATOM     99  C7  NAG d1181      10.446  -6.782  20.649  0.00  0.00     0.214 C 
ATOM    100  C8  NAG d1181      10.915  -6.825  19.220  0.00  0.00    -0.003 C 
ATOM    101  N2  NAG d1181       9.542  -7.690  21.016  0.00  0.00    -0.349 N 
ATOM    102  O3  NAG d1181       7.368  -5.941  21.938  0.00  0.00    -0.391 OA
ATOM    103  C1  NAG d1181       7.874  -9.051  19.873  0.00  0.00     0.154 C 
ATOM    104  O6  NAG d1181       3.862 -10.255  19.345  0.00  0.00    -0.398 OA
ATOM    105  O5  NAG d1181       6.570  -9.047  19.343  0.00  0.00    -0.349 OA
ATOM    106  O7  NAG d1181      10.884  -5.938  21.435  0.00  0.00    -0.274 OA
ATOM    107  O4  NAG d1181       4.838  -7.402  22.107  0.00  0.00    -0.390 OA
ATOM    108  C2  NAG d1181       8.191  -7.683  20.475  0.00  0.00     0.087 C 
ATOM    109  H   NAG d1181       5.546  -6.720  20.309  0.00  0.00     0.091 H 
ATOM    110  H   NAG d1181       7.306  -7.923  22.396  0.00  0.00     0.090 H 
ATOM    111  H   NAG d1181       4.255  -8.373  18.680  0.00  0.00     0.078 H 
ATOM    112  H   NAG d1181       3.454  -8.474  20.234  0.00  0.00     0.078 H 
ATOM    113  H   NAG d1181       5.614  -9.593  21.067  0.00  0.00     0.090 H 
ATOM    114  H   NAG d1181      10.420  -7.623  18.707  0.00  0.00     0.040 H 
ATOM    115  H   NAG d1181      11.972  -6.987  19.196  0.00  0.00     0.040 H 
ATOM    116  H   NAG d1181      10.685  -5.896  18.741  0.00  0.00     0.040 H 
ATOM    117  H   NAG d1181       9.795  -8.382  21.670  0.00  0.00     0.163 HD
ATOM    118  H   NAG d1181       7.245  -5.359  21.172  0.00  0.00     0.210 HD
ATOM    119  H   NAG d1181       7.914  -9.819  20.617  0.00  0.00     0.132 H 
ATOM    120  H   NAG d1181       4.537 -10.655  18.775  0.00  0.00     0.209 HD
ATOM    121  H   NAG d1181       5.030  -8.107  22.745  0.00  0.00     0.210 HD
ATOM    122  H   NAG d1181       8.130  -6.947  19.701  0.00  0.00     0.084 H 
ATOM    123  C7  NAG d1179      10.132 -13.706  12.646  0.00  0.00     0.214 C 
ATOM    124  C1  NAG d1179      12.854 -15.367  13.930  0.00  0.00     0.154 C 
ATOM    125  C2  NAG d1179      11.551 -14.693  14.340  0.00  0.00     0.087 C 
ATOM    126  O5  NAG d1179      13.213 -16.342  14.885  0.00  0.00    -0.349 OA
ATOM    127  O7  NAG d1179       9.103 -14.280  12.997  0.00  0.00    -0.274 OA
ATOM    128  O4  NAG d1179      12.207 -14.767  18.024  0.00  0.00    -0.390 OA
ATOM    129  N2  NAG d1179      11.215 -13.621  13.417  0.00  0.00    -0.349 N 
ATOM    130  C8  NAG d1179      10.196 -13.064  11.294  0.00  0.00    -0.003 C 
ATOM    131  O3  NAG d1179      10.196 -13.906  16.139  0.00  0.00    -0.348 OA
ATOM    132  C4  NAG d1179      12.068 -15.286  16.717  0.00  0.00     0.089 C 
ATOM    133  C5  NAG d1179      13.403 -15.814  16.187  0.00  0.00     0.089 C 
ATOM    134  O6  NAG d1179      13.096 -17.980  17.234  0.00  0.00    -0.398 OA
ATOM    135  C3  NAG d1179      11.534 -14.203  15.786  0.00  0.00     0.093 C 
ATOM    136  C6  NAG d1179      13.999 -16.899  17.084  0.00  0.00     0.043 C 
ATOM    137  H   NAG d1179      13.685 -14.694  13.881  0.00  0.00     0.132 H 
ATOM    138  H   NAG d1179      10.797 -15.452  14.288  0.00  0.00     0.084 H 
ATOM    139  H   NAG d1179      11.349 -14.439  18.334  0.00  0.00     0.210 HD
ATOM    140  H   NAG d1179      11.792 -12.826  13.361  0.00  0.00     0.163 HD
ATOM    141  H   NAG d1179      11.157 -12.615  11.157  0.00  0.00     0.040 H 
ATOM    142  H   NAG d1179       9.437 -12.313  11.220  0.00  0.00     0.040 H 
ATOM    143  H   NAG d1179      10.038 -13.805  10.539  0.00  0.00     0.040 H 
ATOM    144  H   NAG d1179      11.377 -16.102  16.754  0.00  0.00     0.091 H 
ATOM    145  H   NAG d1179      14.089 -14.994  16.170  0.00  0.00     0.090 H 
ATOM    146  H   NAG d1179      13.493 -18.656  17.805  0.00  0.00     0.209 HD
ATOM    147  H   NAG d1179      12.151 -13.334  15.878  0.00  0.00     0.091 H 
ATOM    148  H   NAG d1179      14.210 -16.482  18.047  0.00  0.00     0.078 H 
ATOM    149  H   NAG d1179      14.898 -17.263  16.631  0.00  0.00     0.078 H 
ATOM    150  C6  BDP d1180      11.111 -10.960  19.720  0.00  0.00     0.206 C 
ATOM    151  O3  BDP d1180       6.787 -10.867  17.334  0.00  0.00    -0.390 OA
ATOM    152  C1  BDP d1180      10.036 -12.555  16.597  0.00  0.00     0.160 C 
ATOM    153  O2  BDP d1180       8.417 -11.882  14.996  0.00  0.00    -0.388 OA
ATOM    154  C3  BDP d1180       8.185 -10.847  17.133  0.00  0.00     0.092 C 
ATOM    155  O4  BDP d1180       8.855  -9.321  18.858  0.00  0.00    -0.348 OA
ATOM    156  O5  BDP d1180      10.389 -12.452  17.958  0.00  0.00    -0.340 OA
ATOM    157  C5  BDP d1180      10.349 -11.112  18.402  0.00  0.00     0.152 C 
ATOM    158  O6B BDP d1180      10.826 -11.736  20.665  0.00  0.00    -0.646 OA
ATOM    159  O6A BDP d1180      11.993 -10.070  19.779  0.00  0.00    -0.646 OA
ATOM    160  C2  BDP d1180       8.587 -12.121  16.377  0.00  0.00     0.110 C 
ATOM    161  C4  BDP d1180       8.887 -10.681  18.485  0.00  0.00     0.103 C 
ATOM    162  H   BDP d1180       6.339 -10.972  16.480  0.00  0.00     0.210 HD
ATOM    163  H   BDP d1180      10.684 -11.910  16.041  0.00  0.00     0.133 H 
ATOM    164  H   BDP d1180       8.666 -12.676  14.497  0.00  0.00     0.210 HD
ATOM    165  H   BDP d1180       8.490 -10.016  16.532  0.00  0.00     0.091 H 
ATOM    166  H   BDP d1180      10.844 -10.461  17.712  0.00  0.00     0.104 H 
ATOM    167  H   BDP d1180       7.965 -12.906  16.753  0.00  0.00     0.094 H 
ATOM    168  H   BDP d1180       8.378 -11.292  19.200  0.00  0.00     0.092 H 
ENDROOT
TORSDOF 43
ENDMDL
MODEL 65
REMARK VINA RESULT:      -5.4      6.067      7.998
REMARK  0 active torsions:
REMARK  status: ('A' for Active; 'I' for Inactive)
REMARK       I    between atoms: C1_1  and  O3_15 
REMARK       I    between atoms: C1_2  and  O3_93 
REMARK       I    between atoms: C6_3  and  C5_89 
REMARK       I    between atoms: C6_3  and  O6_76 
REMARK       I    between atoms: O3_4  and  C3_22 
REMARK       I    between atoms: C6_5  and  C5_48 
REMARK       I    between atoms: C6_5  and  O6_31 
REMARK       I    between atoms: C4_6  and  O4_74 
REMARK       I    between atoms: C7_7  and  C8_62 
REMARK       I    between atoms: C7_7  and  N2_60 
REMARK       I    between atoms: C6_8  and  C5_52 
REMARK       I    between atoms: C3_9  and  O3_38 
REMARK       I    between atoms: C1_10  and  O4_75 
REMARK       I    between atoms: C6_12  and  C5_51 
REMARK       I    between atoms: O3_13  and  C3_42 
REMARK       I    between atoms: O4_14  and  C4_84 
REMARK       I    between atoms: O3_15  and  C3_86 
REMARK       I    between atoms: C6_16  and  C5_23 
REMARK       I    between atoms: C6_16  and  O6_58 
REMARK       I    between atoms: C1_17  and  O3_63 
REMARK       I    between atoms: C2_18  and  N2_60 
REMARK       I    between atoms: C2_19  and  N2_53 
REMARK       I    between atoms: O2_20  and  C2_66 
REMARK       I    between atoms: C3_25  and  O3_93 
REMARK       I    between atoms: C7_26  and  C8_32 
REMARK       I    between atoms: C7_26  and  N2_37 
REMARK       I    between atoms: C2_28  and  N2_44 
REMARK       I    between atoms: C7_29  and  C8_54 
REMARK       I    between atoms: C7_29  and  N2_53 
REMARK       I    between atoms: O1_33  and  C1_80 
REMARK       I    between atoms: O4_34  and  C4_40 
REMARK       I    between atoms: O4_34  and  C1_92 
REMARK       I    between atoms: C7_36  and  C8_81 
REMARK       I    between atoms: C7_36  and  N2_44 
REMARK       I    between atoms: N2_37  and  C2_83 
REMARK       I    between atoms: O3_39  and  C3_61 
REMARK       I    between atoms: C1_41  and  O4_46 
REMARK       I    between atoms: O2_43  and  C2_73 
REMARK       I    between atoms: C6_45  and  C5_87 
REMARK       I    between atoms: O4_46  and  C4_67 
REMARK       I    between atoms: C4_50  and  O4_65 
REMARK       I    between atoms: C2_55  and  O2_82 
REMARK       I    between atoms: O4_57  and  C4_71 
REMARK       I    between atoms: O3_63  and  C3_85 
REMARK       I    between atoms: O4_75  and  C4_91 
REMARK       I    between atoms: C5_77  and  C6_90 
REMARK       I    between atoms: O6_79  and  C6_90 
ROOT
ATOM      1  C1  BDP d1176      13.643 -16.149  15.943  0.00  0.00     0.160 C 
ATOM      2  O3  BDP d1176      13.440 -19.498  14.234  0.00  0.00    -0.390 OA
ATOM      3  O5  BDP d1176      13.059 -15.557  14.818  0.00  0.00    -0.340 OA
ATOM      4  O6A BDP d1176      11.923 -14.927  12.439  0.00  0.00    -0.646 OA
ATOM      5  C3  BDP d1176      13.972 -18.201  14.411  0.00  0.00     0.092 C 
ATOM      6  O4  BDP d1176      14.301 -17.623  12.117  0.00  0.00    -0.348 OA
ATOM      7  C4  BDP d1176      13.522 -17.315  13.258  0.00  0.00     0.103 C 
ATOM      8  C6  BDP d1176      13.162 -14.920  12.573  0.00  0.00     0.206 C 
ATOM      9  C2  BDP d1176      13.615 -17.676  15.800  0.00  0.00     0.110 C 
ATOM     10  O6B BDP d1176      13.966 -14.218  11.924  0.00  0.00    -0.646 OA
ATOM     11  O2  BDP d1176      14.568 -18.227  16.676  0.00  0.00    -0.388 OA
ATOM     12  C5  BDP d1176      13.726 -15.851  13.625  0.00  0.00     0.152 C 
ATOM     13  H   BDP d1176      14.664 -15.848  16.042  0.00  0.00     0.133 H 
ATOM     14  H   BDP d1176      13.724 -20.066  14.967  0.00  0.00     0.210 HD
ATOM     15  H   BDP d1176      15.042 -18.210  14.378  0.00  0.00     0.091 H 
ATOM     16  H   BDP d1176      12.486 -17.486  13.054  0.00  0.00     0.092 H 
ATOM     17  H   BDP d1176      12.605 -17.960  16.009  0.00  0.00     0.094 H 
ATOM     18  H   BDP d1176      15.454 -17.925  16.421  0.00  0.00     0.210 HD
ATOM     19  H   BDP d1176      14.782 -15.705  13.713  0.00  0.00     0.104 H 
ATOM     20  C1  BDP d1178      13.952 -18.661   6.421  0.00  0.00     0.160 C 
ATOM     21  C6  BDP d1178      11.154 -19.537   4.119  0.00  0.00     0.206 C 
ATOM     22  O6B BDP d1178      10.225 -18.869   3.603  0.00  0.00    -0.646 OA
ATOM     23  O6A BDP d1178      11.196 -20.792   4.143  0.00  0.00    -0.646 OA
ATOM     24  O3  BDP d1178      15.616 -17.853   3.184  0.00  0.00    -0.390 OA
ATOM     25  O2  BDP d1178      16.221 -18.023   5.917  0.00  0.00    -0.388 OA
ATOM     26  C5  BDP d1178      12.304 -18.732   4.726  0.00  0.00     0.152 C 
ATOM     27  C3  BDP d1178      14.617 -17.861   4.179  0.00  0.00     0.092 C 
ATOM     28  C2  BDP d1178      15.074 -18.638   5.388  0.00  0.00     0.110 C 
ATOM     29  O4  BDP d1178      12.799 -17.520   2.761  0.00  0.00    -0.348 OA
ATOM     30  O5  BDP d1178      12.850 -19.357   5.882  0.00  0.00    -0.340 OA
ATOM     31  C4  BDP d1178      13.337 -18.472   3.634  0.00  0.00     0.103 C 
ATOM     32  H   BDP d1178      13.597 -17.683   6.671  0.00  0.00     0.133 H 
ATOM     33  H   BDP d1178      16.427 -17.460   3.544  0.00  0.00     0.210 HD
ATOM     34  H   BDP d1178      16.523 -18.516   6.695  0.00  0.00     0.210 HD
ATOM     35  H   BDP d1178      11.940 -17.790   5.081  0.00  0.00     0.104 H 
ATOM     36  H   BDP d1178      14.429 -16.849   4.470  0.00  0.00     0.091 H 
ATOM     37  H   BDP d1178      15.312 -19.645   5.118  0.00  0.00     0.094 H 
ATOM     38  H   BDP d1178      13.562 -19.410   3.171  0.00  0.00     0.092 H 
ATOM     39  C6  NAG d1177      12.157 -21.760  11.149  0.00  0.00     0.043 C 
ATOM     40  O4  NAG d1177      12.538 -21.153   8.249  0.00  0.00    -0.390 OA
ATOM     41  C2  NAG d1177      14.355 -18.291   9.807  0.00  0.00     0.087 C 
ATOM     42  C3  NAG d1177      13.649 -19.116   8.739  0.00  0.00     0.093 C 
ATOM     43  C7  NAG d1177      15.637 -16.255   9.277  0.00  0.00     0.214 C 
ATOM     44  N2  NAG d1177      14.490 -16.927   9.315  0.00  0.00    -0.349 N 
ATOM     45  C8  NAG d1177      15.494 -14.773   9.097  0.00  0.00    -0.003 C 
ATOM     46  O7  NAG d1177      16.756 -16.771   9.362  0.00  0.00    -0.274 OA
ATOM     47  O6  NAG d1177      12.993 -22.060  12.252  0.00  0.00    -0.398 OA
ATOM     48  C4  NAG d1177      13.296 -20.505   9.252  0.00  0.00     0.089 C 
ATOM     49  O5  NAG d1177      13.278 -19.668  11.508  0.00  0.00    -0.349 OA
ATOM     50  C5  NAG d1177      12.520 -20.396  10.564  0.00  0.00     0.089 C 
ATOM     51  C1  NAG d1177      13.563 -18.336  11.114  0.00  0.00     0.154 C 
ATOM     52  O3  NAG d1177      14.485 -19.260   7.615  0.00  0.00    -0.348 OA
ATOM     53  H   NAG d1177      12.281 -22.511  10.397  0.00  0.00     0.078 H 
ATOM     54  H   NAG d1177      11.140 -21.737  11.480  0.00  0.00     0.078 H 
ATOM     55  H   NAG d1177      13.059 -21.205   7.433  0.00  0.00     0.210 HD
ATOM     56  H   NAG d1177      15.327 -18.691  10.007  0.00  0.00     0.084 H 
ATOM     57  H   NAG d1177      12.748 -18.601   8.478  0.00  0.00     0.091 H 
ATOM     58  H   NAG d1177      13.680 -16.474   8.989  0.00  0.00     0.163 HD
ATOM     59  H   NAG d1177      14.456 -14.519   9.046  0.00  0.00     0.040 H 
ATOM     60  H   NAG d1177      15.980 -14.475   8.192  0.00  0.00     0.040 H 
ATOM     61  H   NAG d1177      15.944 -14.268   9.927  0.00  0.00     0.040 H 
ATOM     62  H   NAG d1177      13.918 -22.083  11.960  0.00  0.00     0.209 HD
ATOM     63  H   NAG d1177      14.178 -21.075   9.455  0.00  0.00     0.091 H 
ATOM     64  H   NAG d1177      11.604 -19.887  10.346  0.00  0.00     0.090 H 
ATOM     65  H   NAG d1177      12.613 -17.863  10.975  0.00  0.00     0.132 H 
ATOM     66  C6  NAG d1175      11.870 -10.992  17.900  0.00  0.00     0.043 C 
ATOM     67  O3  NAG d1175      12.901 -15.728  17.110  0.00  0.00    -0.348 OA
ATOM     68  C2  NAG d1175      13.373 -14.776  19.256  0.00  0.00     0.087 C 
ATOM     69  O6  NAG d1175      12.205  -9.859  18.668  0.00  0.00    -0.398 OA
ATOM     70  O1  NAG d1175      13.450 -13.701  21.428  0.00  0.00    -0.369 OA
ATOM     71  C7  NAG d1175      14.089 -16.737  20.527  0.00  0.00     0.214 C 
ATOM     72  N2  NAG d1175      14.360 -15.782  19.636  0.00  0.00    -0.349 N 
ATOM     73  C5  NAG d1175      12.833 -12.115  18.268  0.00  0.00     0.089 C 
ATOM     74  O5  NAG d1175      12.610 -12.524  19.610  0.00  0.00    -0.349 OA
ATOM     75  C4  NAG d1175      12.682 -13.279  17.286  0.00  0.00     0.089 C 
ATOM     76  O4  NAG d1175      13.154 -12.829  16.029  0.00  0.00    -0.390 OA
ATOM     77  O7  NAG d1175      13.131 -17.512  20.414  0.00  0.00    -0.274 OA
ATOM     78  C1  NAG d1175      13.576 -13.471  20.038  0.00  0.00     0.151 C 
ATOM     79  C8  NAG d1175      15.035 -16.835  21.692  0.00  0.00    -0.003 C 
ATOM     80  C3  NAG d1175      13.420 -14.554  17.735  0.00  0.00     0.093 C 
ATOM     81  H   NAG d1175      10.865 -11.291  18.113  0.00  0.00     0.078 H 
ATOM     82  H   NAG d1175      11.946 -10.768  16.856  0.00  0.00     0.078 H 
ATOM     83  H   NAG d1175      12.396 -15.130  19.512  0.00  0.00     0.084 H 
ATOM     84  H   NAG d1175      12.133 -10.075  19.611  0.00  0.00     0.209 HD
ATOM     85  H   NAG d1175      14.114 -14.349  21.710  0.00  0.00     0.212 HD
ATOM     86  H   NAG d1175      15.252 -15.755  19.221  0.00  0.00     0.163 HD
ATOM     87  H   NAG d1175      13.840 -11.761  18.199  0.00  0.00     0.090 H 
ATOM     88  H   NAG d1175      11.651 -13.562  17.235  0.00  0.00     0.091 H 
ATOM     89  H   NAG d1175      14.089 -12.580  16.105  0.00  0.00     0.210 HD
ATOM     90  H   NAG d1175      14.560 -13.094  19.851  0.00  0.00     0.132 H 
ATOM     91  H   NAG d1175      15.789 -16.080  21.604  0.00  0.00     0.040 H 
ATOM     92  H   NAG d1175      15.497 -17.800  21.697  0.00  0.00     0.040 H 
ATOM     93  H   NAG d1175      14.494 -16.693  22.604  0.00  0.00     0.040 H 
ATOM     94  H   NAG d1175      14.434 -14.394  17.433  0.00  0.00     0.091 H 
ATOM     95  C4  NAG d1181       3.679 -13.827  -6.811  0.00  0.00     0.089 C 
ATOM     96  C3  NAG d1181       3.928 -15.283  -7.219  0.00  0.00     0.086 C 
ATOM     97  C6  NAG d1181       4.479 -11.871  -5.420  0.00  0.00     0.043 C 
ATOM     98  C5  NAG d1181       4.848 -13.233  -6.012  0.00  0.00     0.089 C 
ATOM     99  C7  NAG d1181       4.245 -18.512  -6.088  0.00  0.00     0.214 C 
ATOM    100  C8  NAG d1181       4.273 -18.862  -4.625  0.00  0.00    -0.003 C 
ATOM    101  N2  NAG d1181       4.904 -17.415  -6.460  0.00  0.00    -0.349 N 
ATOM    102  O3  NAG d1181       2.729 -15.875  -7.697  0.00  0.00    -0.391 OA
ATOM    103  C1  NAG d1181       5.641 -15.368  -5.362  0.00  0.00     0.154 C 
ATOM    104  O6  NAG d1181       5.650 -11.154  -5.088  0.00  0.00    -0.398 OA
ATOM    105  O5  NAG d1181       5.231 -14.087  -4.948  0.00  0.00    -0.349 OA
ATOM    106  O7  NAG d1181       3.633 -19.215  -6.896  0.00  0.00    -0.274 OA
ATOM    107  O4  NAG d1181       3.455 -13.053  -7.968  0.00  0.00    -0.390 OA
ATOM    108  C2  NAG d1181       4.477 -16.089  -6.039  0.00  0.00     0.087 C 
ATOM    109  H   NAG d1181       2.819 -13.812  -6.174  0.00  0.00     0.091 H 
ATOM    110  H   NAG d1181       4.654 -15.290  -8.004  0.00  0.00     0.090 H 
ATOM    111  H   NAG d1181       3.891 -12.015  -4.539  0.00  0.00     0.078 H 
ATOM    112  H   NAG d1181       3.921 -11.314  -6.143  0.00  0.00     0.078 H 
ATOM    113  H   NAG d1181       5.661 -13.123  -6.699  0.00  0.00     0.090 H 
ATOM    114  H   NAG d1181       4.852 -18.134  -4.096  0.00  0.00     0.040 H 
ATOM    115  H   NAG d1181       4.714 -19.829  -4.499  0.00  0.00     0.040 H 
ATOM    116  H   NAG d1181       3.274 -18.871  -4.241  0.00  0.00     0.040 H 
ATOM    117  H   NAG d1181       5.699 -17.504  -7.034  0.00  0.00     0.163 HD
ATOM    118  H   NAG d1181       2.063 -15.872  -6.991  0.00  0.00     0.210 HD
ATOM    119  H   NAG d1181       6.460 -15.237  -6.038  0.00  0.00     0.132 H 
ATOM    120  H   NAG d1181       6.160 -11.655  -4.433  0.00  0.00     0.209 HD
ATOM    121  H   NAG d1181       4.244 -13.079  -8.531  0.00  0.00     0.210 HD
ATOM    122  H   NAG d1181       3.680 -16.188  -5.332  0.00  0.00     0.084 H 
ATOM    123  C7  NAG d1179      10.003 -15.794   2.370  0.00  0.00     0.214 C 
ATOM    124  C1  NAG d1179      12.460 -18.018   1.456  0.00  0.00     0.154 C 
ATOM    125  C2  NAG d1179      11.501 -16.982   0.885  0.00  0.00     0.087 C 
ATOM    126  O5  NAG d1179      13.585 -18.149   0.613  0.00  0.00    -0.349 OA
ATOM    127  O7  NAG d1179      10.307 -14.670   1.978  0.00  0.00    -0.274 OA
ATOM    128  O4  NAG d1179      12.111 -17.815  -2.712  0.00  0.00    -0.390 OA
ATOM    129  N2  NAG d1179      10.292 -16.903   1.690  0.00  0.00    -0.349 N 
ATOM    130  C8  NAG d1179       9.274 -15.952   3.669  0.00  0.00    -0.003 C 
ATOM    131  O3  NAG d1179      10.554 -16.012  -1.079  0.00  0.00    -0.348 OA
ATOM    132  C4  NAG d1179      12.441 -17.457  -1.386  0.00  0.00     0.089 C 
ATOM    133  C5  NAG d1179      13.259 -18.557  -0.704  0.00  0.00     0.089 C 
ATOM    134  O6  NAG d1179      15.351 -17.724  -1.603  0.00  0.00    -0.398 OA
ATOM    135  C3  NAG d1179      11.168 -17.190  -0.590  0.00  0.00     0.093 C 
ATOM    136  C6  NAG d1179      14.547 -18.881  -1.461  0.00  0.00     0.043 C 
ATOM    137  H   NAG d1179      12.037 -18.999   1.523  0.00  0.00     0.132 H 
ATOM    138  H   NAG d1179      12.016 -16.045   0.931  0.00  0.00     0.084 H 
ATOM    139  H   NAG d1179      11.594 -17.102  -3.119  0.00  0.00     0.210 HD
ATOM    140  H   NAG d1179       9.683 -17.674   1.734  0.00  0.00     0.163 HD
ATOM    141  H   NAG d1179       9.092 -16.990   3.853  0.00  0.00     0.040 H 
ATOM    142  H   NAG d1179       8.341 -15.430   3.619  0.00  0.00     0.040 H 
ATOM    143  H   NAG d1179       9.867 -15.548   4.463  0.00  0.00     0.040 H 
ATOM    144  H   NAG d1179      13.038 -16.570  -1.418  0.00  0.00     0.091 H 
ATOM    145  H   NAG d1179      12.658 -19.443  -0.692  0.00  0.00     0.090 H 
ATOM    146  H   NAG d1179      16.162 -17.950  -2.084  0.00  0.00     0.209 HD
ATOM    147  H   NAG d1179      10.514 -18.030  -0.696  0.00  0.00     0.091 H 
ATOM    148  H   NAG d1179      14.299 -19.258  -2.431  0.00  0.00     0.078 H 
ATOM    149  H   NAG d1179      15.096 -19.614  -0.906  0.00  0.00     0.078 H 
ATOM    150  C6  BDP d1180       8.334 -17.928  -4.786  0.00  0.00     0.206 C 
ATOM    151  O3  BDP d1180       6.835 -13.665  -2.792  0.00  0.00    -0.390 OA
ATOM    152  C1  BDP d1180       9.263 -16.263  -1.652  0.00  0.00     0.160 C 
ATOM    153  O2  BDP d1180       8.021 -14.802  -0.251  0.00  0.00    -0.388 OA
ATOM    154  C3  BDP d1180       7.177 -14.998  -2.475  0.00  0.00     0.092 C 
ATOM    155  O4  BDP d1180       6.067 -16.171  -4.249  0.00  0.00    -0.348 OA
ATOM    156  O5  BDP d1180       9.394 -16.714  -2.982  0.00  0.00    -0.340 OA
ATOM    157  C5  BDP d1180       8.143 -17.076  -3.529  0.00  0.00     0.152 C 
ATOM    158  O6B BDP d1180       9.092 -17.496  -5.688  0.00  0.00    -0.646 OA
ATOM    159  O6A BDP d1180       7.728 -19.026  -4.837  0.00  0.00    -0.646 OA
ATOM    160  C2  BDP d1180       8.431 -14.982  -1.591  0.00  0.00     0.110 C 
ATOM    161  C4  BDP d1180       7.341 -15.799  -3.770  0.00  0.00     0.103 C 
ATOM    162  H   BDP d1180       6.730 -13.154  -1.974  0.00  0.00     0.210 HD
ATOM    163  H   BDP d1180       8.767 -17.030  -1.094  0.00  0.00     0.133 H 
ATOM    164  H   BDP d1180       8.800 -14.789   0.326  0.00  0.00     0.210 HD
ATOM    165  H   BDP d1180       6.405 -15.485  -1.916  0.00  0.00     0.091 H 
ATOM    166  H   BDP d1180       7.587 -17.690  -2.852  0.00  0.00     0.104 H 
ATOM    167  H   BDP d1180       9.050 -14.190  -1.956  0.00  0.00     0.094 H 
ATOM    168  H   BDP d1180       7.857 -15.184  -4.477  0.00  0.00     0.092 H 
ENDROOT
TORSDOF 43
ENDMDL
MODEL 66
REMARK VINA RESULT:      -5.4      6.651      7.937
REMARK  0 active torsions:
REMARK  status: ('A' for Active; 'I' for Inactive)
REMARK       I    between atoms: C1_1  and  O3_15 
REMARK       I    between atoms: C1_2  and  O3_93 
REMARK       I    between atoms: C6_3  and  C5_89 
REMARK       I    between atoms: C6_3  and  O6_76 
REMARK       I    between atoms: O3_4  and  C3_22 
REMARK       I    between atoms: C6_5  and  C5_48 
REMARK       I    between atoms: C6_5  and  O6_31 
REMARK       I    between atoms: C4_6  and  O4_74 
REMARK       I    between atoms: C7_7  and  C8_62 
REMARK       I    between atoms: C7_7  and  N2_60 
REMARK       I    between atoms: C6_8  and  C5_52 
REMARK       I    between atoms: C3_9  and  O3_38 
REMARK       I    between atoms: C1_10  and  O4_75 
REMARK       I    between atoms: C6_12  and  C5_51 
REMARK       I    between atoms: O3_13  and  C3_42 
REMARK       I    between atoms: O4_14  and  C4_84 
REMARK       I    between atoms: O3_15  and  C3_86 
REMARK       I    between atoms: C6_16  and  C5_23 
REMARK       I    between atoms: C6_16  and  O6_58 
REMARK       I    between atoms: C1_17  and  O3_63 
REMARK       I    between atoms: C2_18  and  N2_60 
REMARK       I    between atoms: C2_19  and  N2_53 
REMARK       I    between atoms: O2_20  and  C2_66 
REMARK       I    between atoms: C3_25  and  O3_93 
REMARK       I    between atoms: C7_26  and  C8_32 
REMARK       I    between atoms: C7_26  and  N2_37 
REMARK       I    between atoms: C2_28  and  N2_44 
REMARK       I    between atoms: C7_29  and  C8_54 
REMARK       I    between atoms: C7_29  and  N2_53 
REMARK       I    between atoms: O1_33  and  C1_80 
REMARK       I    between atoms: O4_34  and  C4_40 
REMARK       I    between atoms: O4_34  and  C1_92 
REMARK       I    between atoms: C7_36  and  C8_81 
REMARK       I    between atoms: C7_36  and  N2_44 
REMARK       I    between atoms: N2_37  and  C2_83 
REMARK       I    between atoms: O3_39  and  C3_61 
REMARK       I    between atoms: C1_41  and  O4_46 
REMARK       I    between atoms: O2_43  and  C2_73 
REMARK       I    between atoms: C6_45  and  C5_87 
REMARK       I    between atoms: O4_46  and  C4_67 
REMARK       I    between atoms: C4_50  and  O4_65 
REMARK       I    between atoms: C2_55  and  O2_82 
REMARK       I    between atoms: O4_57  and  C4_71 
REMARK       I    between atoms: O3_63  and  C3_85 
REMARK       I    between atoms: O4_75  and  C4_91 
REMARK       I    between atoms: C5_77  and  C6_90 
REMARK       I    between atoms: O6_79  and  C6_90 
ROOT
ATOM      1  C1  BDP d1176      15.008 -11.378  17.700  0.00  0.00     0.160 C 
ATOM      2  O3  BDP d1176      15.910 -14.603  15.979  0.00  0.00    -0.390 OA
ATOM      3  O5  BDP d1176      14.232 -11.022  16.592  0.00  0.00    -0.340 OA
ATOM      4  O6A BDP d1176      12.893 -10.821  14.244  0.00  0.00    -0.646 OA
ATOM      5  C3  BDP d1176      15.976 -13.202  16.150  0.00  0.00     0.092 C 
ATOM      6  O4  BDP d1176      16.035 -12.554  13.852  0.00  0.00    -0.348 OA
ATOM      7  C4  BDP d1176      15.226 -12.524  15.012  0.00  0.00     0.103 C 
ATOM      8  C6  BDP d1176      14.060 -10.395  14.348  0.00  0.00     0.206 C 
ATOM      9  C2  BDP d1176      15.496 -12.825  17.549  0.00  0.00     0.110 C 
ATOM     10  O6B BDP d1176      14.562  -9.464  13.684  0.00  0.00    -0.646 OA
ATOM     11  O2  BDP d1176      16.599 -13.017  18.401  0.00  0.00    -0.388 OA
ATOM     12  C5  BDP d1176      14.930 -11.076  15.382  0.00  0.00     0.152 C 
ATOM     13  H   BDP d1176      15.869 -10.748  17.776  0.00  0.00     0.133 H 
ATOM     14  H   BDP d1176      16.388 -15.039  16.702  0.00  0.00     0.210 HD
ATOM     15  H   BDP d1176      16.985 -12.848  16.092  0.00  0.00     0.091 H 
ATOM     16  H   BDP d1176      14.304 -13.037  14.833  0.00  0.00     0.092 H 
ATOM     17  H   BDP d1176      14.647 -13.433  17.781  0.00  0.00     0.094 H 
ATOM     18  H   BDP d1176      17.324 -12.434  18.127  0.00  0.00     0.210 HD
ATOM     19  H   BDP d1176      15.877 -10.581  15.446  0.00  0.00     0.104 H 
ATOM     20  C1  BDP d1178      15.923 -13.667   8.160  0.00  0.00     0.160 C 
ATOM     21  C6  BDP d1178      13.533 -15.446   5.920  0.00  0.00     0.206 C 
ATOM     22  O6B BDP d1178      12.422 -15.134   5.430  0.00  0.00    -0.646 OA
ATOM     23  O6A BDP d1178      13.999 -16.612   5.937  0.00  0.00    -0.646 OA
ATOM     24  O3  BDP d1178      17.138 -12.353   4.890  0.00  0.00    -0.390 OA
ATOM     25  O2  BDP d1178      17.830 -12.300   7.606  0.00  0.00    -0.388 OA
ATOM     26  C5  BDP d1178      14.357 -14.297   6.504  0.00  0.00     0.152 C 
ATOM     27  C3  BDP d1178      16.225 -12.696   5.908  0.00  0.00     0.092 C 
ATOM     28  C2  BDP d1178      16.946 -13.269   7.102  0.00  0.00     0.110 C 
ATOM     29  O4  BDP d1178      14.366 -12.996   4.534  0.00  0.00    -0.348 OA
ATOM     30  O5  BDP d1178      15.109 -14.697   7.644  0.00  0.00    -0.340 OA
ATOM     31  C4  BDP d1178      15.215 -13.706   5.390  0.00  0.00     0.103 C 
ATOM     32  H   BDP d1178      15.264 -12.867   8.424  0.00  0.00     0.133 H 
ATOM     33  H   BDP d1178      17.776 -11.708   5.232  0.00  0.00     0.210 HD
ATOM     34  H   BDP d1178      18.299 -12.659   8.376  0.00  0.00     0.210 HD
ATOM     35  H   BDP d1178      13.704 -13.533   6.873  0.00  0.00     0.104 H 
ATOM     36  H   BDP d1178      15.712 -11.807   6.208  0.00  0.00     0.091 H 
ATOM     37  H   BDP d1178      17.505 -14.137   6.821  0.00  0.00     0.094 H 
ATOM     38  H   BDP d1178      15.733 -14.514   4.917  0.00  0.00     0.092 H 
ATOM     39  C6  NAG d1177      15.397 -17.175  12.914  0.00  0.00     0.043 C 
ATOM     40  O4  NAG d1177      15.481 -16.485  10.009  0.00  0.00    -0.390 OA
ATOM     41  C2  NAG d1177      16.257 -13.172  11.538  0.00  0.00     0.087 C 
ATOM     42  C3  NAG d1177      15.847 -14.191  10.483  0.00  0.00     0.093 C 
ATOM     43  C7  NAG d1177      16.762 -10.823  10.989  0.00  0.00     0.214 C 
ATOM     44  N2  NAG d1177      15.911 -11.844  11.050  0.00  0.00    -0.349 N 
ATOM     45  C8  NAG d1177      16.121  -9.478  10.820  0.00  0.00    -0.003 C 
ATOM     46  O7  NAG d1177      17.991 -10.930  11.045  0.00  0.00    -0.274 OA
ATOM     47  O6  NAG d1177      16.311 -17.171  13.995  0.00  0.00    -0.398 OA
ATOM     48  C4  NAG d1177      15.998 -15.615  10.997  0.00  0.00     0.089 C 
ATOM     49  O5  NAG d1177      15.751 -14.827  13.257  0.00  0.00    -0.349 OA
ATOM     50  C5  NAG d1177      15.262 -15.771  12.327  0.00  0.00     0.089 C 
ATOM     51  C1  NAG d1177      15.559 -13.478  12.863  0.00  0.00     0.154 C 
ATOM     52  O3  NAG d1177      16.656 -14.046   9.338  0.00  0.00    -0.348 OA
ATOM     53  H   NAG d1177      15.750 -17.842  12.156  0.00  0.00     0.078 H 
ATOM     54  H   NAG d1177      14.440 -17.497  13.269  0.00  0.00     0.078 H 
ATOM     55  H   NAG d1177      15.969 -16.360   9.180  0.00  0.00     0.210 HD
ATOM     56  H   NAG d1177      17.312 -13.218  11.714  0.00  0.00     0.084 H 
ATOM     57  H   NAG d1177      14.820 -14.011  10.246  0.00  0.00     0.091 H 
ATOM     58  H   NAG d1177      14.988 -11.693  10.745  0.00  0.00     0.163 HD
ATOM     59  H   NAG d1177      15.057  -9.591  10.794  0.00  0.00     0.040 H 
ATOM     60  H   NAG d1177      16.455  -9.036   9.905  0.00  0.00     0.040 H 
ATOM     61  H   NAG d1177      16.392  -8.848  11.641  0.00  0.00     0.040 H 
ATOM     62  H   NAG d1177      17.182 -16.880  13.682  0.00  0.00     0.209 HD
ATOM     63  H   NAG d1177      17.025 -15.852  11.176  0.00  0.00     0.091 H 
ATOM     64  H   NAG d1177      14.224 -15.603  12.133  0.00  0.00     0.090 H 
ATOM     65  H   NAG d1177      14.502 -13.355  12.749  0.00  0.00     0.132 H 
ATOM     66  C6  NAG d1175      11.641  -7.119  19.724  0.00  0.00     0.043 C 
ATOM     67  O3  NAG d1175      14.195 -11.229  18.886  0.00  0.00    -0.348 OA
ATOM     68  C2  NAG d1175      14.368 -10.166  21.025  0.00  0.00     0.087 C 
ATOM     69  O6  NAG d1175      11.590  -5.938  20.489  0.00  0.00    -0.398 OA
ATOM     70  O1  NAG d1175      14.128  -9.122  23.200  0.00  0.00    -0.369 OA
ATOM     71  C7  NAG d1175      15.736 -11.765  22.269  0.00  0.00     0.214 C 
ATOM     72  N2  NAG d1175      15.646 -10.778  21.376  0.00  0.00    -0.349 N 
ATOM     73  C5  NAG d1175      12.935  -7.849  20.064  0.00  0.00     0.089 C 
ATOM     74  O5  NAG d1175      12.896  -8.305  21.408  0.00  0.00    -0.349 OA
ATOM     75  C4  NAG d1175      13.164  -8.998  19.079  0.00  0.00     0.089 C 
ATOM     76  O4  NAG d1175      13.426  -8.419  17.814  0.00  0.00    -0.390 OA
ATOM     77  O7  NAG d1175      15.094 -12.819  22.174  0.00  0.00    -0.274 OA
ATOM     78  C1  NAG d1175      14.135  -8.868  21.809  0.00  0.00     0.151 C 
ATOM     79  C8  NAG d1175      16.686 -11.533  23.412  0.00  0.00    -0.003 C 
ATOM     80  C3  NAG d1175      14.301  -9.947  19.504  0.00  0.00     0.093 C 
ATOM     81  H   NAG d1175      10.802  -7.741  19.959  0.00  0.00     0.078 H 
ATOM     82  H   NAG d1175      11.611  -6.886  18.680  0.00  0.00     0.078 H 
ATOM     83  H   NAG d1175      13.575 -10.830  21.302  0.00  0.00     0.084 H 
ATOM     84  H   NAG d1175      11.618  -6.162  21.433  0.00  0.00     0.209 HD
ATOM     85  H   NAG d1175      14.979  -9.506  23.463  0.00  0.00     0.212 HD
ATOM     86  H   NAG d1175      16.466 -10.452  20.941  0.00  0.00     0.163 HD
ATOM     87  H   NAG d1175      13.761  -7.175  19.973  0.00  0.00     0.090 H 
ATOM     88  H   NAG d1175      12.289  -9.614  19.051  0.00  0.00     0.091 H 
ATOM     89  H   NAG d1175      14.223  -7.868  17.869  0.00  0.00     0.210 HD
ATOM     90  H   NAG d1175      14.929  -8.180  21.601  0.00  0.00     0.132 H 
ATOM     91  H   NAG d1175      17.138 -10.568  23.310  0.00  0.00     0.040 H 
ATOM     92  H   NAG d1175      17.447 -12.285  23.401  0.00  0.00     0.040 H 
ATOM     93  H   NAG d1175      16.151 -11.580  24.337  0.00  0.00     0.040 H 
ATOM     94  H   NAG d1175      15.193  -9.453  19.180  0.00  0.00     0.091 H 
ATOM     95  C4  NAG d1181       4.309 -12.641  -4.803  0.00  0.00     0.089 C 
ATOM     96  C3  NAG d1181       5.027 -13.927  -5.224  0.00  0.00     0.086 C 
ATOM     97  C6  NAG d1181       4.433 -10.524  -3.421  0.00  0.00     0.043 C 
ATOM     98  C5  NAG d1181       5.227 -11.683  -4.029  0.00  0.00     0.089 C 
ATOM     99  C7  NAG d1181       6.446 -16.855  -4.117  0.00  0.00     0.214 C 
ATOM    100  C8  NAG d1181       6.625 -17.169  -2.656  0.00  0.00    -0.003 C 
ATOM    101  N2  NAG d1181       6.685 -15.600  -4.499  0.00  0.00    -0.349 N 
ATOM    102  O3  NAG d1181       4.088 -14.892  -5.676  0.00  0.00    -0.391 OA
ATOM    103  C1  NAG d1181       6.711 -13.421  -3.407  0.00  0.00     0.154 C 
ATOM    104  O6  NAG d1181       5.299  -9.452  -3.113  0.00  0.00    -0.398 OA
ATOM    105  O5  NAG d1181       5.901 -12.353  -2.977  0.00  0.00    -0.349 OA
ATOM    106  O7  NAG d1181       6.089 -17.726  -4.914  0.00  0.00    -0.274 OA
ATOM    107  O4  NAG d1181       3.810 -11.991  -5.950  0.00  0.00    -0.390 OA
ATOM    108  C2  NAG d1181       5.844 -14.495  -4.061  0.00  0.00     0.087 C 
ATOM    109  H   NAG d1181       3.511 -12.916  -4.146  0.00  0.00     0.091 H 
ATOM    110  H   NAG d1181       5.694 -13.691  -6.025  0.00  0.00     0.090 H 
ATOM    111  H   NAG d1181       3.949 -10.856  -2.527  0.00  0.00     0.078 H 
ATOM    112  H   NAG d1181       3.702 -10.191  -4.128  0.00  0.00     0.078 H 
ATOM    113  H   NAG d1181       5.938 -11.306  -4.734  0.00  0.00     0.090 H 
ATOM    114  H   NAG d1181       6.936 -16.287  -2.137  0.00  0.00     0.040 H 
ATOM    115  H   NAG d1181       7.370 -17.930  -2.545  0.00  0.00     0.040 H 
ATOM    116  H   NAG d1181       5.698 -17.515  -2.249  0.00  0.00     0.040 H 
ATOM    117  H   NAG d1181       7.449 -15.416  -5.091  0.00  0.00     0.163 HD
ATOM    118  H   NAG d1181       3.478 -15.113  -4.955  0.00  0.00     0.210 HD
ATOM    119  H   NAG d1181       7.421 -13.023  -4.102  0.00  0.00     0.132 H 
ATOM    120  H   NAG d1181       5.964  -9.748  -2.472  0.00  0.00     0.209 HD
ATOM    121  H   NAG d1181       4.547 -11.750  -6.532  0.00  0.00     0.210 HD
ATOM    122  H   NAG d1181       5.145 -14.857  -3.336  0.00  0.00     0.084 H 
ATOM    123  C7  NAG d1179      11.143 -12.320   4.218  0.00  0.00     0.214 C 
ATOM    124  C1  NAG d1179      14.184 -13.584   3.235  0.00  0.00     0.154 C 
ATOM    125  C2  NAG d1179      12.918 -12.935   2.692  0.00  0.00     0.087 C 
ATOM    126  O5  NAG d1179      15.267 -13.328   2.366  0.00  0.00    -0.349 OA
ATOM    127  O7  NAG d1179      11.038 -11.160   3.825  0.00  0.00    -0.274 OA
ATOM    128  O4  NAG d1179      13.688 -13.524  -0.922  0.00  0.00    -0.390 OA
ATOM    129  N2  NAG d1179      11.773 -13.267   3.526  0.00  0.00    -0.349 N 
ATOM    130  C8  NAG d1179      10.540 -12.711   5.533  0.00  0.00    -0.003 C 
ATOM    131  O3  NAG d1179      11.653 -12.349   0.756  0.00  0.00    -0.348 OA
ATOM    132  C4  NAG d1179      13.910 -13.071   0.397  0.00  0.00     0.089 C 
ATOM    133  C5  NAG d1179      15.067 -13.826   1.054  0.00  0.00     0.089 C 
ATOM    134  O6  NAG d1179      16.731 -12.337   0.111  0.00  0.00    -0.398 OA
ATOM    135  C3  NAG d1179      12.640 -13.249   1.224  0.00  0.00     0.093 C 
ATOM    136  C6  NAG d1179      16.371 -13.697   0.266  0.00  0.00     0.043 C 
ATOM    137  H   NAG d1179      14.120 -14.649   3.308  0.00  0.00     0.132 H 
ATOM    138  H   NAG d1179      13.086 -11.879   2.731  0.00  0.00     0.084 H 
ATOM    139  H   NAG d1179      12.951 -13.029  -1.314  0.00  0.00     0.210 HD
ATOM    140  H   NAG d1179      11.462 -14.200   3.580  0.00  0.00     0.163 HD
ATOM    141  H   NAG d1179      10.725 -13.749   5.715  0.00  0.00     0.040 H 
ATOM    142  H   NAG d1179       9.485 -12.536   5.508  0.00  0.00     0.040 H 
ATOM    143  H   NAG d1179      10.980 -12.128   6.314  0.00  0.00     0.040 H 
ATOM    144  H   NAG d1179      14.169 -12.034   0.356  0.00  0.00     0.091 H 
ATOM    145  H   NAG d1179      14.802 -14.863   1.076  0.00  0.00     0.090 H 
ATOM    146  H   NAG d1179      17.559 -12.277  -0.390  0.00  0.00     0.209 HD
ATOM    147  H   NAG d1179      12.306 -14.260   1.129  0.00  0.00     0.091 H 
ATOM    148  H   NAG d1179      16.242 -14.139  -0.700  0.00  0.00     0.078 H 
ATOM    149  H   NAG d1179      17.148 -14.199   0.805  0.00  0.00     0.078 H 
ATOM    150  C6  BDP d1180      10.125 -14.916  -2.907  0.00  0.00     0.206 C 
ATOM    151  O3  BDP d1180       7.318 -11.406  -0.858  0.00  0.00    -0.390 OA
ATOM    152  C1  BDP d1180      10.509 -13.025   0.212  0.00  0.00     0.160 C 
ATOM    153  O2  BDP d1180       8.879 -12.066   1.648  0.00  0.00    -0.388 OA
ATOM    154  C3  BDP d1180       8.099 -12.544  -0.555  0.00  0.00     0.092 C 
ATOM    155  O4  BDP d1180       7.410 -14.028  -2.309  0.00  0.00    -0.348 OA
ATOM    156  O5  BDP d1180      10.753 -13.409  -1.123  0.00  0.00    -0.340 OA
ATOM    157  C5  BDP d1180       9.686 -14.175  -1.643  0.00  0.00     0.152 C 
ATOM    158  O6B BDP d1180      10.670 -14.256  -3.825  0.00  0.00    -0.646 OA
ATOM    159  O6A BDP d1180       9.926 -16.154  -2.950  0.00  0.00    -0.646 OA
ATOM    160  C2  BDP d1180       9.294 -12.101   0.299  0.00  0.00     0.110 C 
ATOM    161  C4  BDP d1180       8.494 -13.246  -1.858  0.00  0.00     0.103 C 
ATOM    162  H   BDP d1180       7.066 -10.958  -0.035  0.00  0.00     0.210 HD
ATOM    163  H   BDP d1180      10.316 -13.913   0.777  0.00  0.00     0.133 H 
ATOM    164  H   BDP d1180       9.622 -11.788   2.208  0.00  0.00     0.210 HD
ATOM    165  H   BDP d1180       7.552 -13.261   0.019  0.00  0.00     0.091 H 
ATOM    166  H   BDP d1180       9.388 -14.938  -0.956  0.00  0.00     0.104 H 
ATOM    167  H   BDP d1180       9.600 -11.148  -0.077  0.00  0.00     0.094 H 
ATOM    168  H   BDP d1180       8.755 -12.495  -2.574  0.00  0.00     0.092 H 
ENDROOT
TORSDOF 43
ENDMDL
MODEL 67
REMARK VINA RESULT:      -5.4      4.350     19.275
REMARK  0 active torsions:
REMARK  status: ('A' for Active; 'I' for Inactive)
REMARK       I    between atoms: C1_1  and  O3_15 
REMARK       I    between atoms: C1_2  and  O3_93 
REMARK       I    between atoms: C6_3  and  C5_89 
REMARK       I    between atoms: C6_3  and  O6_76 
REMARK       I    between atoms: O3_4  and  C3_22 
REMARK       I    between atoms: C6_5  and  C5_48 
REMARK       I    between atoms: C6_5  and  O6_31 
REMARK       I    between atoms: C4_6  and  O4_74 
REMARK       I    between atoms: C7_7  and  C8_62 
REMARK       I    between atoms: C7_7  and  N2_60 
REMARK       I    between atoms: C6_8  and  C5_52 
REMARK       I    between atoms: C3_9  and  O3_38 
REMARK       I    between atoms: C1_10  and  O4_75 
REMARK       I    between atoms: C6_12  and  C5_51 
REMARK       I    between atoms: O3_13  and  C3_42 
REMARK       I    between atoms: O4_14  and  C4_84 
REMARK       I    between atoms: O3_15  and  C3_86 
REMARK       I    between atoms: C6_16  and  C5_23 
REMARK       I    between atoms: C6_16  and  O6_58 
REMARK       I    between atoms: C1_17  and  O3_63 
REMARK       I    between atoms: C2_18  and  N2_60 
REMARK       I    between atoms: C2_19  and  N2_53 
REMARK       I    between atoms: O2_20  and  C2_66 
REMARK       I    between atoms: C3_25  and  O3_93 
REMARK       I    between atoms: C7_26  and  C8_32 
REMARK       I    between atoms: C7_26  and  N2_37 
REMARK       I    between atoms: C2_28  and  N2_44 
REMARK       I    between atoms: C7_29  and  C8_54 
REMARK       I    between atoms: C7_29  and  N2_53 
REMARK       I    between atoms: O1_33  and  C1_80 
REMARK       I    between atoms: O4_34  and  C4_40 
REMARK       I    between atoms: O4_34  and  C1_92 
REMARK       I    between atoms: C7_36  and  C8_81 
REMARK       I    between atoms: C7_36  and  N2_44 
REMARK       I    between atoms: N2_37  and  C2_83 
REMARK       I    between atoms: O3_39  and  C3_61 
REMARK       I    between atoms: C1_41  and  O4_46 
REMARK       I    between atoms: O2_43  and  C2_73 
REMARK       I    between atoms: C6_45  and  C5_87 
REMARK       I    between atoms: O4_46  and  C4_67 
REMARK       I    between atoms: C4_50  and  O4_65 
REMARK       I    between atoms: C2_55  and  O2_82 
REMARK       I    between atoms: O4_57  and  C4_71 
REMARK       I    between atoms: O3_63  and  C3_85 
REMARK       I    between atoms: O4_75  and  C4_91 
REMARK       I    between atoms: C5_77  and  C6_90 
REMARK       I    between atoms: O6_79  and  C6_90 
ROOT
ATOM      1  C1  BDP d1176      12.789 -16.622  -1.025  0.00  0.00     0.160 C 
ATOM      2  O3  BDP d1176      15.779 -15.501   0.970  0.00  0.00    -0.390 OA
ATOM      3  O5  BDP d1176      11.956 -16.211   0.022  0.00  0.00    -0.340 OA
ATOM      4  O6A BDP d1176      10.818 -15.266   2.293  0.00  0.00    -0.646 OA
ATOM      5  C3  BDP d1176      14.697 -16.367   0.697  0.00  0.00     0.092 C 
ATOM      6  O4  BDP d1176      14.011 -16.819   2.939  0.00  0.00    -0.348 OA
ATOM      7  C4  BDP d1176      13.616 -16.164   1.749  0.00  0.00     0.103 C 
ATOM      8  C6  BDP d1176      11.158 -16.461   2.203  0.00  0.00     0.206 C 
ATOM      9  C2  BDP d1176      14.231 -16.180  -0.745  0.00  0.00     0.110 C 
ATOM     10  O6B BDP d1176      10.640 -17.419   2.814  0.00  0.00    -0.646 OA
ATOM     11  O2  BDP d1176      15.100 -16.955  -1.535  0.00  0.00    -0.388 OA
ATOM     12  C5  BDP d1176      12.303 -16.761   1.259  0.00  0.00     0.152 C 
ATOM     13  H   BDP d1176      12.785 -17.688  -1.114  0.00  0.00     0.133 H 
ATOM     14  H   BDP d1176      16.471 -15.627   0.302  0.00  0.00     0.210 HD
ATOM     15  H   BDP d1176      14.991 -17.394   0.768  0.00  0.00     0.091 H 
ATOM     16  H   BDP d1176      13.481 -15.118   1.930  0.00  0.00     0.092 H 
ATOM     17  H   BDP d1176      14.251 -15.133  -0.964  0.00  0.00     0.094 H 
ATOM     18  H   BDP d1176      15.024 -17.888  -1.277  0.00  0.00     0.210 HD
ATOM     19  H   BDP d1176      12.457 -17.818   1.196  0.00  0.00     0.104 H 
ATOM     20  C1  BDP d1178      14.365 -16.146   8.690  0.00  0.00     0.160 C 
ATOM     21  C6  BDP d1178      14.229 -13.194  10.961  0.00  0.00     0.206 C 
ATOM     22  O6B BDP d1178      13.290 -12.476  11.382  0.00  0.00    -0.646 OA
ATOM     23  O6A BDP d1178      15.445 -12.894  11.052  0.00  0.00    -0.646 OA
ATOM     24  O3  BDP d1178      13.728 -17.936  11.898  0.00  0.00    -0.390 OA
ATOM     25  O2  BDP d1178      14.317 -18.499   9.215  0.00  0.00    -0.388 OA
ATOM     26  C5  BDP d1178      13.826 -14.525  10.325  0.00  0.00     0.152 C 
ATOM     27  C3  BDP d1178      13.563 -16.982  10.873  0.00  0.00     0.092 C 
ATOM     28  C2  BDP d1178      14.546 -17.222   9.755  0.00  0.00     0.110 C 
ATOM     29  O4  BDP d1178      12.610 -15.312  12.190  0.00  0.00    -0.348 OA
ATOM     30  O5  BDP d1178      14.683 -14.891   9.250  0.00  0.00    -0.340 OA
ATOM     31  C4  BDP d1178      13.751 -15.579  11.425  0.00  0.00     0.103 C 
ATOM     32  H   BDP d1178      13.356 -16.072   8.341  0.00  0.00     0.133 H 
ATOM     33  H   BDP d1178      13.605 -18.827  11.533  0.00  0.00     0.210 HD
ATOM     34  H   BDP d1178      14.945 -18.662   8.494  0.00  0.00     0.210 HD
ATOM     35  H   BDP d1178      12.860 -14.434   9.874  0.00  0.00     0.104 H 
ATOM     36  H   BDP d1178      12.570 -17.079  10.486  0.00  0.00     0.091 H 
ATOM     37  H   BDP d1178      15.550 -17.176  10.123  0.00  0.00     0.094 H 
ATOM     38  H   BDP d1178      14.666 -15.537  11.978  0.00  0.00     0.092 H 
ATOM     39  C6  NAG d1177      17.305 -13.623   4.199  0.00  0.00     0.043 C 
ATOM     40  O4  NAG d1177      16.548 -14.126   7.044  0.00  0.00    -0.390 OA
ATOM     41  C2  NAG d1177      14.444 -16.667   5.301  0.00  0.00     0.087 C 
ATOM     42  C3  NAG d1177      14.942 -15.753   6.412  0.00  0.00     0.093 C 
ATOM     43  C7  NAG d1177      12.788 -18.449   5.690  0.00  0.00     0.214 C 
ATOM     44  N2  NAG d1177      13.127 -17.163   5.673  0.00  0.00    -0.349 N 
ATOM     45  C8  NAG d1177      11.312 -18.712   5.731  0.00  0.00    -0.003 C 
ATOM     46  O7  NAG d1177      13.592 -19.387   5.691  0.00  0.00    -0.274 OA
ATOM     47  O6  NAG d1177      17.924 -14.356   3.158  0.00  0.00    -0.398 OA
ATOM     48  C4  NAG d1177      16.226 -15.041   6.015  0.00  0.00     0.089 C 
ATOM     49  O5  NAG d1177      15.637 -15.273   3.693  0.00  0.00    -0.349 OA
ATOM     50  C5  NAG d1177      16.039 -14.337   4.671  0.00  0.00     0.089 C 
ATOM     51  C1  NAG d1177      14.399 -15.905   3.975  0.00  0.00     0.154 C 
ATOM     52  O3  NAG d1177      15.197 -16.508   7.574  0.00  0.00    -0.348 OA
ATOM     53  H   NAG d1177      17.985 -13.531   5.019  0.00  0.00     0.078 H 
ATOM     54  H   NAG d1177      17.040 -12.653   3.831  0.00  0.00     0.078 H 
ATOM     55  H   NAG d1177      16.660 -14.606   7.880  0.00  0.00     0.210 HD
ATOM     56  H   NAG d1177      15.109 -17.496   5.171  0.00  0.00     0.084 H 
ATOM     57  H   NAG d1177      14.180 -15.024   6.594  0.00  0.00     0.091 H 
ATOM     58  H   NAG d1177      12.443 -16.503   5.928  0.00  0.00     0.163 HD
ATOM     59  H   NAG d1177      10.784 -17.782   5.723  0.00  0.00     0.040 H 
ATOM     60  H   NAG d1177      11.071 -19.252   6.623  0.00  0.00     0.040 H 
ATOM     61  H   NAG d1177      11.029 -19.290   4.876  0.00  0.00     0.040 H 
ATOM     62  H   NAG d1177      18.166 -15.238   3.483  0.00  0.00     0.209 HD
ATOM     63  H   NAG d1177      17.030 -15.737   5.895  0.00  0.00     0.091 H 
ATOM     64  H   NAG d1177      15.284 -13.592   4.811  0.00  0.00     0.090 H 
ATOM     65  H   NAG d1177      13.677 -15.118   4.038  0.00  0.00     0.132 H 
ATOM     66  C6  NAG d1175       7.558 -16.336  -3.498  0.00  0.00     0.043 C 
ATOM     67  O3  NAG d1175      12.297 -16.034  -2.250  0.00  0.00    -0.348 OA
ATOM     68  C2  NAG d1175      11.718 -16.768  -4.455  0.00  0.00     0.087 C 
ATOM     69  O6  NAG d1175       6.636 -16.973  -4.352  0.00  0.00    -0.398 OA
ATOM     70  O1  NAG d1175      10.918 -17.155  -6.710  0.00  0.00    -0.369 OA
ATOM     71  C7  NAG d1175      13.913 -16.936  -5.519  0.00  0.00     0.214 C 
ATOM     72  N2  NAG d1175      12.985 -17.447  -4.707  0.00  0.00    -0.349 N 
ATOM     73  C5  NAG d1175       8.928 -16.961  -3.730  0.00  0.00     0.089 C 
ATOM     74  O5  NAG d1175       9.390 -16.649  -5.036  0.00  0.00    -0.349 OA
ATOM     75  C4  NAG d1175       9.909 -16.490  -2.653  0.00  0.00     0.089 C 
ATOM     76  O4  NAG d1175       9.484 -17.055  -1.425  0.00  0.00    -0.390 OA
ATOM     77  O7  NAG d1175      14.386 -15.803  -5.370  0.00  0.00    -0.274 OA
ATOM     78  C1  NAG d1175      10.598 -17.325  -5.343  0.00  0.00     0.151 C 
ATOM     79  C8  NAG d1175      14.373 -17.831  -6.636  0.00  0.00    -0.003 C 
ATOM     80  C3  NAG d1175      11.373 -16.858  -2.959  0.00  0.00     0.093 C 
ATOM     81  H   NAG d1175       7.594 -15.290  -3.718  0.00  0.00     0.078 H 
ATOM     82  H   NAG d1175       7.263 -16.460  -2.477  0.00  0.00     0.078 H 
ATOM     83  H   NAG d1175      11.820 -15.734  -4.712  0.00  0.00     0.084 H 
ATOM     84  H   NAG d1175       6.914 -16.855  -5.274  0.00  0.00     0.209 HD
ATOM     85  H   NAG d1175      11.745 -17.620  -6.910  0.00  0.00     0.212 HD
ATOM     86  H   NAG d1175      13.160 -18.309  -4.265  0.00  0.00     0.163 HD
ATOM     87  H   NAG d1175       8.854 -18.026  -3.657  0.00  0.00     0.090 H 
ATOM     88  H   NAG d1175       9.897 -15.421  -2.613  0.00  0.00     0.091 H 
ATOM     89  H   NAG d1175       9.505 -18.023  -1.490  0.00  0.00     0.210 HD
ATOM     90  H   NAG d1175      10.484 -18.373  -5.156  0.00  0.00     0.132 H 
ATOM     91  H   NAG d1175      13.845 -18.761  -6.590  0.00  0.00     0.040 H 
ATOM     92  H   NAG d1175      15.423 -18.013  -6.538  0.00  0.00     0.040 H 
ATOM     93  H   NAG d1175      14.180 -17.358  -7.576  0.00  0.00     0.040 H 
ATOM     94  H   NAG d1175      11.463 -17.875  -2.637  0.00  0.00     0.091 H 
ATOM     95  C4  NAG d1181       5.695  -7.446  21.064  0.00  0.00     0.089 C 
ATOM     96  C3  NAG d1181       7.117  -7.287  21.609  0.00  0.00     0.086 C 
ATOM     97  C6  NAG d1181       4.169  -8.761  19.532  0.00  0.00     0.043 C 
ATOM     98  C5  NAG d1181       5.517  -8.740  20.257  0.00  0.00     0.089 C 
ATOM     99  C7  NAG d1181      10.405  -6.725  20.785  0.00  0.00     0.214 C 
ATOM    100  C8  NAG d1181      10.889  -6.672  19.361  0.00  0.00    -0.003 C 
ATOM    101  N2  NAG d1181       9.496  -7.654  21.080  0.00  0.00    -0.349 N 
ATOM    102  O3  NAG d1181       7.315  -5.967  22.096  0.00  0.00    -0.391 OA
ATOM    103  C1  NAG d1181       7.838  -8.930  19.829  0.00  0.00     0.154 C 
ATOM    104  O6  NAG d1181       3.829 -10.086  19.178  0.00  0.00    -0.398 OA
ATOM    105  O5  NAG d1181       6.540  -8.887  19.287  0.00  0.00    -0.349 OA
ATOM    106  O7  NAG d1181      10.836  -5.938  21.631  0.00  0.00    -0.274 OA
ATOM    107  O4  NAG d1181       4.781  -7.430  22.138  0.00  0.00    -0.390 OA
ATOM    108  C2  NAG d1181       8.150  -7.607  20.526  0.00  0.00     0.087 C 
ATOM    109  H   NAG d1181       5.510  -6.629  20.398  0.00  0.00     0.091 H 
ATOM    110  H   NAG d1181       7.245  -7.976  22.417  0.00  0.00     0.090 H 
ATOM    111  H   NAG d1181       4.233  -8.164  18.647  0.00  0.00     0.078 H 
ATOM    112  H   NAG d1181       3.415  -8.368  20.182  0.00  0.00     0.078 H 
ATOM    113  H   NAG d1181       5.564  -9.546  20.959  0.00  0.00     0.090 H 
ATOM    114  H   NAG d1181      10.398  -7.431  18.789  0.00  0.00     0.040 H 
ATOM    115  H   NAG d1181      11.946  -6.834  19.337  0.00  0.00     0.040 H 
ATOM    116  H   NAG d1181      10.665  -5.711  18.944  0.00  0.00     0.040 H 
ATOM    117  H   NAG d1181       9.740  -8.389  21.687  0.00  0.00     0.163 HD
ATOM    118  H   NAG d1181       7.201  -5.334  21.370  0.00  0.00     0.210 HD
ATOM    119  H   NAG d1181       7.869  -9.747  20.519  0.00  0.00     0.132 H 
ATOM    120  H   NAG d1181       4.510 -10.447  18.589  0.00  0.00     0.209 HD
ATOM    121  H   NAG d1181       4.965  -8.177  22.728  0.00  0.00     0.210 HD
ATOM    122  H   NAG d1181       8.099  -6.820  19.803  0.00  0.00     0.084 H 
ATOM    123  C7  NAG d1179      10.165 -13.086  12.325  0.00  0.00     0.214 C 
ATOM    124  C1  NAG d1179      12.871 -14.837  13.521  0.00  0.00     0.154 C 
ATOM    125  C2  NAG d1179      11.564 -14.190  13.963  0.00  0.00     0.087 C 
ATOM    126  O5  NAG d1179      13.218 -15.876  14.411  0.00  0.00    -0.349 OA
ATOM    127  O7  NAG d1179       9.132 -13.681  12.625  0.00  0.00    -0.274 OA
ATOM    128  O4  NAG d1179      12.181 -14.517  17.639  0.00  0.00    -0.390 OA
ATOM    129  N2  NAG d1179      11.240 -13.057  13.111  0.00  0.00    -0.349 N 
ATOM    130  C8  NAG d1179      10.244 -12.354  11.021  0.00  0.00    -0.003 C 
ATOM    131  O3  NAG d1179      10.191 -13.524  15.797  0.00  0.00    -0.348 OA
ATOM    132  C4  NAG d1179      12.055 -14.945  16.299  0.00  0.00     0.089 C 
ATOM    133  C5  NAG d1179      13.394 -15.439  15.748  0.00  0.00     0.089 C 
ATOM    134  O6  NAG d1179      13.073 -17.670  16.642  0.00  0.00    -0.398 OA
ATOM    135  C3  NAG d1179      11.533 -13.800  15.438  0.00  0.00     0.093 C 
ATOM    136  C6  NAG d1179      13.980 -16.584  16.575  0.00  0.00     0.043 C 
ATOM    137  H   NAG d1179      13.703 -14.164  13.527  0.00  0.00     0.132 H 
ATOM    138  H   NAG d1179      10.810 -14.941  13.851  0.00  0.00     0.084 H 
ATOM    139  H   NAG d1179      11.320 -14.209  17.962  0.00  0.00     0.210 HD
ATOM    140  H   NAG d1179      11.819 -12.261  13.116  0.00  0.00     0.163 HD
ATOM    141  H   NAG d1179      11.208 -11.899  10.925  0.00  0.00     0.040 H 
ATOM    142  H   NAG d1179       9.488 -11.597  10.990  0.00  0.00     0.040 H 
ATOM    143  H   NAG d1179      10.094 -13.041  10.215  0.00  0.00     0.040 H 
ATOM    144  H   NAG d1179      11.362 -15.760  16.272  0.00  0.00     0.091 H 
ATOM    145  H   NAG d1179      14.082 -14.621  15.794  0.00  0.00     0.090 H 
ATOM    146  H   NAG d1179      13.463 -18.385  17.169  0.00  0.00     0.209 HD
ATOM    147  H   NAG d1179      12.150 -12.941  15.596  0.00  0.00     0.091 H 
ATOM    148  H   NAG d1179      14.181 -16.234  17.566  0.00  0.00     0.078 H 
ATOM    149  H   NAG d1179      14.883 -16.918  16.108  0.00  0.00     0.078 H 
ATOM    150  C6  BDP d1180      11.073 -10.832  19.580  0.00  0.00     0.206 C 
ATOM    151  O3  BDP d1180       6.775 -10.566  17.160  0.00  0.00    -0.390 OA
ATOM    152  C1  BDP d1180      10.029 -12.208  16.344  0.00  0.00     0.160 C 
ATOM    153  O2  BDP d1180       8.428 -11.423  14.775  0.00  0.00    -0.388 OA
ATOM    154  C3  BDP d1180       8.175 -10.536  16.976  0.00  0.00     0.092 C 
ATOM    155  O4  BDP d1180       8.829  -9.133  18.808  0.00  0.00    -0.348 OA
ATOM    156  O5  BDP d1180      10.368 -12.199  17.713  0.00  0.00    -0.340 OA
ATOM    157  C5  BDP d1180      10.325 -10.891  18.246  0.00  0.00     0.152 C 
ATOM    158  O6B BDP d1180      10.777 -11.670  20.466  0.00  0.00    -0.646 OA
ATOM    159  O6A BDP d1180      11.956  -9.950  19.708  0.00  0.00    -0.646 OA
ATOM    160  C2  BDP d1180       8.583 -11.756  16.139  0.00  0.00     0.110 C 
ATOM    161  C4  BDP d1180       8.863 -10.464  18.343  0.00  0.00     0.103 C 
ATOM    162  H   BDP d1180       6.336 -10.612  16.296  0.00  0.00     0.210 HD
ATOM    163  H   BDP d1180      10.684 -11.527  15.840  0.00  0.00     0.133 H 
ATOM    164  H   BDP d1180       8.681 -12.182  14.227  0.00  0.00     0.210 HD
ATOM    165  H   BDP d1180       8.488  -9.667  16.436  0.00  0.00     0.091 H 
ATOM    166  H   BDP d1180      10.829 -10.196  17.608  0.00  0.00     0.104 H 
ATOM    167  H   BDP d1180       7.956 -12.563  16.454  0.00  0.00     0.094 H 
ATOM    168  H   BDP d1180       8.345 -11.121  19.010  0.00  0.00     0.092 H 
ENDROOT
TORSDOF 43
ENDMDL
MODEL 68
REMARK VINA RESULT:      -5.4      5.321     19.468
REMARK  0 active torsions:
REMARK  status: ('A' for Active; 'I' for Inactive)
REMARK       I    between atoms: C1_1  and  O3_15 
REMARK       I    between atoms: C1_2  and  O3_93 
REMARK       I    between atoms: C6_3  and  C5_89 
REMARK       I    between atoms: C6_3  and  O6_76 
REMARK       I    between atoms: O3_4  and  C3_22 
REMARK       I    between atoms: C6_5  and  C5_48 
REMARK       I    between atoms: C6_5  and  O6_31 
REMARK       I    between atoms: C4_6  and  O4_74 
REMARK       I    between atoms: C7_7  and  C8_62 
REMARK       I    between atoms: C7_7  and  N2_60 
REMARK       I    between atoms: C6_8  and  C5_52 
REMARK       I    between atoms: C3_9  and  O3_38 
REMARK       I    between atoms: C1_10  and  O4_75 
REMARK       I    between atoms: C6_12  and  C5_51 
REMARK       I    between atoms: O3_13  and  C3_42 
REMARK       I    between atoms: O4_14  and  C4_84 
REMARK       I    between atoms: O3_15  and  C3_86 
REMARK       I    between atoms: C6_16  and  C5_23 
REMARK       I    between atoms: C6_16  and  O6_58 
REMARK       I    between atoms: C1_17  and  O3_63 
REMARK       I    between atoms: C2_18  and  N2_60 
REMARK       I    between atoms: C2_19  and  N2_53 
REMARK       I    between atoms: O2_20  and  C2_66 
REMARK       I    between atoms: C3_25  and  O3_93 
REMARK       I    between atoms: C7_26  and  C8_32 
REMARK       I    between atoms: C7_26  and  N2_37 
REMARK       I    between atoms: C2_28  and  N2_44 
REMARK       I    between atoms: C7_29  and  C8_54 
REMARK       I    between atoms: C7_29  and  N2_53 
REMARK       I    between atoms: O1_33  and  C1_80 
REMARK       I    between atoms: O4_34  and  C4_40 
REMARK       I    between atoms: O4_34  and  C1_92 
REMARK       I    between atoms: C7_36  and  C8_81 
REMARK       I    between atoms: C7_36  and  N2_44 
REMARK       I    between atoms: N2_37  and  C2_83 
REMARK       I    between atoms: O3_39  and  C3_61 
REMARK       I    between atoms: C1_41  and  O4_46 
REMARK       I    between atoms: O2_43  and  C2_73 
REMARK       I    between atoms: C6_45  and  C5_87 
REMARK       I    between atoms: O4_46  and  C4_67 
REMARK       I    between atoms: C4_50  and  O4_65 
REMARK       I    between atoms: C2_55  and  O2_82 
REMARK       I    between atoms: O4_57  and  C4_71 
REMARK       I    between atoms: O3_63  and  C3_85 
REMARK       I    between atoms: O4_75  and  C4_91 
REMARK       I    between atoms: C5_77  and  C6_90 
REMARK       I    between atoms: O6_79  and  C6_90 
ROOT
ATOM      1  C1  BDP d1176      14.489  -9.152   3.278  0.00  0.00     0.160 C 
ATOM      2  O3  BDP d1176      15.995  -8.558   6.677  0.00  0.00    -0.390 OA
ATOM      3  O5  BDP d1176      13.284  -9.513   3.892  0.00  0.00    -0.340 OA
ATOM      4  O6A BDP d1176      11.225 -10.105   5.552  0.00  0.00    -0.646 OA
ATOM      5  C3  BDP d1176      15.500  -9.383   5.643  0.00  0.00     0.092 C 
ATOM      6  O4  BDP d1176      14.407 -11.032   6.980  0.00  0.00    -0.348 OA
ATOM      7  C4  BDP d1176      14.165  -9.975   6.072  0.00  0.00     0.103 C 
ATOM      8  C6  BDP d1176      12.032 -10.988   5.201  0.00  0.00     0.206 C 
ATOM      9  C2  BDP d1176      15.464  -8.606   4.329  0.00  0.00     0.110 C 
ATOM     10  O6B BDP d1176      11.788 -12.209   5.109  0.00  0.00    -0.646 OA
ATOM     11  O2  BDP d1176      16.769  -8.672   3.807  0.00  0.00    -0.388 OA
ATOM     12  C5  BDP d1176      13.428 -10.517   4.854  0.00  0.00     0.152 C 
ATOM     13  H   BDP d1176      14.946 -10.002   2.817  0.00  0.00     0.133 H 
ATOM     14  H   BDP d1176      16.846  -8.178   6.409  0.00  0.00     0.210 HD
ATOM     15  H   BDP d1176      16.149 -10.215   5.463  0.00  0.00     0.091 H 
ATOM     16  H   BDP d1176      13.568  -9.219   6.537  0.00  0.00     0.092 H 
ATOM     17  H   BDP d1176      15.122  -7.615   4.541  0.00  0.00     0.094 H 
ATOM     18  H   BDP d1176      17.005  -9.598   3.642  0.00  0.00     0.210 HD
ATOM     19  H   BDP d1176      14.010 -11.337   4.489  0.00  0.00     0.104 H 
ATOM     20  C1  BDP d1178      12.677 -13.267  12.046  0.00  0.00     0.160 C 
ATOM     21  C6  BDP d1178      10.663 -11.958  14.896  0.00  0.00     0.206 C 
ATOM     22  O6B BDP d1178       9.434 -11.773  15.065  0.00  0.00    -0.646 OA
ATOM     23  O6A BDP d1178      11.560 -11.487  15.638  0.00  0.00    -0.646 OA
ATOM     24  O3  BDP d1178      11.875 -16.511  13.700  0.00  0.00    -0.390 OA
ATOM     25  O2  BDP d1178      13.432 -15.512  11.593  0.00  0.00    -0.388 OA
ATOM     26  C5  BDP d1178      11.053 -12.845  13.712  0.00  0.00     0.152 C 
ATOM     27  C3  BDP d1178      11.658 -15.235  13.141  0.00  0.00     0.092 C 
ATOM     28  C2  BDP d1178      12.945 -14.662  12.601  0.00  0.00     0.110 C 
ATOM     29  O4  BDP d1178       9.756 -14.701  14.376  0.00  0.00    -0.348 OA
ATOM     30  O5  BDP d1178      12.269 -12.426  13.102  0.00  0.00    -0.340 OA
ATOM     31  C4  BDP d1178      11.080 -14.294  14.185  0.00  0.00     0.103 C 
ATOM     32  H   BDP d1178      11.886 -13.251  11.326  0.00  0.00     0.133 H 
ATOM     33  H   BDP d1178      12.243 -17.101  13.025  0.00  0.00     0.210 HD
ATOM     34  H   BDP d1178      14.260 -15.151  11.239  0.00  0.00     0.210 HD
ATOM     35  H   BDP d1178      10.322 -12.753  12.935  0.00  0.00     0.104 H 
ATOM     36  H   BDP d1178      10.962 -15.339  12.335  0.00  0.00     0.091 H 
ATOM     37  H   BDP d1178      13.677 -14.588  13.378  0.00  0.00     0.094 H 
ATOM     38  H   BDP d1178      11.681 -14.335  15.069  0.00  0.00     0.092 H 
ATOM     39  C6  NAG d1177      15.555  -8.265  10.677  0.00  0.00     0.043 C 
ATOM     40  O4  NAG d1177      14.237 -10.275  12.451  0.00  0.00    -0.390 OA
ATOM     41  C2  NAG d1177      13.995 -11.992   9.148  0.00  0.00     0.087 C 
ATOM     42  C3  NAG d1177      13.711 -11.673  10.609  0.00  0.00     0.093 C 
ATOM     43  C7  NAG d1177      13.175 -14.042   8.053  0.00  0.00     0.214 C 
ATOM     44  N2  NAG d1177      12.949 -12.881   8.662  0.00  0.00    -0.349 N 
ATOM     45  C8  NAG d1177      12.000 -14.604   7.312  0.00  0.00    -0.003 C 
ATOM     46  O7  NAG d1177      14.249 -14.652   8.083  0.00  0.00    -0.274 OA
ATOM     47  O6  NAG d1177      16.705  -8.224   9.852  0.00  0.00    -0.398 OA
ATOM     48  C4  NAG d1177      14.649 -10.597  11.137  0.00  0.00     0.089 C 
ATOM     49  O5  NAG d1177      14.946  -9.759   8.901  0.00  0.00    -0.349 OA
ATOM     50  C5  NAG d1177      14.612  -9.376  10.218  0.00  0.00     0.089 C 
ATOM     51  C1  NAG d1177      14.052 -10.700   8.330  0.00  0.00     0.154 C 
ATOM     52  O3  NAG d1177      13.882 -12.831  11.393  0.00  0.00    -0.348 OA
ATOM     53  H   NAG d1177      15.853  -8.450  11.688  0.00  0.00     0.078 H 
ATOM     54  H   NAG d1177      15.046  -7.326  10.610  0.00  0.00     0.078 H 
ATOM     55  H   NAG d1177      14.273 -11.070  13.005  0.00  0.00     0.210 HD
ATOM     56  H   NAG d1177      14.944 -12.476   9.047  0.00  0.00     0.084 H 
ATOM     57  H   NAG d1177      12.703 -11.319  10.671  0.00  0.00     0.091 H 
ATOM     58  H   NAG d1177      12.014 -12.605   8.794  0.00  0.00     0.163 HD
ATOM     59  H   NAG d1177      11.169 -13.936   7.400  0.00  0.00     0.040 H 
ATOM     60  H   NAG d1177      11.738 -15.555   7.727  0.00  0.00     0.040 H 
ATOM     61  H   NAG d1177      12.253 -14.723   6.278  0.00  0.00     0.040 H 
ATOM     62  H   NAG d1177      17.173  -9.072   9.907  0.00  0.00     0.209 HD
ATOM     63  H   NAG d1177      15.660 -10.945  11.157  0.00  0.00     0.091 H 
ATOM     64  H   NAG d1177      13.616  -8.986  10.255  0.00  0.00     0.090 H 
ATOM     65  H   NAG d1177      13.091 -10.230   8.335  0.00  0.00     0.132 H 
ATOM     66  C6  NAG d1175      10.627  -8.818  -1.028  0.00  0.00     0.043 C 
ATOM     67  O3  NAG d1175      14.201  -8.154   2.274  0.00  0.00    -0.348 OA
ATOM     68  C2  NAG d1175      14.677  -7.792  -0.046  0.00  0.00     0.087 C 
ATOM     69  O6  NAG d1175      10.355  -9.126  -2.376  0.00  0.00    -0.398 OA
ATOM     70  O1  NAG d1175      14.836  -7.164  -2.382  0.00  0.00    -0.369 OA
ATOM     71  C7  NAG d1175      16.960  -6.922   0.041  0.00  0.00     0.214 C 
ATOM     72  N2  NAG d1175      16.121  -7.959   0.085  0.00  0.00    -0.349 N 
ATOM     73  C5  NAG d1175      12.132  -8.926  -0.812  0.00  0.00     0.089 C 
ATOM     74  O5  NAG d1175      12.802  -7.910  -1.545  0.00  0.00    -0.349 OA
ATOM     75  C4  NAG d1175      12.455  -8.856   0.682  0.00  0.00     0.089 C 
ATOM     76  O4  NAG d1175      11.943 -10.035   1.276  0.00  0.00    -0.390 OA
ATOM     77  O7  NAG d1175      16.860  -5.944   0.791  0.00  0.00    -0.274 OA
ATOM     78  C1  NAG d1175      14.211  -8.060  -1.483  0.00  0.00     0.151 C 
ATOM     79  C8  NAG d1175      18.062  -7.013  -0.978  0.00  0.00    -0.003 C 
ATOM     80  C3  NAG d1175      13.958  -8.692   0.974  0.00  0.00     0.093 C 
ATOM     81  H   NAG d1175      10.300  -7.823  -0.810  0.00  0.00     0.078 H 
ATOM     82  H   NAG d1175      10.111  -9.496  -0.381  0.00  0.00     0.078 H 
ATOM     83  H   NAG d1175      14.422  -6.775   0.168  0.00  0.00     0.084 H 
ATOM     84  H   NAG d1175      10.828  -8.505  -2.951  0.00  0.00     0.209 HD
ATOM     85  H   NAG d1175      15.798  -7.274  -2.332  0.00  0.00     0.212 HD
ATOM     86  H   NAG d1175      16.487  -8.864   0.211  0.00  0.00     0.163 HD
ATOM     87  H   NAG d1175      12.479  -9.871  -1.175  0.00  0.00     0.090 H 
ATOM     88  H   NAG d1175      11.997  -7.983   1.098  0.00  0.00     0.091 H 
ATOM     89  H   NAG d1175      12.375 -10.810   0.881  0.00  0.00     0.210 HD
ATOM     90  H   NAG d1175      14.483  -9.056  -1.765  0.00  0.00     0.132 H 
ATOM     91  H   NAG d1175      17.972  -7.931  -1.521  0.00  0.00     0.040 H 
ATOM     92  H   NAG d1175      19.010  -6.986  -0.482  0.00  0.00     0.040 H 
ATOM     93  H   NAG d1175      17.991  -6.189  -1.656  0.00  0.00     0.040 H 
ATOM     94  H   NAG d1175      14.351  -9.685   0.907  0.00  0.00     0.091 H 
ATOM     95  C4  NAG d1181      -2.114 -14.057  21.243  0.00  0.00     0.089 C 
ATOM     96  C3  NAG d1181      -1.121 -13.886  22.397  0.00  0.00     0.086 C 
ATOM     97  C6  NAG d1181      -2.423 -14.726  18.822  0.00  0.00     0.043 C 
ATOM     98  C5  NAG d1181      -1.493 -14.777  20.037  0.00  0.00     0.089 C 
ATOM     99  C7  NAG d1181       1.733 -12.285  23.446  0.00  0.00     0.214 C 
ATOM    100  C8  NAG d1181       2.563 -11.423  22.535  0.00  0.00    -0.003 C 
ATOM    101  N2  NAG d1181       1.237 -13.409  22.929  0.00  0.00    -0.349 N 
ATOM    102  O3  NAG d1181      -1.637 -12.980  23.362  0.00  0.00    -0.391 OA
ATOM    103  C1  NAG d1181       0.713 -14.215  20.689  0.00  0.00     0.154 C 
ATOM    104  O6  NAG d1181      -2.067 -15.734  17.897  0.00  0.00    -0.398 OA
ATOM    105  O5  NAG d1181      -0.256 -14.191  19.669  0.00  0.00    -0.349 OA
ATOM    106  O7  NAG d1181       1.524 -11.954  24.616  0.00  0.00    -0.274 OA
ATOM    107  O4  NAG d1181      -3.235 -14.780  21.698  0.00  0.00    -0.390 OA
ATOM    108  C2  NAG d1181       0.230 -13.387  21.879  0.00  0.00     0.087 C 
ATOM    109  H   NAG d1181      -2.402 -13.080  20.916  0.00  0.00     0.091 H 
ATOM    110  H   NAG d1181      -0.978 -14.839  22.859  0.00  0.00     0.090 H 
ATOM    111  H   NAG d1181      -2.339 -13.769  18.352  0.00  0.00     0.078 H 
ATOM    112  H   NAG d1181      -3.430 -14.887  19.144  0.00  0.00     0.078 H 
ATOM    113  H   NAG d1181      -1.339 -15.793  20.335  0.00  0.00     0.090 H 
ATOM    114  H   NAG d1181       2.625 -11.880  21.570  0.00  0.00     0.040 H 
ATOM    115  H   NAG d1181       3.546 -11.316  22.943  0.00  0.00     0.040 H 
ATOM    116  H   NAG d1181       2.107 -10.458  22.443  0.00  0.00     0.040 H 
ATOM    117  H   NAG d1181       1.561 -14.276  23.266  0.00  0.00     0.163 HD
ATOM    118  H   NAG d1181      -1.770 -12.111  22.952  0.00  0.00     0.210 HD
ATOM    119  H   NAG d1181       0.860 -15.238  20.966  0.00  0.00     0.132 H 
ATOM    120  H   NAG d1181      -1.154 -15.593  17.602  0.00  0.00     0.209 HD
ATOM    121  H   NAG d1181      -2.954 -15.662  21.990  0.00  0.00     0.210 HD
ATOM    122  H   NAG d1181       0.087 -12.377  21.556  0.00  0.00     0.084 H 
ATOM    123  C7  NAG d1179       6.705 -13.438  14.170  0.00  0.00     0.214 C 
ATOM    124  C1  NAG d1179       9.379 -14.913  15.747  0.00  0.00     0.154 C 
ATOM    125  C2  NAG d1179       7.856 -14.877  15.739  0.00  0.00     0.087 C 
ATOM    126  O5  NAG d1179       9.828 -16.153  16.251  0.00  0.00    -0.349 OA
ATOM    127  O7  NAG d1179       5.965 -14.311  13.722  0.00  0.00    -0.274 OA
ATOM    128  O4  NAG d1179       7.395 -16.854  18.883  0.00  0.00    -0.390 OA
ATOM    129  N2  NAG d1179       7.376 -13.572  15.312  0.00  0.00    -0.349 N 
ATOM    130  C8  NAG d1179       6.874 -12.154  13.417  0.00  0.00    -0.003 C 
ATOM    131  O3  NAG d1179       5.842 -15.535  16.836  0.00  0.00    -0.348 OA
ATOM    132  C4  NAG d1179       7.870 -16.570  17.584  0.00  0.00     0.089 C 
ATOM    133  C5  NAG d1179       9.393 -16.416  17.573  0.00  0.00     0.089 C 
ATOM    134  O6  NAG d1179       9.751 -18.803  17.339  0.00  0.00    -0.398 OA
ATOM    135  C3  NAG d1179       7.218 -15.294  17.062  0.00  0.00     0.093 C 
ATOM    136  C6  NAG d1179      10.109 -17.662  18.097  0.00  0.00     0.043 C 
ATOM    137  H   NAG d1179       9.819 -14.170  16.380  0.00  0.00     0.132 H 
ATOM    138  H   NAG d1179       7.547 -15.615  15.028  0.00  0.00     0.084 H 
ATOM    139  H   NAG d1179       6.429 -16.946  18.860  0.00  0.00     0.210 HD
ATOM    140  H   NAG d1179       7.550 -12.780  15.872  0.00  0.00     0.163 HD
ATOM    141  H   NAG d1179       7.547 -11.515  13.947  0.00  0.00     0.040 H 
ATOM    142  H   NAG d1179       5.924 -11.670  13.319  0.00  0.00     0.040 H 
ATOM    143  H   NAG d1179       7.271 -12.361  12.445  0.00  0.00     0.040 H 
ATOM    144  H   NAG d1179       7.614 -17.391  16.947  0.00  0.00     0.091 H 
ATOM    145  H   NAG d1179       9.638 -15.604  18.225  0.00  0.00     0.090 H 
ATOM    146  H   NAG d1179      10.215 -19.581  17.686  0.00  0.00     0.209 HD
ATOM    147  H   NAG d1179       7.352 -14.518  17.786  0.00  0.00     0.091 H 
ATOM    148  H   NAG d1179       9.836 -17.820  19.119  0.00  0.00     0.078 H 
ATOM    149  H   NAG d1179      11.165 -17.511  18.012  0.00  0.00     0.078 H 
ATOM    150  C6  BDP d1180       4.347 -14.978  21.285  0.00  0.00     0.206 C 
ATOM    151  O3  BDP d1180       1.280 -14.484  17.444  0.00  0.00    -0.390 OA
ATOM    152  C1  BDP d1180       4.999 -14.741  17.683  0.00  0.00     0.160 C 
ATOM    153  O2  BDP d1180       3.783 -13.649  15.961  0.00  0.00    -0.388 OA
ATOM    154  C3  BDP d1180       2.530 -14.060  17.950  0.00  0.00     0.092 C 
ATOM    155  O4  BDP d1180       1.961 -13.658  20.245  0.00  0.00    -0.348 OA
ATOM    156  O5  BDP d1180       4.868 -15.344  18.951  0.00  0.00    -0.340 OA
ATOM    157  C5  BDP d1180       4.136 -14.524  19.839  0.00  0.00     0.152 C 
ATOM    158  O6B BDP d1180       4.162 -16.189  21.561  0.00  0.00    -0.646 OA
ATOM    159  O6A BDP d1180       4.709 -14.111  22.115  0.00  0.00    -0.646 OA
ATOM    160  C2  BDP d1180       3.634 -14.575  17.016  0.00  0.00     0.110 C 
ATOM    161  C4  BDP d1180       2.674 -14.534  19.399  0.00  0.00     0.103 C 
ATOM    162  H   BDP d1180       1.186 -14.186  16.525  0.00  0.00     0.210 HD
ATOM    163  H   BDP d1180       5.440 -13.776  17.823  0.00  0.00     0.133 H 
ATOM    164  H   BDP d1180       4.477 -13.955  15.357  0.00  0.00     0.210 HD
ATOM    165  H   BDP d1180       2.611 -12.994  17.972  0.00  0.00     0.091 H 
ATOM    166  H   BDP d1180       4.482 -13.513  19.806  0.00  0.00     0.104 H 
ATOM    167  H   BDP d1180       3.326 -15.546  16.689  0.00  0.00     0.094 H 
ATOM    168  H   BDP d1180       2.291 -15.531  19.462  0.00  0.00     0.092 H 
ENDROOT
TORSDOF 43
ENDMDL
MODEL 69
REMARK VINA RESULT:      -5.3      3.658     19.423
REMARK  0 active torsions:
REMARK  status: ('A' for Active; 'I' for Inactive)
REMARK       I    between atoms: C1_1  and  O3_15 
REMARK       I    between atoms: C1_2  and  O3_93 
REMARK       I    between atoms: C6_3  and  C5_89 
REMARK       I    between atoms: C6_3  and  O6_76 
REMARK       I    between atoms: O3_4  and  C3_22 
REMARK       I    between atoms: C6_5  and  C5_48 
REMARK       I    between atoms: C6_5  and  O6_31 
REMARK       I    between atoms: C4_6  and  O4_74 
REMARK       I    between atoms: C7_7  and  C8_62 
REMARK       I    between atoms: C7_7  and  N2_60 
REMARK       I    between atoms: C6_8  and  C5_52 
REMARK       I    between atoms: C3_9  and  O3_38 
REMARK       I    between atoms: C1_10  and  O4_75 
REMARK       I    between atoms: C6_12  and  C5_51 
REMARK       I    between atoms: O3_13  and  C3_42 
REMARK       I    between atoms: O4_14  and  C4_84 
REMARK       I    between atoms: O3_15  and  C3_86 
REMARK       I    between atoms: C6_16  and  C5_23 
REMARK       I    between atoms: C6_16  and  O6_58 
REMARK       I    between atoms: C1_17  and  O3_63 
REMARK       I    between atoms: C2_18  and  N2_60 
REMARK       I    between atoms: C2_19  and  N2_53 
REMARK       I    between atoms: O2_20  and  C2_66 
REMARK       I    between atoms: C3_25  and  O3_93 
REMARK       I    between atoms: C7_26  and  C8_32 
REMARK       I    between atoms: C7_26  and  N2_37 
REMARK       I    between atoms: C2_28  and  N2_44 
REMARK       I    between atoms: C7_29  and  C8_54 
REMARK       I    between atoms: C7_29  and  N2_53 
REMARK       I    between atoms: O1_33  and  C1_80 
REMARK       I    between atoms: O4_34  and  C4_40 
REMARK       I    between atoms: O4_34  and  C1_92 
REMARK       I    between atoms: C7_36  and  C8_81 
REMARK       I    between atoms: C7_36  and  N2_44 
REMARK       I    between atoms: N2_37  and  C2_83 
REMARK       I    between atoms: O3_39  and  C3_61 
REMARK       I    between atoms: C1_41  and  O4_46 
REMARK       I    between atoms: O2_43  and  C2_73 
REMARK       I    between atoms: C6_45  and  C5_87 
REMARK       I    between atoms: O4_46  and  C4_67 
REMARK       I    between atoms: C4_50  and  O4_65 
REMARK       I    between atoms: C2_55  and  O2_82 
REMARK       I    between atoms: O4_57  and  C4_71 
REMARK       I    between atoms: O3_63  and  C3_85 
REMARK       I    between atoms: O4_75  and  C4_91 
REMARK       I    between atoms: C5_77  and  C6_90 
REMARK       I    between atoms: O6_79  and  C6_90 
ROOT
ATOM      1  C1  BDP d1176      14.564 -13.082  -0.669  0.00  0.00     0.160 C 
ATOM      2  O3  BDP d1176      16.430 -10.899   1.765  0.00  0.00    -0.390 OA
ATOM      3  O5  BDP d1176      13.572 -13.286   0.298  0.00  0.00    -0.340 OA
ATOM      4  O6A BDP d1176      11.970 -13.349   2.483  0.00  0.00    -0.646 OA
ATOM      5  C3  BDP d1176      15.961 -12.144   1.290  0.00  0.00     0.092 C 
ATOM      6  O4  BDP d1176      15.460 -13.173   3.385  0.00  0.00    -0.348 OA
ATOM      7  C4  BDP d1176      14.863 -12.650   2.214  0.00  0.00     0.103 C 
ATOM      8  C6  BDP d1176      12.877 -14.191   2.336  0.00  0.00     0.206 C 
ATOM      9  C2  BDP d1176      15.558 -12.022  -0.178  0.00  0.00     0.110 C 
ATOM     10  O6B BDP d1176      12.881 -15.352   2.796  0.00  0.00    -0.646 OA
ATOM     11  O2  BDP d1176      16.749 -12.147  -0.917  0.00  0.00    -0.388 OA
ATOM     12  C5  BDP d1176      14.072 -13.750   1.519  0.00  0.00     0.152 C 
ATOM     13  H   BDP d1176      15.109 -13.985  -0.846  0.00  0.00     0.133 H 
ATOM     14  H   BDP d1176      17.131 -10.572   1.179  0.00  0.00     0.210 HD
ATOM     15  H   BDP d1176      16.732 -12.886   1.310  0.00  0.00     0.091 H 
ATOM     16  H   BDP d1176      14.203 -11.846   2.464  0.00  0.00     0.092 H 
ATOM     17  H   BDP d1176      15.055 -11.086  -0.305  0.00  0.00     0.094 H 
ATOM     18  H   BDP d1176      17.142 -13.017  -0.749  0.00  0.00     0.210 HD
ATOM     19  H   BDP d1176      14.746 -14.570   1.386  0.00  0.00     0.104 H 
ATOM     20  C1  BDP d1178      15.055 -13.193   9.172  0.00  0.00     0.160 C 
ATOM     21  C6  BDP d1178      13.288 -11.037  11.647  0.00  0.00     0.206 C 
ATOM     22  O6B BDP d1178      12.090 -10.947  12.007  0.00  0.00    -0.646 OA
ATOM     23  O6A BDP d1178      14.173 -10.186  11.911  0.00  0.00    -0.646 OA
ATOM     24  O3  BDP d1178      15.216 -15.474  12.116  0.00  0.00    -0.390 OA
ATOM     25  O2  BDP d1178      16.179 -15.302   9.488  0.00  0.00    -0.388 OA
ATOM     26  C5  BDP d1178      13.662 -12.293  10.858  0.00  0.00     0.152 C 
ATOM     27  C3  BDP d1178      14.653 -14.602  11.162  0.00  0.00     0.092 C 
ATOM     28  C2  BDP d1178      15.690 -14.167  10.158  0.00  0.00     0.110 C 
ATOM     29  O4  BDP d1178      12.901 -13.823  12.486  0.00  0.00    -0.348 OA
ATOM     30  O5  BDP d1178      14.652 -12.035   9.869  0.00  0.00    -0.340 OA
ATOM     31  C4  BDP d1178      14.064 -13.381  11.848  0.00  0.00     0.103 C 
ATOM     32  H   BDP d1178      14.174 -13.585   8.709  0.00  0.00     0.133 H 
ATOM     33  H   BDP d1178      15.587 -16.249  11.666  0.00  0.00     0.210 HD
ATOM     34  H   BDP d1178      16.847 -15.032   8.839  0.00  0.00     0.210 HD
ATOM     35  H   BDP d1178      12.815 -12.636  10.301  0.00  0.00     0.104 H 
ATOM     36  H   BDP d1178      13.875 -15.127  10.649  0.00  0.00     0.091 H 
ATOM     37  H   BDP d1178      16.504 -13.676  10.649  0.00  0.00     0.094 H 
ATOM     38  H   BDP d1178      14.792 -12.962  12.511  0.00  0.00     0.092 H 
ATOM     39  C6  NAG d1177      16.577  -8.963   5.302  0.00  0.00     0.043 C 
ATOM     40  O4  NAG d1177      16.003 -10.153   7.981  0.00  0.00    -0.390 OA
ATOM     41  C2  NAG d1177      15.604 -13.144   5.786  0.00  0.00     0.087 C 
ATOM     42  C3  NAG d1177      15.494 -12.263   7.023  0.00  0.00     0.093 C 
ATOM     43  C7  NAG d1177      15.066 -15.549   5.819  0.00  0.00     0.214 C 
ATOM     44  N2  NAG d1177      14.702 -14.276   5.951  0.00  0.00    -0.349 N 
ATOM     45  C8  NAG d1177      13.931 -16.515   5.656  0.00  0.00    -0.003 C 
ATOM     46  O7  NAG d1177      16.234 -15.951   5.841  0.00  0.00    -0.274 OA
ATOM     47  O6  NAG d1177      17.548  -9.143   4.288  0.00  0.00    -0.398 OA
ATOM     48  C4  NAG d1177      16.259 -10.959   6.847  0.00  0.00     0.089 C 
ATOM     49  O5  NAG d1177      16.019 -11.140   4.459  0.00  0.00    -0.349 OA
ATOM     50  C5  NAG d1177      15.824 -10.269   5.554  0.00  0.00     0.089 C 
ATOM     51  C1  NAG d1177      15.261 -12.337   4.534  0.00  0.00     0.154 C 
ATOM     52  O3  NAG d1177      16.024 -12.938   8.140  0.00  0.00    -0.348 OA
ATOM     53  H   NAG d1177      17.062  -8.655   6.204  0.00  0.00     0.078 H 
ATOM     54  H   NAG d1177      15.879  -8.215   4.987  0.00  0.00     0.078 H 
ATOM     55  H   NAG d1177      16.290 -10.621   8.781  0.00  0.00     0.210 HD
ATOM     56  H   NAG d1177      16.604 -13.505   5.671  0.00  0.00     0.084 H 
ATOM     57  H   NAG d1177      14.458 -12.042   7.170  0.00  0.00     0.091 H 
ATOM     58  H   NAG d1177      13.763 -14.086   6.174  0.00  0.00     0.163 HD
ATOM     59  H   NAG d1177      13.004 -15.981   5.661  0.00  0.00     0.040 H 
ATOM     60  H   NAG d1177      13.942 -17.217   6.463  0.00  0.00     0.040 H 
ATOM     61  H   NAG d1177      14.037 -17.037   4.728  0.00  0.00     0.040 H 
ATOM     62  H   NAG d1177      18.185  -9.820   4.565  0.00  0.00     0.209 HD
ATOM     63  H   NAG d1177      17.311 -11.138   6.770  0.00  0.00     0.091 H 
ATOM     64  H   NAG d1177      14.788 -10.027   5.661  0.00  0.00     0.090 H 
ATOM     65  H   NAG d1177      14.236 -12.031   4.573  0.00  0.00     0.132 H 
ATOM     66  C6  NAG d1175      10.087 -15.114  -3.734  0.00  0.00     0.043 C 
ATOM     67  O3  NAG d1175      13.920 -12.660  -1.891  0.00  0.00    -0.348 OA
ATOM     68  C2  NAG d1175      13.938 -13.281  -4.205  0.00  0.00     0.087 C 
ATOM     69  O6  NAG d1175       9.675 -16.005  -4.745  0.00  0.00    -0.398 OA
ATOM     70  O1  NAG d1175      13.591 -13.709  -6.566  0.00  0.00    -0.369 OA
ATOM     71  C7  NAG d1175      15.974 -12.188  -5.001  0.00  0.00     0.214 C 
ATOM     72  N2  NAG d1175      15.387 -13.197  -4.355  0.00  0.00    -0.349 N 
ATOM     73  C5  NAG d1175      11.596 -14.934  -3.847  0.00  0.00     0.089 C 
ATOM     74  O5  NAG d1175      11.916 -14.262  -5.056  0.00  0.00    -0.349 OA
ATOM     75  C4  NAG d1175      12.128 -14.188  -2.622  0.00  0.00     0.089 C 
ATOM     76  O4  NAG d1175      11.974 -15.047  -1.507  0.00  0.00    -0.390 OA
ATOM     77  O7  NAG d1175      15.793 -11.001  -4.701  0.00  0.00    -0.274 OA
ATOM     78  C1  NAG d1175      13.317 -14.197  -5.267  0.00  0.00     0.151 C 
ATOM     79  C8  NAG d1175      16.897 -12.575  -6.124  0.00  0.00    -0.003 C 
ATOM     80  C3  NAG d1175      13.592 -13.732  -2.775  0.00  0.00     0.093 C 
ATOM     81  H   NAG d1175       9.598 -14.171  -3.860  0.00  0.00     0.078 H 
ATOM     82  H   NAG d1175       9.832 -15.504  -2.770  0.00  0.00     0.078 H 
ATOM     83  H   NAG d1175      13.514 -12.310  -4.360  0.00  0.00     0.084 H 
ATOM     84  H   NAG d1175       9.912 -15.641  -5.613  0.00  0.00     0.209 HD
ATOM     85  H   NAG d1175      14.551 -13.668  -6.700  0.00  0.00     0.212 HD
ATOM     86  H   NAG d1175      15.948 -13.907  -3.968  0.00  0.00     0.163 HD
ATOM     87  H   NAG d1175      12.070 -15.893  -3.873  0.00  0.00     0.090 H 
ATOM     88  H   NAG d1175      11.571 -13.283  -2.495  0.00  0.00     0.091 H 
ATOM     89  H   NAG d1175      12.489 -15.857  -1.650  0.00  0.00     0.210 HD
ATOM     90  H   NAG d1175      13.741 -15.176  -5.184  0.00  0.00     0.132 H 
ATOM     91  H   NAG d1175      16.914 -13.640  -6.221  0.00  0.00     0.040 H 
ATOM     92  H   NAG d1175      17.884 -12.221  -5.913  0.00  0.00     0.040 H 
ATOM     93  H   NAG d1175      16.549 -12.140  -7.038  0.00  0.00     0.040 H 
ATOM     94  H   NAG d1175      14.167 -14.600  -2.531  0.00  0.00     0.091 H 
ATOM     95  C4  NAG d1181       2.393 -11.726  21.067  0.00  0.00     0.089 C 
ATOM     96  C3  NAG d1181       3.497 -10.954  21.795  0.00  0.00     0.086 C 
ATOM     97  C6  NAG d1181       1.851 -13.408  19.255  0.00  0.00     0.043 C 
ATOM     98  C5  NAG d1181       2.951 -12.815  20.140  0.00  0.00     0.089 C 
ATOM     99  C7  NAG d1181       6.085  -8.723  21.431  0.00  0.00     0.214 C 
ATOM    100  C8  NAG d1181       6.564  -8.245  20.087  0.00  0.00    -0.003 C 
ATOM    101  N2  NAG d1181       5.759 -10.011  21.534  0.00  0.00    -0.349 N 
ATOM    102  O3  NAG d1181       2.964  -9.790  22.411  0.00  0.00    -0.391 OA
ATOM    103  C1  NAG d1181       5.067 -11.762  19.986  0.00  0.00     0.154 C 
ATOM    104  O6  NAG d1181       2.258 -14.664  18.753  0.00  0.00    -0.398 OA
ATOM    105  O5  NAG d1181       3.966 -12.300  19.294  0.00  0.00    -0.349 OA
ATOM    106  O7  NAG d1181       6.000  -7.947  22.386  0.00  0.00    -0.274 OA
ATOM    107  O4  NAG d1181       1.533 -12.312  22.019  0.00  0.00    -0.390 OA
ATOM    108  C2  NAG d1181       4.617 -10.568  20.825  0.00  0.00     0.087 C 
ATOM    109  H   NAG d1181       1.860 -11.029  20.455  0.00  0.00     0.091 H 
ATOM    110  H   NAG d1181       3.907 -11.589  22.552  0.00  0.00     0.090 H 
ATOM    111  H   NAG d1181       1.659 -12.746  18.438  0.00  0.00     0.078 H 
ATOM    112  H   NAG d1181       0.963 -13.534  19.838  0.00  0.00     0.078 H 
ATOM    113  H   NAG d1181       3.358 -13.576  20.773  0.00  0.00     0.090 H 
ATOM    114  H   NAG d1181       6.566  -9.063  19.398  0.00  0.00     0.040 H 
ATOM    115  H   NAG d1181       7.555  -7.853  20.180  0.00  0.00     0.040 H 
ATOM    116  H   NAG d1181       5.909  -7.478  19.727  0.00  0.00     0.040 H 
ATOM    117  H   NAG d1181       6.305 -10.601  22.103  0.00  0.00     0.163 HD
ATOM    118  H   NAG d1181       2.590  -9.207  21.732  0.00  0.00     0.210 HD
ATOM    119  H   NAG d1181       5.466 -12.539  20.605  0.00  0.00     0.132 H 
ATOM    120  H   NAG d1181       3.063 -14.555  18.224  0.00  0.00     0.209 HD
ATOM    121  H   NAG d1181       2.033 -12.940  22.563  0.00  0.00     0.210 HD
ATOM    122  H   NAG d1181       4.217  -9.822  20.169  0.00  0.00     0.084 H 
ATOM    123  C7  NAG d1179       9.660 -13.154  12.505  0.00  0.00     0.214 C 
ATOM    124  C1  NAG d1179      12.797 -13.465  13.875  0.00  0.00     0.154 C 
ATOM    125  C2  NAG d1179      11.319 -13.622  14.205  0.00  0.00     0.087 C 
ATOM    126  O5  NAG d1179      13.568 -14.301  14.711  0.00  0.00    -0.349 OA
ATOM    127  O7  NAG d1179       9.057 -14.219  12.625  0.00  0.00    -0.274 OA
ATOM    128  O4  NAG d1179      11.780 -14.087  17.889  0.00  0.00    -0.390 OA
ATOM    129  N2  NAG d1179      10.517 -12.699  13.417  0.00  0.00    -0.349 N 
ATOM    130  C8  NAG d1179       9.438 -12.312  11.286  0.00  0.00    -0.003 C 
ATOM    131  O3  NAG d1179       9.684 -13.982  15.905  0.00  0.00    -0.348 OA
ATOM    132  C4  NAG d1179      11.975 -14.337  16.513  0.00  0.00     0.089 C 
ATOM    133  C5  NAG d1179      13.412 -14.019  16.091  0.00  0.00     0.089 C 
ATOM    134  O6  NAG d1179      14.216 -16.209  16.749  0.00  0.00    -0.398 OA
ATOM    135  C3  NAG d1179      10.998 -13.501  15.693  0.00  0.00     0.093 C 
ATOM    136  C6  NAG d1179      14.445 -14.818  16.886  0.00  0.00     0.043 C 
ATOM    137  H   NAG d1179      13.168 -12.475  14.039  0.00  0.00     0.132 H 
ATOM    138  H   NAG d1179      11.061 -14.626  13.938  0.00  0.00     0.084 H 
ATOM    139  H   NAG d1179      10.864 -14.297  18.128  0.00  0.00     0.210 HD
ATOM    140  H   NAG d1179      10.608 -11.729  13.560  0.00  0.00     0.163 HD
ATOM    141  H   NAG d1179      10.038 -11.430  11.348  0.00  0.00     0.040 H 
ATOM    142  H   NAG d1179       8.405 -12.038  11.226  0.00  0.00     0.040 H 
ATOM    143  H   NAG d1179       9.710 -12.869  10.414  0.00  0.00     0.040 H 
ATOM    144  H   NAG d1179      11.798 -15.376  16.333  0.00  0.00     0.091 H 
ATOM    145  H   NAG d1179      13.582 -12.981  16.290  0.00  0.00     0.090 H 
ATOM    146  H   NAG d1179      14.881 -16.698  17.260  0.00  0.00     0.209 HD
ATOM    147  H   NAG d1179      11.080 -12.479  15.996  0.00  0.00     0.091 H 
ATOM    148  H   NAG d1179      14.375 -14.551  17.919  0.00  0.00     0.078 H 
ATOM    149  H   NAG d1179      15.419 -14.591  16.507  0.00  0.00     0.078 H 
ATOM    150  C6  BDP d1180       8.827 -11.745  19.979  0.00  0.00     0.206 C 
ATOM    151  O3  BDP d1180       5.158 -13.335  17.080  0.00  0.00    -0.390 OA
ATOM    152  C1  BDP d1180       8.839 -13.009  16.536  0.00  0.00     0.160 C 
ATOM    153  O2  BDP d1180       7.166 -12.925  14.853  0.00  0.00    -0.388 OA
ATOM    154  C3  BDP d1180       6.356 -12.587  17.073  0.00  0.00     0.092 C 
ATOM    155  O4  BDP d1180       6.086 -11.305  19.082  0.00  0.00    -0.348 OA
ATOM    156  O5  BDP d1180       9.038 -13.016  17.932  0.00  0.00    -0.340 OA
ATOM    157  C5  BDP d1180       8.301 -11.989  18.564  0.00  0.00     0.152 C 
ATOM    158  O6B BDP d1180       8.944 -12.729  20.749  0.00  0.00    -0.646 OA
ATOM    159  O6A BDP d1180       9.128 -10.566  20.288  0.00  0.00    -0.646 OA
ATOM    160  C2  BDP d1180       7.381 -13.316  16.193  0.00  0.00     0.110 C 
ATOM    161  C4  BDP d1180       6.822 -12.366  18.515  0.00  0.00     0.103 C 
ATOM    162  H   BDP d1180       4.860 -13.478  16.168  0.00  0.00     0.210 HD
ATOM    163  H   BDP d1180       9.086 -12.033  16.175  0.00  0.00     0.133 H 
ATOM    164  H   BDP d1180       7.805 -13.375  14.279  0.00  0.00     0.210 HD
ATOM    165  H   BDP d1180       6.216 -11.614  16.650  0.00  0.00     0.091 H 
ATOM    166  H   BDP d1180       8.420 -11.057  18.052  0.00  0.00     0.104 H 
ATOM    167  H   BDP d1180       7.235 -14.362  16.360  0.00  0.00     0.094 H 
ATOM    168  H   BDP d1180       6.671 -13.276  19.056  0.00  0.00     0.092 H 
ENDROOT
TORSDOF 43
ENDMDL
MODEL 70
REMARK VINA RESULT:      -5.3      3.613     19.636
REMARK  0 active torsions:
REMARK  status: ('A' for Active; 'I' for Inactive)
REMARK       I    between atoms: C1_1  and  O3_15 
REMARK       I    between atoms: C1_2  and  O3_93 
REMARK       I    between atoms: C6_3  and  C5_89 
REMARK       I    between atoms: C6_3  and  O6_76 
REMARK       I    between atoms: O3_4  and  C3_22 
REMARK       I    between atoms: C6_5  and  C5_48 
REMARK       I    between atoms: C6_5  and  O6_31 
REMARK       I    between atoms: C4_6  and  O4_74 
REMARK       I    between atoms: C7_7  and  C8_62 
REMARK       I    between atoms: C7_7  and  N2_60 
REMARK       I    between atoms: C6_8  and  C5_52 
REMARK       I    between atoms: C3_9  and  O3_38 
REMARK       I    between atoms: C1_10  and  O4_75 
REMARK       I    between atoms: C6_12  and  C5_51 
REMARK       I    between atoms: O3_13  and  C3_42 
REMARK       I    between atoms: O4_14  and  C4_84 
REMARK       I    between atoms: O3_15  and  C3_86 
REMARK       I    between atoms: C6_16  and  C5_23 
REMARK       I    between atoms: C6_16  and  O6_58 
REMARK       I    between atoms: C1_17  and  O3_63 
REMARK       I    between atoms: C2_18  and  N2_60 
REMARK       I    between atoms: C2_19  and  N2_53 
REMARK       I    between atoms: O2_20  and  C2_66 
REMARK       I    between atoms: C3_25  and  O3_93 
REMARK       I    between atoms: C7_26  and  C8_32 
REMARK       I    between atoms: C7_26  and  N2_37 
REMARK       I    between atoms: C2_28  and  N2_44 
REMARK       I    between atoms: C7_29  and  C8_54 
REMARK       I    between atoms: C7_29  and  N2_53 
REMARK       I    between atoms: O1_33  and  C1_80 
REMARK       I    between atoms: O4_34  and  C4_40 
REMARK       I    between atoms: O4_34  and  C1_92 
REMARK       I    between atoms: C7_36  and  C8_81 
REMARK       I    between atoms: C7_36  and  N2_44 
REMARK       I    between atoms: N2_37  and  C2_83 
REMARK       I    between atoms: O3_39  and  C3_61 
REMARK       I    between atoms: C1_41  and  O4_46 
REMARK       I    between atoms: O2_43  and  C2_73 
REMARK       I    between atoms: C6_45  and  C5_87 
REMARK       I    between atoms: O4_46  and  C4_67 
REMARK       I    between atoms: C4_50  and  O4_65 
REMARK       I    between atoms: C2_55  and  O2_82 
REMARK       I    between atoms: O4_57  and  C4_71 
REMARK       I    between atoms: O3_63  and  C3_85 
REMARK       I    between atoms: O4_75  and  C4_91 
REMARK       I    between atoms: C5_77  and  C6_90 
REMARK       I    between atoms: O6_79  and  C6_90 
ROOT
ATOM      1  C1  BDP d1176      14.311 -11.589   1.547  0.00  0.00     0.160 C 
ATOM      2  O3  BDP d1176      15.280  -9.036   4.138  0.00  0.00    -0.390 OA
ATOM      3  O5  BDP d1176      13.365 -12.111   2.437  0.00  0.00    -0.340 OA
ATOM      4  O6A BDP d1176      11.717 -12.722   4.500  0.00  0.00    -0.646 OA
ATOM      5  C3  BDP d1176      15.235 -10.347   3.613  0.00  0.00     0.092 C 
ATOM      6  O4  BDP d1176      14.930 -11.550   5.653  0.00  0.00    -0.348 OA
ATOM      7  C4  BDP d1176      14.281 -11.187   4.449  0.00  0.00     0.103 C 
ATOM      8  C6  BDP d1176      12.842 -13.251   4.408  0.00  0.00     0.206 C 
ATOM      9  C2  BDP d1176      14.909 -10.299   2.122  0.00  0.00     0.110 C 
ATOM     10  O6B BDP d1176      13.162 -14.374   4.851  0.00  0.00    -0.646 OA
ATOM     11  O2  BDP d1176      16.129 -10.040   1.469  0.00  0.00    -0.388 OA
ATOM     12  C5  BDP d1176      13.901 -12.448   3.684  0.00  0.00     0.152 C 
ATOM     13  H   BDP d1176      15.111 -12.283   1.397  0.00  0.00     0.133 H 
ATOM     14  H   BDP d1176      15.888  -8.496   3.608  0.00  0.00     0.210 HD
ATOM     15  H   BDP d1176      16.189 -10.827   3.679  0.00  0.00     0.091 H 
ATOM     16  H   BDP d1176      13.396 -10.625   4.662  0.00  0.00     0.092 H 
ATOM     17  H   BDP d1176      14.160  -9.551   1.972  0.00  0.00     0.094 H 
ATOM     18  H   BDP d1176      16.753 -10.760   1.653  0.00  0.00     0.210 HD
ATOM     19  H   BDP d1176      14.797 -13.026   3.589  0.00  0.00     0.104 H 
ATOM     20  C1  BDP d1178      14.177 -11.887  11.395  0.00  0.00     0.160 C 
ATOM     21  C6  BDP d1178      11.692 -10.438  13.766  0.00  0.00     0.206 C 
ATOM     22  O6B BDP d1178      10.501 -10.721  14.040  0.00  0.00    -0.646 OA
ATOM     23  O6A BDP d1178      12.264  -9.373  14.104  0.00  0.00    -0.646 OA
ATOM     24  O3  BDP d1178      14.821 -14.117  14.312  0.00  0.00    -0.390 OA
ATOM     25  O2  BDP d1178      15.856 -13.577  11.763  0.00  0.00    -0.388 OA
ATOM     26  C5  BDP d1178      12.473 -11.499  12.989  0.00  0.00     0.152 C 
ATOM     27  C3  BDP d1178      14.086 -13.419  13.332  0.00  0.00     0.092 C 
ATOM     28  C2  BDP d1178      15.009 -12.662  12.411  0.00  0.00     0.110 C 
ATOM     29  O4  BDP d1178      12.100 -13.241  14.537  0.00  0.00    -0.348 OA
ATOM     30  O5  BDP d1178      13.403 -10.925  12.077  0.00  0.00    -0.340 OA
ATOM     31  C4  BDP d1178      13.117 -12.452  13.990  0.00  0.00     0.103 C 
ATOM     32  H   BDP d1178      13.485 -12.507  10.864  0.00  0.00     0.133 H 
ATOM     33  H   BDP d1178      15.435 -14.731  13.880  0.00  0.00     0.210 HD
ATOM     34  H   BDP d1178      16.454 -13.099  11.167  0.00  0.00     0.210 HD
ATOM     35  H   BDP d1178      11.805 -12.059  12.367  0.00  0.00     0.104 H 
ATOM     36  H   BDP d1178      13.536 -14.134  12.757  0.00  0.00     0.091 H 
ATOM     37  H   BDP d1178      15.606 -11.969  12.966  0.00  0.00     0.094 H 
ATOM     38  H   BDP d1178      13.643 -11.859  14.709  0.00  0.00     0.092 H 
ATOM     39  C6  NAG d1177      14.614  -7.266   7.702  0.00  0.00     0.043 C 
ATOM     40  O4  NAG d1177      14.249  -8.664  10.316  0.00  0.00    -0.390 OA
ATOM     41  C2  NAG d1177      14.904 -11.562   8.059  0.00  0.00     0.087 C 
ATOM     42  C3  NAG d1177      14.457 -10.795   9.296  0.00  0.00     0.093 C 
ATOM     43  C7  NAG d1177      15.107 -14.017   8.020  0.00  0.00     0.214 C 
ATOM     44  N2  NAG d1177      14.373 -12.915   8.143  0.00  0.00    -0.349 N 
ATOM     45  C8  NAG d1177      14.325 -15.270   7.763  0.00  0.00    -0.003 C 
ATOM     46  O7  NAG d1177      16.338 -14.055   8.120  0.00  0.00    -0.274 OA
ATOM     47  O6  NAG d1177      15.658  -7.114   6.758  0.00  0.00    -0.398 OA
ATOM     48  C4  NAG d1177      14.807  -9.318   9.193  0.00  0.00     0.089 C 
ATOM     49  O5  NAG d1177      14.787  -9.480   6.792  0.00  0.00    -0.349 OA
ATOM     50  C5  NAG d1177      14.271  -8.744   7.882  0.00  0.00     0.089 C 
ATOM     51  C1  NAG d1177      14.417 -10.850   6.796  0.00  0.00     0.154 C 
ATOM     52  O3  NAG d1177      15.090 -11.321  10.439  0.00  0.00    -0.348 OA
ATOM     53  H   NAG d1177      14.926  -6.859   8.641  0.00  0.00     0.078 H 
ATOM     54  H   NAG d1177      13.747  -6.748   7.348  0.00  0.00     0.078 H 
ATOM     55  H   NAG d1177      14.611  -9.052  11.129  0.00  0.00     0.210 HD
ATOM     56  H   NAG d1177      15.972 -11.605   8.010  0.00  0.00     0.084 H 
ATOM     57  H   NAG d1177      13.394 -10.898   9.371  0.00  0.00     0.091 H 
ATOM     58  H   NAG d1177      13.407 -13.020   8.301  0.00  0.00     0.163 HD
ATOM     59  H   NAG d1177      13.283 -15.036   7.709  0.00  0.00     0.040 H 
ATOM     60  H   NAG d1177      14.493 -15.965   8.559  0.00  0.00     0.040 H 
ATOM     61  H   NAG d1177      14.641 -15.705   6.838  0.00  0.00     0.040 H 
ATOM     62  H   NAG d1177      16.448  -7.581   7.071  0.00  0.00     0.209 HD
ATOM     63  H   NAG d1177      15.867  -9.174   9.189  0.00  0.00     0.091 H 
ATOM     64  H   NAG d1177      13.205  -8.824   7.918  0.00  0.00     0.090 H 
ATOM     65  H   NAG d1177      13.348 -10.863   6.765  0.00  0.00     0.132 H 
ATOM     66  C6  NAG d1175      10.852 -14.752  -1.859  0.00  0.00     0.043 C 
ATOM     67  O3  NAG d1175      13.650 -11.335   0.287  0.00  0.00    -0.348 OA
ATOM     68  C2  NAG d1175      14.002 -11.843  -2.027  0.00  0.00     0.087 C 
ATOM     69  O6  NAG d1175      10.790 -15.690  -2.909  0.00  0.00    -0.398 OA
ATOM     70  O1  NAG d1175      13.952 -12.274  -4.412  0.00  0.00    -0.369 OA
ATOM     71  C7  NAG d1175      15.667 -10.168  -2.660  0.00  0.00     0.214 C 
ATOM     72  N2  NAG d1175      15.367 -11.328  -2.072  0.00  0.00    -0.349 N 
ATOM     73  C5  NAG d1175      12.242 -14.129  -1.861  0.00  0.00     0.089 C 
ATOM     74  O5  NAG d1175      12.424 -13.351  -3.034  0.00  0.00    -0.349 OA
ATOM     75  C4  NAG d1175      12.448 -13.300  -0.591  0.00  0.00     0.089 C 
ATOM     76  O4  NAG d1175      12.485 -14.204   0.498  0.00  0.00    -0.390 OA
ATOM     77  O7  NAG d1175      15.121  -9.100  -2.358  0.00  0.00    -0.274 OA
ATOM     78  C1  NAG d1175      13.753 -12.866  -3.144  0.00  0.00     0.151 C 
ATOM     79  C8  NAG d1175      16.733 -10.226  -3.719  0.00  0.00    -0.003 C 
ATOM     80  C3  NAG d1175      13.715 -12.425  -0.632  0.00  0.00     0.093 C 
ATOM     81  H   NAG d1175      10.113 -13.992  -2.007  0.00  0.00     0.078 H 
ATOM     82  H   NAG d1175      10.663 -15.233  -0.921  0.00  0.00     0.078 H 
ATOM     83  H   NAG d1175      13.319 -11.037  -2.200  0.00  0.00     0.084 H 
ATOM     84  H   NAG d1175      10.964 -15.242  -3.752  0.00  0.00     0.209 HD
ATOM     85  H   NAG d1175      14.863 -11.945  -4.477  0.00  0.00     0.212 HD
ATOM     86  H   NAG d1175      16.088 -11.853  -1.656  0.00  0.00     0.163 HD
ATOM     87  H   NAG d1175      12.982 -14.902  -1.866  0.00  0.00     0.090 H 
ATOM     88  H   NAG d1175      11.639 -12.606  -0.492  0.00  0.00     0.091 H 
ATOM     89  H   NAG d1175      13.226 -14.819   0.382  0.00  0.00     0.210 HD
ATOM     90  H   NAG d1175      14.444 -13.677  -3.043  0.00  0.00     0.132 H 
ATOM     91  H   NAG d1175      17.074 -11.234  -3.829  0.00  0.00     0.040 H 
ATOM     92  H   NAG d1175      17.553  -9.602  -3.433  0.00  0.00     0.040 H 
ATOM     93  H   NAG d1175      16.331  -9.883  -4.650  0.00  0.00     0.040 H 
ATOM     94  H   NAG d1175      14.506 -13.092  -0.359  0.00  0.00     0.091 H 
ATOM     95  C4  NAG d1181       0.915 -14.653  22.370  0.00  0.00     0.089 C 
ATOM     96  C3  NAG d1181       1.689 -13.612  23.185  0.00  0.00     0.086 C 
ATOM     97  C6  NAG d1181       1.018 -16.356  20.501  0.00  0.00     0.043 C 
ATOM     98  C5  NAG d1181       1.832 -15.494  21.470  0.00  0.00     0.089 C 
ATOM     99  C7  NAG d1181       3.512 -10.703  23.038  0.00  0.00     0.214 C 
ATOM    100  C8  NAG d1181       3.911 -10.059  21.738  0.00  0.00    -0.003 C 
ATOM    101  N2  NAG d1181       3.579 -12.033  23.100  0.00  0.00    -0.349 N 
ATOM    102  O3  NAG d1181       0.795 -12.682  23.777  0.00  0.00    -0.391 OA
ATOM    103  C1  NAG d1181       3.542 -13.856  21.483  0.00  0.00     0.154 C 
ATOM    104  O6  NAG d1181       1.813 -17.417  20.012  0.00  0.00    -0.398 OA
ATOM    105  O5  NAG d1181       2.698 -14.673  20.707  0.00  0.00    -0.349 OA
ATOM    106  O7  NAG d1181       3.137 -10.021  23.995  0.00  0.00    -0.274 OA
ATOM    107  O4  NAG d1181       0.210 -15.500  23.249  0.00  0.00    -0.390 OA
ATOM    108  C2  NAG d1181       2.703 -12.879  22.303  0.00  0.00     0.087 C 
ATOM    109  H   NAG d1181       0.239 -14.125  21.730  0.00  0.00     0.091 H 
ATOM    110  H   NAG d1181       2.220 -14.123  23.961  0.00  0.00     0.090 H 
ATOM    111  H   NAG d1181       0.690 -15.753  19.681  0.00  0.00     0.078 H 
ATOM    112  H   NAG d1181       0.173 -16.760  21.017  0.00  0.00     0.078 H 
ATOM    113  H   NAG d1181       2.405 -16.121  22.120  0.00  0.00     0.090 H 
ATOM    114  H   NAG d1181       4.202 -10.815  21.040  0.00  0.00     0.040 H 
ATOM    115  H   NAG d1181       4.732  -9.394  21.908  0.00  0.00     0.040 H 
ATOM    116  H   NAG d1181       3.082  -9.509  21.343  0.00  0.00     0.040 H 
ATOM    117  H   NAG d1181       4.238 -12.453  23.698  0.00  0.00     0.163 HD
ATOM    118  H   NAG d1181       0.308 -12.213  23.080  0.00  0.00     0.210 HD
ATOM    119  H   NAG d1181       4.114 -14.501  22.118  0.00  0.00     0.132 H 
ATOM    120  H   NAG d1181       2.581 -17.056  19.544  0.00  0.00     0.209 HD
ATOM    121  H   NAG d1181       0.838 -15.969  23.819  0.00  0.00     0.210 HD
ATOM    122  H   NAG d1181       2.142 -12.263  21.631  0.00  0.00     0.084 H 
ATOM    123  C7  NAG d1179       8.814 -13.565  14.333  0.00  0.00     0.214 C 
ATOM    124  C1  NAG d1179      11.806 -12.978  15.919  0.00  0.00     0.154 C 
ATOM    125  C2  NAG d1179      10.423 -13.578  16.140  0.00  0.00     0.087 C 
ATOM    126  O5  NAG d1179      12.735 -13.576  16.798  0.00  0.00    -0.349 OA
ATOM    127  O7  NAG d1179       8.549 -14.764  14.394  0.00  0.00    -0.274 OA
ATOM    128  O4  NAG d1179      10.764 -14.011  19.842  0.00  0.00    -0.390 OA
ATOM    129  N2  NAG d1179       9.435 -12.908  15.310  0.00  0.00    -0.349 N 
ATOM    130  C8  NAG d1179       8.429 -12.786  13.112  0.00  0.00    -0.003 C 
ATOM    131  O3  NAG d1179       8.864 -14.465  17.714  0.00  0.00    -0.348 OA
ATOM    132  C4  NAG d1179      11.113 -14.144  18.480  0.00  0.00     0.089 C 
ATOM    133  C5  NAG d1179      12.413 -13.400  18.166  0.00  0.00     0.089 C 
ATOM    134  O6  NAG d1179      13.790 -15.274  18.851  0.00  0.00    -0.398 OA
ATOM    135  C3  NAG d1179       9.986 -13.609  17.603  0.00  0.00     0.093 C 
ATOM    136  C6  NAG d1179      13.584 -13.884  19.022  0.00  0.00     0.043 C 
ATOM    137  H   NAG d1179      11.852 -11.929  16.124  0.00  0.00     0.132 H 
ATOM    138  H   NAG d1179      10.495 -14.604  15.843  0.00  0.00     0.084 H 
ATOM    139  H   NAG d1179       9.938 -14.491  20.012  0.00  0.00     0.210 HD
ATOM    140  H   NAG d1179       9.223 -11.960  15.472  0.00  0.00     0.163 HD
ATOM    141  H   NAG d1179       8.734 -11.767  13.229  0.00  0.00     0.040 H 
ATOM    142  H   NAG d1179       7.368 -12.829  12.982  0.00  0.00     0.040 H 
ATOM    143  H   NAG d1179       8.911 -13.206  12.254  0.00  0.00     0.040 H 
ATOM    144  H   NAG d1179      11.266 -15.183  18.274  0.00  0.00     0.091 H 
ATOM    145  H   NAG d1179      12.252 -12.366  18.391  0.00  0.00     0.090 H 
ATOM    146  H   NAG d1179      14.536 -15.561  19.401  0.00  0.00     0.209 HD
ATOM    147  H   NAG d1179       9.740 -12.619  17.925  0.00  0.00     0.091 H 
ATOM    148  H   NAG d1179      13.371 -13.685  20.052  0.00  0.00     0.078 H 
ATOM    149  H   NAG d1179      14.469 -13.365  18.717  0.00  0.00     0.078 H 
ATOM    150  C6  BDP d1180       7.118 -12.724  21.746  0.00  0.00     0.206 C 
ATOM    151  O3  BDP d1180       4.286 -15.231  18.570  0.00  0.00    -0.390 OA
ATOM    152  C1  BDP d1180       7.729 -13.809  18.296  0.00  0.00     0.160 C 
ATOM    153  O2  BDP d1180       6.219 -14.167  16.499  0.00  0.00    -0.388 OA
ATOM    154  C3  BDP d1180       5.204 -14.160  18.658  0.00  0.00     0.092 C 
ATOM    155  O4  BDP d1180       4.434 -13.086  20.660  0.00  0.00    -0.348 OA
ATOM    156  O5  BDP d1180       7.830 -13.804  19.703  0.00  0.00    -0.340 OA
ATOM    157  C5  BDP d1180       6.781 -13.065  20.293  0.00  0.00     0.152 C 
ATOM    158  O6B BDP d1180       7.473 -13.655  22.509  0.00  0.00    -0.646 OA
ATOM    159  O6A BDP d1180       7.033 -11.520  22.092  0.00  0.00    -0.646 OA
ATOM    160  C2  BDP d1180       6.454 -14.522  17.845  0.00  0.00     0.110 C 
ATOM    161  C4  BDP d1180       5.489 -13.861  20.133  0.00  0.00     0.103 C 
ATOM    162  H   BDP d1180       4.103 -15.424  17.637  0.00  0.00     0.210 HD
ATOM    163  H   BDP d1180       7.696 -12.791  17.967  0.00  0.00     0.133 H 
ATOM    164  H   BDP d1180       6.998 -14.388  15.965  0.00  0.00     0.210 HD
ATOM    165  H   BDP d1180       4.807 -13.260  18.240  0.00  0.00     0.091 H 
ATOM    166  H   BDP d1180       6.649 -12.123  19.804  0.00  0.00     0.104 H 
ATOM    167  H   BDP d1180       6.616 -15.570  17.987  0.00  0.00     0.094 H 
ATOM    168  H   BDP d1180       5.581 -14.794  20.650  0.00  0.00     0.092 H 
ENDROOT
TORSDOF 43
ENDMDL
MODEL 71
REMARK VINA RESULT:      -5.3      3.959     19.390
REMARK  0 active torsions:
REMARK  status: ('A' for Active; 'I' for Inactive)
REMARK       I    between atoms: C1_1  and  O3_15 
REMARK       I    between atoms: C1_2  and  O3_93 
REMARK       I    between atoms: C6_3  and  C5_89 
REMARK       I    between atoms: C6_3  and  O6_76 
REMARK       I    between atoms: O3_4  and  C3_22 
REMARK       I    between atoms: C6_5  and  C5_48 
REMARK       I    between atoms: C6_5  and  O6_31 
REMARK       I    between atoms: C4_6  and  O4_74 
REMARK       I    between atoms: C7_7  and  C8_62 
REMARK       I    between atoms: C7_7  and  N2_60 
REMARK       I    between atoms: C6_8  and  C5_52 
REMARK       I    between atoms: C3_9  and  O3_38 
REMARK       I    between atoms: C1_10  and  O4_75 
REMARK       I    between atoms: C6_12  and  C5_51 
REMARK       I    between atoms: O3_13  and  C3_42 
REMARK       I    between atoms: O4_14  and  C4_84 
REMARK       I    between atoms: O3_15  and  C3_86 
REMARK       I    between atoms: C6_16  and  C5_23 
REMARK       I    between atoms: C6_16  and  O6_58 
REMARK       I    between atoms: C1_17  and  O3_63 
REMARK       I    between atoms: C2_18  and  N2_60 
REMARK       I    between atoms: C2_19  and  N2_53 
REMARK       I    between atoms: O2_20  and  C2_66 
REMARK       I    between atoms: C3_25  and  O3_93 
REMARK       I    between atoms: C7_26  and  C8_32 
REMARK       I    between atoms: C7_26  and  N2_37 
REMARK       I    between atoms: C2_28  and  N2_44 
REMARK       I    between atoms: C7_29  and  C8_54 
REMARK       I    between atoms: C7_29  and  N2_53 
REMARK       I    between atoms: O1_33  and  C1_80 
REMARK       I    between atoms: O4_34  and  C4_40 
REMARK       I    between atoms: O4_34  and  C1_92 
REMARK       I    between atoms: C7_36  and  C8_81 
REMARK       I    between atoms: C7_36  and  N2_44 
REMARK       I    between atoms: N2_37  and  C2_83 
REMARK       I    between atoms: O3_39  and  C3_61 
REMARK       I    between atoms: C1_41  and  O4_46 
REMARK       I    between atoms: O2_43  and  C2_73 
REMARK       I    between atoms: C6_45  and  C5_87 
REMARK       I    between atoms: O4_46  and  C4_67 
REMARK       I    between atoms: C4_50  and  O4_65 
REMARK       I    between atoms: C2_55  and  O2_82 
REMARK       I    between atoms: O4_57  and  C4_71 
REMARK       I    between atoms: O3_63  and  C3_85 
REMARK       I    between atoms: O4_75  and  C4_91 
REMARK       I    between atoms: C5_77  and  C6_90 
REMARK       I    between atoms: O6_79  and  C6_90 
ROOT
ATOM      1  C1  BDP d1176      14.972 -10.727   2.557  0.00  0.00     0.160 C 
ATOM      2  O3  BDP d1176      15.714  -8.704   5.644  0.00  0.00    -0.390 OA
ATOM      3  O5  BDP d1176      13.907 -11.336   3.230  0.00  0.00    -0.340 OA
ATOM      4  O6A BDP d1176      11.999 -12.189   4.956  0.00  0.00    -0.646 OA
ATOM      5  C3  BDP d1176      15.684  -9.904   4.898  0.00  0.00     0.092 C 
ATOM      6  O4  BDP d1176      15.091 -11.413   6.650  0.00  0.00    -0.348 OA
ATOM      7  C4  BDP d1176      14.606 -10.817   5.462  0.00  0.00     0.103 C 
ATOM      8  C6  BDP d1176      13.106 -12.759   4.901  0.00  0.00     0.206 C 
ATOM      9  C2  BDP d1176      15.544  -9.588   3.410  0.00  0.00     0.110 C 
ATOM     10  O6B BDP d1176      13.329 -13.956   5.177  0.00  0.00    -0.646 OA
ATOM     11  O2  BDP d1176      16.842  -9.293   2.954  0.00  0.00    -0.388 OA
ATOM     12  C5  BDP d1176      14.275 -11.907   4.452  0.00  0.00     0.152 C 
ATOM     13  H   BDP d1176      15.758 -11.431   2.380  0.00  0.00     0.133 H 
ATOM     14  H   BDP d1176      16.401  -8.119   5.287  0.00  0.00     0.210 HD
ATOM     15  H   BDP d1176      16.605 -10.442   4.987  0.00  0.00     0.091 H 
ATOM     16  H   BDP d1176      13.723 -10.248   5.668  0.00  0.00     0.092 H 
ATOM     17  H   BDP d1176      14.846  -8.784   3.309  0.00  0.00     0.094 H 
ATOM     18  H   BDP d1176      17.412 -10.068   3.080  0.00  0.00     0.210 HD
ATOM     19  H   BDP d1176      15.153 -12.512   4.361  0.00  0.00     0.104 H 
ATOM     20  C1  BDP d1178      13.636 -12.665  12.125  0.00  0.00     0.160 C 
ATOM     21  C6  BDP d1178      10.938 -11.496  14.415  0.00  0.00     0.206 C 
ATOM     22  O6B BDP d1178       9.713 -11.752  14.500  0.00  0.00    -0.646 OA
ATOM     23  O6A BDP d1178      11.503 -10.537  14.996  0.00  0.00    -0.646 OA
ATOM     24  O3  BDP d1178      13.840 -15.387  14.665  0.00  0.00    -0.390 OA
ATOM     25  O2  BDP d1178      15.195 -14.487  12.381  0.00  0.00    -0.388 OA
ATOM     26  C5  BDP d1178      11.768 -12.454  13.559  0.00  0.00     0.152 C 
ATOM     27  C3  BDP d1178      13.255 -14.493  13.744  0.00  0.00     0.092 C 
ATOM     28  C2  BDP d1178      14.310 -13.646  13.078  0.00  0.00     0.110 C 
ATOM     29  O4  BDP d1178      11.145 -14.407  14.730  0.00  0.00    -0.348 OA
ATOM     30  O5  BDP d1178      12.822 -11.789  12.872  0.00  0.00    -0.340 OA
ATOM     31  C4  BDP d1178      12.250 -13.597  14.446  0.00  0.00     0.103 C 
ATOM     32  H   BDP d1178      12.991 -13.147  11.420  0.00  0.00     0.133 H 
ATOM     33  H   BDP d1178      14.478 -15.953  14.204  0.00  0.00     0.210 HD
ATOM     34  H   BDP d1178      15.877 -13.950  11.949  0.00  0.00     0.210 HD
ATOM     35  H   BDP d1178      11.159 -12.862  12.779  0.00  0.00     0.104 H 
ATOM     36  H   BDP d1178      12.752 -15.069  12.995  0.00  0.00     0.091 H 
ATOM     37  H   BDP d1178      14.861 -13.091  13.808  0.00  0.00     0.094 H 
ATOM     38  H   BDP d1178      12.706 -13.164  15.312  0.00  0.00     0.092 H 
ATOM     39  C6  NAG d1177      14.688  -7.523   9.363  0.00  0.00     0.043 C 
ATOM     40  O4  NAG d1177      13.958  -9.317  11.637  0.00  0.00    -0.390 OA
ATOM     41  C2  NAG d1177      14.773 -11.827   8.999  0.00  0.00     0.087 C 
ATOM     42  C3  NAG d1177      14.208 -11.255  10.292  0.00  0.00     0.093 C 
ATOM     43  C7  NAG d1177      14.888 -14.249   8.558  0.00  0.00     0.214 C 
ATOM     44  N2  NAG d1177      14.186 -13.142   8.787  0.00  0.00    -0.349 N 
ATOM     45  C8  NAG d1177      14.097 -15.394   8.001  0.00  0.00    -0.003 C 
ATOM     46  O7  NAG d1177      16.095 -14.373   8.789  0.00  0.00    -0.274 OA
ATOM     47  O6  NAG d1177      15.843  -7.275   8.583  0.00  0.00    -0.398 OA
ATOM     48  C4  NAG d1177      14.623  -9.804  10.487  0.00  0.00     0.089 C 
ATOM     49  O5  NAG d1177      14.887  -9.559   8.108  0.00  0.00    -0.349 OA
ATOM     50  C5  NAG d1177      14.271  -8.988   9.243  0.00  0.00     0.089 C 
ATOM     51  C1  NAG d1177      14.469 -10.886   7.832  0.00  0.00     0.154 C 
ATOM     52  O3  NAG d1177      14.679 -12.001  11.391  0.00  0.00    -0.348 OA
ATOM     53  H   NAG d1177      14.898  -7.298  10.387  0.00  0.00     0.078 H 
ATOM     54  H   NAG d1177      13.889  -6.904   9.008  0.00  0.00     0.078 H 
ATOM     55  H   NAG d1177      14.204  -9.856  12.405  0.00  0.00     0.210 HD
ATOM     56  H   NAG d1177      15.836 -11.923   9.065  0.00  0.00     0.084 H 
ATOM     57  H   NAG d1177      13.141 -11.307  10.228  0.00  0.00     0.091 H 
ATOM     58  H   NAG d1177      13.205 -13.217   8.814  0.00  0.00     0.163 HD
ATOM     59  H   NAG d1177      13.079 -15.094   7.871  0.00  0.00     0.040 H 
ATOM     60  H   NAG d1177      14.142 -16.221   8.679  0.00  0.00     0.040 H 
ATOM     61  H   NAG d1177      14.507 -15.684   7.056  0.00  0.00     0.040 H 
ATOM     62  H   NAG d1177      16.572  -7.833   8.898  0.00  0.00     0.209 HD
ATOM     63  H   NAG d1177      15.680  -9.722  10.628  0.00  0.00     0.091 H 
ATOM     64  H   NAG d1177      13.206  -9.012   9.144  0.00  0.00     0.090 H 
ATOM     65  H   NAG d1177      13.412 -10.834   7.679  0.00  0.00     0.132 H 
ATOM     66  C6  NAG d1175      11.835 -13.070  -1.714  0.00  0.00     0.043 C 
ATOM     67  O3  NAG d1175      14.478 -10.228   1.293  0.00  0.00    -0.348 OA
ATOM     68  C2  NAG d1175      15.088 -10.359  -1.019  0.00  0.00     0.087 C 
ATOM     69  O6  NAG d1175      11.867 -13.813  -2.911  0.00  0.00    -0.398 OA
ATOM     70  O1  NAG d1175      15.312 -10.379  -3.433  0.00  0.00    -0.369 OA
ATOM     71  C7  NAG d1175      16.878  -8.700  -1.160  0.00  0.00     0.214 C 
ATOM     72  N2  NAG d1175      16.467  -9.923  -0.820  0.00  0.00    -0.349 N 
ATOM     73  C5  NAG d1175      13.238 -12.536  -1.451  0.00  0.00     0.089 C 
ATOM     74  O5  NAG d1175      13.590 -11.583  -2.444  0.00  0.00    -0.349 OA
ATOM     75  C4  NAG d1175      13.319 -11.945  -0.042  0.00  0.00     0.089 C 
ATOM     76  O4  NAG d1175      13.191 -13.020   0.871  0.00  0.00    -0.390 OA
ATOM     77  O7  NAG d1175      16.340  -7.668  -0.741  0.00  0.00    -0.274 OA
ATOM     78  C1  NAG d1175      14.938 -11.164  -2.317  0.00  0.00     0.151 C 
ATOM     79  C8  NAG d1175      18.062  -8.640  -2.086  0.00  0.00    -0.003 C 
ATOM     80  C3  NAG d1175      14.613 -11.150   0.212  0.00  0.00     0.093 C 
ATOM     81  H   NAG d1175      11.149 -12.255  -1.811  0.00  0.00     0.078 H 
ATOM     82  H   NAG d1175      11.517 -13.689  -0.902  0.00  0.00     0.078 H 
ATOM     83  H   NAG d1175      14.462  -9.498  -1.125  0.00  0.00     0.084 H 
ATOM     84  H   NAG d1175      12.157 -13.241  -3.639  0.00  0.00     0.209 HD
ATOM     85  H   NAG d1175      16.235 -10.098  -3.336  0.00  0.00     0.212 HD
ATOM     86  H   NAG d1175      17.113 -10.550  -0.422  0.00  0.00     0.163 HD
ATOM     87  H   NAG d1175      13.943 -13.338  -1.507  0.00  0.00     0.090 H 
ATOM     88  H   NAG d1175      12.530 -11.233   0.084  0.00  0.00     0.091 H 
ATOM     89  H   NAG d1175      13.917 -13.648   0.734  0.00  0.00     0.210 HD
ATOM     90  H   NAG d1175      15.582 -12.019  -2.281  0.00  0.00     0.132 H 
ATOM     91  H   NAG d1175      18.376  -9.633  -2.329  0.00  0.00     0.040 H 
ATOM     92  H   NAG d1175      18.864  -8.121  -1.605  0.00  0.00     0.040 H 
ATOM     93  H   NAG d1175      17.789  -8.123  -2.982  0.00  0.00     0.040 H 
ATOM     94  H   NAG d1175      15.341 -11.897   0.453  0.00  0.00     0.091 H 
ATOM     95  C4  NAG d1181      -0.950 -16.471  20.885  0.00  0.00     0.089 C 
ATOM     96  C3  NAG d1181      -0.242 -15.629  21.951  0.00  0.00     0.086 C 
ATOM     97  C6  NAG d1181      -0.685 -17.840  18.773  0.00  0.00     0.043 C 
ATOM     98  C5  NAG d1181       0.037 -17.201  19.962  0.00  0.00     0.089 C 
ATOM     99  C7  NAG d1181       1.691 -12.845  22.517  0.00  0.00     0.214 C 
ATOM    100  C8  NAG d1181       2.269 -12.015  21.402  0.00  0.00    -0.003 C 
ATOM    101  N2  NAG d1181       1.701 -14.168  22.354  0.00  0.00    -0.349 N 
ATOM    102  O3  NAG d1181      -1.166 -14.761  22.590  0.00  0.00    -0.391 OA
ATOM    103  C1  NAG d1181       1.793 -15.689  20.452  0.00  0.00     0.154 C 
ATOM    104  O6  NAG d1181       0.123 -18.847  18.201  0.00  0.00    -0.398 OA
ATOM    105  O5  NAG d1181       1.020 -16.314  19.456  0.00  0.00    -0.349 OA
ATOM    106  O7  NAG d1181       1.229 -12.312  23.530  0.00  0.00    -0.274 OA
ATOM    107  O4  NAG d1181      -1.787 -17.412  21.519  0.00  0.00    -0.390 OA
ATOM    108  C2  NAG d1181       0.897 -14.817  21.329  0.00  0.00     0.087 C 
ATOM    109  H   NAG d1181      -1.523 -15.805  20.275  0.00  0.00     0.091 H 
ATOM    110  H   NAG d1181       0.172 -16.292  22.681  0.00  0.00     0.090 H 
ATOM    111  H   NAG d1181      -0.889 -17.090  18.038  0.00  0.00     0.078 H 
ATOM    112  H   NAG d1181      -1.601 -18.276  19.112  0.00  0.00     0.078 H 
ATOM    113  H   NAG d1181       0.504 -17.960  20.555  0.00  0.00     0.090 H 
ATOM    114  H   NAG d1181       2.614 -12.660  20.621  0.00  0.00     0.040 H 
ATOM    115  H   NAG d1181       3.087 -11.437  21.776  0.00  0.00     0.040 H 
ATOM    116  H   NAG d1181       1.515 -11.360  21.017  0.00  0.00     0.040 H 
ATOM    117  H   NAG d1181       2.267 -14.719  22.942  0.00  0.00     0.163 HD
ATOM    118  H   NAG d1181      -1.547 -14.155  21.935  0.00  0.00     0.210 HD
ATOM    119  H   NAG d1181       2.259 -16.462  21.026  0.00  0.00     0.132 H 
ATOM    120  H   NAG d1181       0.956 -18.457  17.892  0.00  0.00     0.209 HD
ATOM    121  H   NAG d1181      -1.250 -18.005  22.066  0.00  0.00     0.210 HD
ATOM    122  H   NAG d1181       0.445 -14.066  20.715  0.00  0.00     0.084 H 
ATOM    123  C7  NAG d1179       7.898 -14.504  14.102  0.00  0.00     0.214 C 
ATOM    124  C1  NAG d1179      10.696 -14.364  16.094  0.00  0.00     0.154 C 
ATOM    125  C2  NAG d1179       9.275 -14.912  16.050  0.00  0.00     0.087 C 
ATOM    126  O5  NAG d1179      11.489 -15.152  16.955  0.00  0.00    -0.349 OA
ATOM    127  O7  NAG d1179       7.584 -15.679  13.925  0.00  0.00    -0.274 OA
ATOM    128  O4  NAG d1179       9.149 -15.979  19.635  0.00  0.00    -0.390 OA
ATOM    129  N2  NAG d1179       8.420 -14.056  15.243  0.00  0.00    -0.349 N 
ATOM    130  C8  NAG d1179       7.693 -13.510  13.000  0.00  0.00    -0.003 C 
ATOM    131  O3  NAG d1179       7.506 -15.960  17.260  0.00  0.00    -0.348 OA
ATOM    132  C4  NAG d1179       9.656 -15.901  18.318  0.00  0.00     0.089 C 
ATOM    133  C5  NAG d1179      11.010 -15.191  18.288  0.00  0.00     0.089 C 
ATOM    134  O6  NAG d1179      12.224 -17.229  18.788  0.00  0.00    -0.398 OA
ATOM    135  C3  NAG d1179       8.664 -15.162  17.426  0.00  0.00     0.093 C 
ATOM    136  C6  NAG d1179      12.051 -15.877  19.174  0.00  0.00     0.043 C 
ATOM    137  H   NAG d1179      10.756 -13.368  16.481  0.00  0.00     0.132 H 
ATOM    138  H   NAG d1179       9.344 -15.875  15.589  0.00  0.00     0.084 H 
ATOM    139  H   NAG d1179       8.292 -16.433  19.625  0.00  0.00     0.210 HD
ATOM    140  H   NAG d1179       8.226 -13.138  15.541  0.00  0.00     0.163 HD
ATOM    141  H   NAG d1179       8.019 -12.544  13.325  0.00  0.00     0.040 H 
ATOM    142  H   NAG d1179       6.654 -13.469  12.745  0.00  0.00     0.040 H 
ATOM    143  H   NAG d1179       8.259 -13.807  12.142  0.00  0.00     0.040 H 
ATOM    144  H   NAG d1179       9.794 -16.898  17.954  0.00  0.00     0.091 H 
ATOM    145  H   NAG d1179      10.863 -14.201  18.669  0.00  0.00     0.090 H 
ATOM    146  H   NAG d1179      12.887 -17.646  19.361  0.00  0.00     0.209 HD
ATOM    147  H   NAG d1179       8.417 -14.228  17.885  0.00  0.00     0.091 H 
ATOM    148  H   NAG d1179      11.723 -15.842  20.192  0.00  0.00     0.078 H 
ATOM    149  H   NAG d1179      12.984 -15.366  19.065  0.00  0.00     0.078 H 
ATOM    150  C6  BDP d1180       5.350 -14.823  21.310  0.00  0.00     0.206 C 
ATOM    151  O3  BDP d1180       2.832 -16.595  17.448  0.00  0.00    -0.390 OA
ATOM    152  C1  BDP d1180       6.333 -15.346  17.815  0.00  0.00     0.160 C 
ATOM    153  O2  BDP d1180       5.040 -15.311  15.824  0.00  0.00    -0.388 OA
ATOM    154  C3  BDP d1180       3.772 -15.609  17.824  0.00  0.00     0.092 C 
ATOM    155  O4  BDP d1180       2.806 -14.844  19.881  0.00  0.00    -0.348 OA
ATOM    156  O5  BDP d1180       6.264 -15.584  19.203  0.00  0.00    -0.340 OA
ATOM    157  C5  BDP d1180       5.180 -14.895  19.791  0.00  0.00     0.152 C 
ATOM    158  O6B BDP d1180       5.576 -15.888  21.935  0.00  0.00    -0.646 OA
ATOM    159  O6A BDP d1180       5.269 -13.692  21.847  0.00  0.00    -0.646 OA
ATOM    160  C2  BDP d1180       5.097 -15.900  17.106  0.00  0.00     0.110 C 
ATOM    161  C4  BDP d1180       3.887 -15.578  19.351  0.00  0.00     0.103 C 
ATOM    162  H   BDP d1180       2.757 -16.618  16.481  0.00  0.00     0.210 HD
ATOM    163  H   BDP d1180       6.378 -14.288  17.666  0.00  0.00     0.133 H 
ATOM    164  H   BDP d1180       5.869 -15.483  15.352  0.00  0.00     0.210 HD
ATOM    165  H   BDP d1180       3.462 -14.629  17.526  0.00  0.00     0.091 H 
ATOM    166  H   BDP d1180       5.142 -13.879  19.461  0.00  0.00     0.104 H 
ATOM    167  H   BDP d1180       5.201 -16.964  17.081  0.00  0.00     0.094 H 
ATOM    168  H   BDP d1180       3.881 -16.588  19.704  0.00  0.00     0.092 H 
ENDROOT
TORSDOF 43
ENDMDL
MODEL 72
REMARK VINA RESULT:      -5.2      4.012     19.314
REMARK  0 active torsions:
REMARK  status: ('A' for Active; 'I' for Inactive)
REMARK       I    between atoms: C1_1  and  O3_15 
REMARK       I    between atoms: C1_2  and  O3_93 
REMARK       I    between atoms: C6_3  and  C5_89 
REMARK       I    between atoms: C6_3  and  O6_76 
REMARK       I    between atoms: O3_4  and  C3_22 
REMARK       I    between atoms: C6_5  and  C5_48 
REMARK       I    between atoms: C6_5  and  O6_31 
REMARK       I    between atoms: C4_6  and  O4_74 
REMARK       I    between atoms: C7_7  and  C8_62 
REMARK       I    between atoms: C7_7  and  N2_60 
REMARK       I    between atoms: C6_8  and  C5_52 
REMARK       I    between atoms: C3_9  and  O3_38 
REMARK       I    between atoms: C1_10  and  O4_75 
REMARK       I    between atoms: C6_12  and  C5_51 
REMARK       I    between atoms: O3_13  and  C3_42 
REMARK       I    between atoms: O4_14  and  C4_84 
REMARK       I    between atoms: O3_15  and  C3_86 
REMARK       I    between atoms: C6_16  and  C5_23 
REMARK       I    between atoms: C6_16  and  O6_58 
REMARK       I    between atoms: C1_17  and  O3_63 
REMARK       I    between atoms: C2_18  and  N2_60 
REMARK       I    between atoms: C2_19  and  N2_53 
REMARK       I    between atoms: O2_20  and  C2_66 
REMARK       I    between atoms: C3_25  and  O3_93 
REMARK       I    between atoms: C7_26  and  C8_32 
REMARK       I    between atoms: C7_26  and  N2_37 
REMARK       I    between atoms: C2_28  and  N2_44 
REMARK       I    between atoms: C7_29  and  C8_54 
REMARK       I    between atoms: C7_29  and  N2_53 
REMARK       I    between atoms: O1_33  and  C1_80 
REMARK       I    between atoms: O4_34  and  C4_40 
REMARK       I    between atoms: O4_34  and  C1_92 
REMARK       I    between atoms: C7_36  and  C8_81 
REMARK       I    between atoms: C7_36  and  N2_44 
REMARK       I    between atoms: N2_37  and  C2_83 
REMARK       I    between atoms: O3_39  and  C3_61 
REMARK       I    between atoms: C1_41  and  O4_46 
REMARK       I    between atoms: O2_43  and  C2_73 
REMARK       I    between atoms: C6_45  and  C5_87 
REMARK       I    between atoms: O4_46  and  C4_67 
REMARK       I    between atoms: C4_50  and  O4_65 
REMARK       I    between atoms: C2_55  and  O2_82 
REMARK       I    between atoms: O4_57  and  C4_71 
REMARK       I    between atoms: O3_63  and  C3_85 
REMARK       I    between atoms: O4_75  and  C4_91 
REMARK       I    between atoms: C5_77  and  C6_90 
REMARK       I    between atoms: O6_79  and  C6_90 
ROOT
ATOM      1  C1  BDP d1176      14.076 -15.013  -4.140  0.00  0.00     0.160 C 
ATOM      2  O3  BDP d1176      13.695 -11.406  -3.131  0.00  0.00    -0.390 OA
ATOM      3  O5  BDP d1176      13.674 -15.399  -2.855  0.00  0.00    -0.340 OA
ATOM      4  O6A BDP d1176      12.856 -15.599  -0.279  0.00  0.00    -0.646 OA
ATOM      5  C3  BDP d1176      14.340 -12.663  -3.104  0.00  0.00     0.092 C 
ATOM      6  O4  BDP d1176      14.958 -12.711  -0.798  0.00  0.00    -0.348 OA
ATOM      7  C4  BDP d1176      14.105 -13.317  -1.751  0.00  0.00     0.103 C 
ATOM      8  C6  BDP d1176      14.069 -15.532  -0.557  0.00  0.00     0.206 C 
ATOM      9  C2  BDP d1176      13.902 -13.498  -4.305  0.00  0.00     0.110 C 
ATOM     10  O6B BDP d1176      15.004 -16.012   0.118  0.00  0.00    -0.646 OA
ATOM     11  O2  BDP d1176      14.698 -13.070  -5.384  0.00  0.00    -0.388 OA
ATOM     12  C5  BDP d1176      14.423 -14.804  -1.836  0.00  0.00     0.152 C 
ATOM     13  H   BDP d1176      15.108 -15.244  -4.297  0.00  0.00     0.133 H 
ATOM     14  H   BDP d1176      13.842 -10.985  -3.992  0.00  0.00     0.210 HD
ATOM     15  H   BDP d1176      15.401 -12.559  -3.204  0.00  0.00     0.091 H 
ATOM     16  H   BDP d1176      13.082 -13.192  -1.463  0.00  0.00     0.092 H 
ATOM     17  H   BDP d1176      12.852 -13.349  -4.445  0.00  0.00     0.094 H 
ATOM     18  H   BDP d1176      15.632 -13.238  -5.182  0.00  0.00     0.210 HD
ATOM     19  H   BDP d1176      15.475 -14.878  -2.020  0.00  0.00     0.104 H 
ATOM     20  C1  BDP d1178      15.078 -10.516   4.570  0.00  0.00     0.160 C 
ATOM     21  C6  BDP d1178      12.450  -9.403   6.968  0.00  0.00     0.206 C 
ATOM     22  O6B BDP d1178      11.653 -10.019   7.716  0.00  0.00    -0.646 OA
ATOM     23  O6A BDP d1178      12.357  -8.183   6.686  0.00  0.00    -0.646 OA
ATOM     24  O3  BDP d1178      17.136 -10.479   7.679  0.00  0.00    -0.390 OA
ATOM     25  O2  BDP d1178      17.441 -10.845   4.915  0.00  0.00    -0.388 OA
ATOM     26  C5  BDP d1178      13.612 -10.222   6.402  0.00  0.00     0.152 C 
ATOM     27  C3  BDP d1178      16.046 -10.764   6.831  0.00  0.00     0.092 C 
ATOM     28  C2  BDP d1178      16.294 -10.227   5.443  0.00  0.00     0.110 C 
ATOM     29  O4  BDP d1178      14.427 -10.943   8.497  0.00  0.00    -0.348 OA
ATOM     30  O5  BDP d1178      13.969  -9.814   5.086  0.00  0.00    -0.340 OA
ATOM     31  C4  BDP d1178      14.771 -10.158   7.391  0.00  0.00     0.103 C 
ATOM     32  H   BDP d1178      14.804 -11.550   4.568  0.00  0.00     0.133 H 
ATOM     33  H   BDP d1178      17.943 -10.871   7.311  0.00  0.00     0.210 HD
ATOM     34  H   BDP d1178      17.609 -10.506   4.022  0.00  0.00     0.210 HD
ATOM     35  H   BDP d1178      13.314 -11.244   6.291  0.00  0.00     0.104 H 
ATOM     36  H   BDP d1178      15.937 -11.826   6.775  0.00  0.00     0.091 H 
ATOM     37  H   BDP d1178      16.452  -9.169   5.473  0.00  0.00     0.094 H 
ATOM     38  H   BDP d1178      14.941  -9.128   7.624  0.00  0.00     0.092 H 
ATOM     39  C6  NAG d1177      12.499  -8.652  -0.435  0.00  0.00     0.043 C 
ATOM     40  O4  NAG d1177      13.232  -8.594   2.460  0.00  0.00    -0.390 OA
ATOM     41  C2  NAG d1177      15.174 -11.564   1.306  0.00  0.00     0.087 C 
ATOM     42  C3  NAG d1177      14.496 -10.591   2.261  0.00  0.00     0.093 C 
ATOM     43  C7  NAG d1177      16.710 -13.329   2.077  0.00  0.00     0.214 C 
ATOM     44  N2  NAG d1177      15.501 -12.776   2.043  0.00  0.00    -0.349 N 
ATOM     45  C8  NAG d1177      16.742 -14.745   2.569  0.00  0.00    -0.003 C 
ATOM     46  O7  NAG d1177      17.754 -12.753   1.755  0.00  0.00    -0.274 OA
ATOM     47  O6  NAG d1177      13.184  -8.525  -1.669  0.00  0.00    -0.398 OA
ATOM     48  C4  NAG d1177      13.949  -9.377   1.525  0.00  0.00     0.089 C 
ATOM     49  O5  NAG d1177      13.792 -10.673  -0.497  0.00  0.00    -0.349 OA
ATOM     50  C5  NAG d1177      13.061  -9.826   0.365  0.00  0.00     0.089 C 
ATOM     51  C1  NAG d1177      14.254 -11.864   0.121  0.00  0.00     0.154 C 
ATOM     52  O3  NAG d1177      15.422 -10.144   3.225  0.00  0.00    -0.348 OA
ATOM     53  H   NAG d1177      12.619  -7.751   0.128  0.00  0.00     0.078 H 
ATOM     54  H   NAG d1177      11.462  -8.828  -0.630  0.00  0.00     0.078 H 
ATOM     55  H   NAG d1177      13.825  -8.327   3.180  0.00  0.00     0.210 HD
ATOM     56  H   NAG d1177      16.073 -11.138   0.912  0.00  0.00     0.084 H 
ATOM     57  H   NAG d1177      13.686 -11.111   2.728  0.00  0.00     0.091 H 
ATOM     58  H   NAG d1177      14.780 -13.214   2.549  0.00  0.00     0.163 HD
ATOM     59  H   NAG d1177      15.748 -15.067   2.796  0.00  0.00     0.040 H 
ATOM     60  H   NAG d1177      17.346 -14.803   3.451  0.00  0.00     0.040 H 
ATOM     61  H   NAG d1177      17.157 -15.377   1.811  0.00  0.00     0.040 H 
ATOM     62  H   NAG d1177      14.126  -8.366  -1.501  0.00  0.00     0.209 HD
ATOM     63  H   NAG d1177      14.741  -8.793   1.106  0.00  0.00     0.091 H 
ATOM     64  H   NAG d1177      12.231 -10.350   0.791  0.00  0.00     0.090 H 
ATOM     65  H   NAG d1177      13.378 -12.372   0.467  0.00  0.00     0.132 H 
ATOM     66  C6  NAG d1175      12.667 -20.596  -4.784  0.00  0.00     0.043 C 
ATOM     67  O3  NAG d1175      13.268 -15.733  -5.098  0.00  0.00    -0.348 OA
ATOM     68  C2  NAG d1175      13.619 -17.078  -7.049  0.00  0.00     0.087 C 
ATOM     69  O6  NAG d1175      13.040 -21.835  -5.342  0.00  0.00    -0.398 OA
ATOM     70  O1  NAG d1175      13.590 -18.580  -8.951  0.00  0.00    -0.369 OA
ATOM     71  C7  NAG d1175      13.993 -15.379  -8.767  0.00  0.00     0.214 C 
ATOM     72  N2  NAG d1175      14.451 -16.098  -7.740  0.00  0.00    -0.349 N 
ATOM     73  C5  NAG d1175      13.464 -19.502  -5.486  0.00  0.00     0.089 C 
ATOM     74  O5  NAG d1175      13.066 -19.407  -6.846  0.00  0.00    -0.349 OA
ATOM     75  C4  NAG d1175      13.292 -18.173  -4.748  0.00  0.00     0.089 C 
ATOM     76  O4  NAG d1175      13.933 -18.304  -3.493  0.00  0.00    -0.390 OA
ATOM     77  O7  NAG d1175      12.975 -14.679  -8.698  0.00  0.00    -0.274 OA
ATOM     78  C1  NAG d1175      13.878 -18.498  -7.570  0.00  0.00     0.151 C 
ATOM     79  C8  NAG d1175      14.801 -15.455 -10.034  0.00  0.00    -0.003 C 
ATOM     80  C3  NAG d1175      13.842 -16.966  -5.531  0.00  0.00     0.093 C 
ATOM     81  H   NAG d1175      11.620 -20.432  -4.931  0.00  0.00     0.078 H 
ATOM     82  H   NAG d1175      12.871 -20.586  -3.734  0.00  0.00     0.078 H 
ATOM     83  H   NAG d1175      12.590 -16.866  -7.252  0.00  0.00     0.084 H 
ATOM     84  H   NAG d1175      12.851 -21.832  -6.294  0.00  0.00     0.209 HD
ATOM     85  H   NAG d1175      14.150 -17.954  -9.437  0.00  0.00     0.212 HD
ATOM     86  H   NAG d1175      15.378 -15.962  -7.439  0.00  0.00     0.163 HD
ATOM     87  H   NAG d1175      14.505 -19.750  -5.469  0.00  0.00     0.090 H 
ATOM     88  H   NAG d1175      12.247 -17.970  -4.631  0.00  0.00     0.091 H 
ATOM     89  H   NAG d1175      14.876 -18.486  -3.629  0.00  0.00     0.210 HD
ATOM     90  H   NAG d1175      14.911 -18.744  -7.430  0.00  0.00     0.132 H 
ATOM     91  H   NAG d1175      15.635 -16.109  -9.886  0.00  0.00     0.040 H 
ATOM     92  H   NAG d1175      15.156 -14.479 -10.289  0.00  0.00     0.040 H 
ATOM     93  H   NAG d1175      14.189 -15.831 -10.826  0.00  0.00     0.040 H 
ATOM     94  H   NAG d1175      14.893 -16.975  -5.328  0.00  0.00     0.091 H 
ATOM     95  C4  NAG d1181       6.758 -13.248  19.646  0.00  0.00     0.089 C 
ATOM     96  C3  NAG d1181       6.892 -11.724  19.718  0.00  0.00     0.086 C 
ATOM     97  C6  NAG d1181       7.615 -15.384  18.594  0.00  0.00     0.043 C 
ATOM     98  C5  NAG d1181       7.896 -13.901  18.849  0.00  0.00     0.089 C 
ATOM     99  C7  NAG d1181       6.752  -8.794  17.928  0.00  0.00     0.214 C 
ATOM    100  C8  NAG d1181       6.596  -8.762  16.432  0.00  0.00    -0.003 C 
ATOM    101  N2  NAG d1181       7.557  -9.730  18.432  0.00  0.00    -0.349 N 
ATOM    102  O3  NAG d1181       5.692 -11.144  20.208  0.00  0.00    -0.391 OA
ATOM    103  C1  NAG d1181       8.390 -11.896  17.690  0.00  0.00     0.154 C 
ATOM    104  O6  NAG d1181       8.815 -16.057  18.274  0.00  0.00    -0.398 OA
ATOM    105  O5  NAG d1181       8.077 -13.265  17.596  0.00  0.00    -0.349 OA
ATOM    106  O7  NAG d1181       6.154  -7.988  18.645  0.00  0.00    -0.274 OA
ATOM    107  O4  NAG d1181       6.735 -13.774  20.954  0.00  0.00    -0.390 OA
ATOM    108  C2  NAG d1181       7.232 -11.145  18.342  0.00  0.00     0.087 C 
ATOM    109  H   NAG d1181       5.844 -13.468  19.134  0.00  0.00     0.091 H 
ATOM    110  H   NAG d1181       7.689 -11.490  20.392  0.00  0.00     0.090 H 
ATOM    111  H   NAG d1181       6.929 -15.479  17.779  0.00  0.00     0.078 H 
ATOM    112  H   NAG d1181       7.194 -15.818  19.476  0.00  0.00     0.078 H 
ATOM    113  H   NAG d1181       8.782 -13.796  19.441  0.00  0.00     0.090 H 
ATOM    114  H   NAG d1181       7.191  -9.536  15.995  0.00  0.00     0.040 H 
ATOM    115  H   NAG d1181       6.917  -7.812  16.060  0.00  0.00     0.040 H 
ATOM    116  H   NAG d1181       5.568  -8.917  16.177  0.00  0.00     0.040 H 
ATOM    117  H   NAG d1181       8.392  -9.456  18.876  0.00  0.00     0.163 HD
ATOM    118  H   NAG d1181       4.962 -11.351  19.603  0.00  0.00     0.210 HD
ATOM    119  H   NAG d1181       9.283 -11.812  18.275  0.00  0.00     0.132 H 
ATOM    120  H   NAG d1181       9.201 -15.667  17.475  0.00  0.00     0.209 HD
ATOM    121  H   NAG d1181       7.569 -13.565  21.401  0.00  0.00     0.210 HD
ATOM    122  H   NAG d1181       6.361 -11.264  17.731  0.00  0.00     0.084 H 
ATOM    123  C7  NAG d1179      11.882 -12.769   9.562  0.00  0.00     0.214 C 
ATOM    124  C1  NAG d1179      14.170 -10.208   9.705  0.00  0.00     0.154 C 
ATOM    125  C2  NAG d1179      13.388 -11.174  10.585  0.00  0.00     0.087 C 
ATOM    126  O5  NAG d1179      15.354  -9.809  10.362  0.00  0.00    -0.349 OA
ATOM    127  O7  NAG d1179      12.340 -13.756  10.134  0.00  0.00    -0.274 OA
ATOM    128  O4  NAG d1179      14.267  -9.548  13.839  0.00  0.00    -0.390 OA
ATOM    129  N2  NAG d1179      12.120 -11.521   9.964  0.00  0.00    -0.349 N 
ATOM    130  C8  NAG d1179      11.012 -12.951   8.356  0.00  0.00    -0.003 C 
ATOM    131  O3  NAG d1179      12.752 -11.778  12.804  0.00  0.00    -0.348 OA
ATOM    132  C4  NAG d1179      14.498 -10.151  12.583  0.00  0.00     0.089 C 
ATOM    133  C5  NAG d1179      15.122  -9.159  11.599  0.00  0.00     0.089 C 
ATOM    134  O6  NAG d1179      17.370  -9.607  12.389  0.00  0.00    -0.398 OA
ATOM    135  C3  NAG d1179      13.186 -10.684  12.017  0.00  0.00     0.093 C 
ATOM    136  C6  NAG d1179      16.439  -8.577  12.114  0.00  0.00     0.043 C 
ATOM    137  H   NAG d1179      13.642  -9.302   9.492  0.00  0.00     0.132 H 
ATOM    138  H   NAG d1179      13.992 -12.054  10.668  0.00  0.00     0.084 H 
ATOM    139  H   NAG d1179      13.871 -10.198  14.442  0.00  0.00     0.210 HD
ATOM    140  H   NAG d1179      11.431 -10.829   9.840  0.00  0.00     0.163 HD
ATOM    141  H   NAG d1179      10.705 -11.994   7.990  0.00  0.00     0.040 H 
ATOM    142  H   NAG d1179      10.149 -13.526   8.623  0.00  0.00     0.040 H 
ATOM    143  H   NAG d1179      11.561 -13.465   7.595  0.00  0.00     0.040 H 
ATOM    144  H   NAG d1179      15.184 -10.960  12.722  0.00  0.00     0.091 H 
ATOM    145  H   NAG d1179      14.433  -8.348  11.481  0.00  0.00     0.090 H 
ATOM    146  H   NAG d1179      18.197  -9.218  12.713  0.00  0.00     0.209 HD
ATOM    147  H   NAG d1179      12.461  -9.898  12.029  0.00  0.00     0.091 H 
ATOM    148  H   NAG d1179      16.252  -8.024  13.010  0.00  0.00     0.078 H 
ATOM    149  H   NAG d1179      16.848  -7.937  11.360  0.00  0.00     0.078 H 
ATOM    150  C6  BDP d1180      10.727  -9.305  16.287  0.00  0.00     0.206 C 
ATOM    151  O3  BDP d1180       9.491 -14.003  15.393  0.00  0.00    -0.390 OA
ATOM    152  C1  BDP d1180      11.505 -11.517  13.466  0.00  0.00     0.160 C 
ATOM    153  O2  BDP d1180      10.289 -13.340  12.550  0.00  0.00    -0.388 OA
ATOM    154  C3  BDP d1180       9.657 -12.745  14.773  0.00  0.00     0.092 C 
ATOM    155  O4  BDP d1180       8.616 -11.316  16.394  0.00  0.00    -0.348 OA
ATOM    156  O5  BDP d1180      11.722 -10.785  14.652  0.00  0.00    -0.340 OA
ATOM    157  C5  BDP d1180      10.501 -10.418  15.262  0.00  0.00     0.152 C 
ATOM    158  O6B BDP d1180      11.614  -9.472  17.160  0.00  0.00    -0.646 OA
ATOM    159  O6A BDP d1180      10.018  -8.275  16.188  0.00  0.00    -0.646 OA
ATOM    160  C2  BDP d1180      10.811 -12.845  13.766  0.00  0.00     0.110 C 
ATOM    161  C4  BDP d1180       9.866 -11.676  15.850  0.00  0.00     0.103 C 
ATOM    162  H   BDP d1180       9.359 -14.684  14.714  0.00  0.00     0.210 HD
ATOM    163  H   BDP d1180      10.878 -10.930  12.829  0.00  0.00     0.133 H 
ATOM    164  H   BDP d1180      11.003 -13.411  11.898  0.00  0.00     0.210 HD
ATOM    165  H   BDP d1180       8.787 -12.452  14.225  0.00  0.00     0.091 H 
ATOM    166  H   BDP d1180       9.819 -10.010  14.546  0.00  0.00     0.104 H 
ATOM    167  H   BDP d1180      11.543 -13.488  14.207  0.00  0.00     0.094 H 
ATOM    168  H   BDP d1180      10.513 -12.082  16.599  0.00  0.00     0.092 H 
ENDROOT
TORSDOF 43
ENDMDL
MODEL 73
REMARK VINA RESULT:      -5.1      6.333     19.446
REMARK  0 active torsions:
REMARK  status: ('A' for Active; 'I' for Inactive)
REMARK       I    between atoms: C1_1  and  O3_15 
REMARK       I    between atoms: C1_2  and  O3_93 
REMARK       I    between atoms: C6_3  and  C5_89 
REMARK       I    between atoms: C6_3  and  O6_76 
REMARK       I    between atoms: O3_4  and  C3_22 
REMARK       I    between atoms: C6_5  and  C5_48 
REMARK       I    between atoms: C6_5  and  O6_31 
REMARK       I    between atoms: C4_6  and  O4_74 
REMARK       I    between atoms: C7_7  and  C8_62 
REMARK       I    between atoms: C7_7  and  N2_60 
REMARK       I    between atoms: C6_8  and  C5_52 
REMARK       I    between atoms: C3_9  and  O3_38 
REMARK       I    between atoms: C1_10  and  O4_75 
REMARK       I    between atoms: C6_12  and  C5_51 
REMARK       I    between atoms: O3_13  and  C3_42 
REMARK       I    between atoms: O4_14  and  C4_84 
REMARK       I    between atoms: O3_15  and  C3_86 
REMARK       I    between atoms: C6_16  and  C5_23 
REMARK       I    between atoms: C6_16  and  O6_58 
REMARK       I    between atoms: C1_17  and  O3_63 
REMARK       I    between atoms: C2_18  and  N2_60 
REMARK       I    between atoms: C2_19  and  N2_53 
REMARK       I    between atoms: O2_20  and  C2_66 
REMARK       I    between atoms: C3_25  and  O3_93 
REMARK       I    between atoms: C7_26  and  C8_32 
REMARK       I    between atoms: C7_26  and  N2_37 
REMARK       I    between atoms: C2_28  and  N2_44 
REMARK       I    between atoms: C7_29  and  C8_54 
REMARK       I    between atoms: C7_29  and  N2_53 
REMARK       I    between atoms: O1_33  and  C1_80 
REMARK       I    between atoms: O4_34  and  C4_40 
REMARK       I    between atoms: O4_34  and  C1_92 
REMARK       I    between atoms: C7_36  and  C8_81 
REMARK       I    between atoms: C7_36  and  N2_44 
REMARK       I    between atoms: N2_37  and  C2_83 
REMARK       I    between atoms: O3_39  and  C3_61 
REMARK       I    between atoms: C1_41  and  O4_46 
REMARK       I    between atoms: O2_43  and  C2_73 
REMARK       I    between atoms: C6_45  and  C5_87 
REMARK       I    between atoms: O4_46  and  C4_67 
REMARK       I    between atoms: C4_50  and  O4_65 
REMARK       I    between atoms: C2_55  and  O2_82 
REMARK       I    between atoms: O4_57  and  C4_71 
REMARK       I    between atoms: O3_63  and  C3_85 
REMARK       I    between atoms: O4_75  and  C4_91 
REMARK       I    between atoms: C5_77  and  C6_90 
REMARK       I    between atoms: O6_79  and  C6_90 
ROOT
ATOM      1  C1  BDP d1176      14.254 -10.230  -3.341  0.00  0.00     0.160 C 
ATOM      2  O3  BDP d1176      11.747  -8.684  -0.997  0.00  0.00    -0.390 OA
ATOM      3  O5  BDP d1176      14.632 -11.118  -2.327  0.00  0.00    -0.340 OA
ATOM      4  O6A BDP d1176      14.976 -12.572  -0.067  0.00  0.00    -0.646 OA
ATOM      5  C3  BDP d1176      13.060  -8.937  -1.452  0.00  0.00     0.092 C 
ATOM      6  O4  BDP d1176      14.151  -9.135   0.663  0.00  0.00    -0.348 OA
ATOM      7  C4  BDP d1176      13.755  -9.875  -0.476  0.00  0.00     0.103 C 
ATOM      8  C6  BDP d1176      15.637 -11.533  -0.260  0.00  0.00     0.206 C 
ATOM      9  C2  BDP d1176      13.025  -9.427  -2.898  0.00  0.00     0.110 C 
ATOM     10  O6B BDP d1176      16.773 -11.291   0.197  0.00  0.00    -0.646 OA
ATOM     11  O2  BDP d1176      12.932  -8.271  -3.694  0.00  0.00    -0.388 OA
ATOM     12  C5  BDP d1176      14.987 -10.482  -1.134  0.00  0.00     0.152 C 
ATOM     13  H   BDP d1176      15.042  -9.536  -3.548  0.00  0.00     0.133 H 
ATOM     14  H   BDP d1176      11.300  -8.085  -1.616  0.00  0.00     0.210 HD
ATOM     15  H   BDP d1176      13.647  -8.042  -1.471  0.00  0.00     0.091 H 
ATOM     16  H   BDP d1176      13.086 -10.660  -0.192  0.00  0.00     0.092 H 
ATOM     17  H   BDP d1176      12.199 -10.100  -2.997  0.00  0.00     0.094 H 
ATOM     18  H   BDP d1176      13.713  -7.715  -3.549  0.00  0.00     0.210 HD
ATOM     19  H   BDP d1176      15.669  -9.674  -1.302  0.00  0.00     0.104 H 
ATOM     20  C1  BDP d1178      14.207  -9.246   6.463  0.00  0.00     0.160 C 
ATOM     21  C6  BDP d1178      12.399 -11.258   9.028  0.00  0.00     0.206 C 
ATOM     22  O6B BDP d1178      12.531 -12.433   9.447  0.00  0.00    -0.646 OA
ATOM     23  O6A BDP d1178      11.397 -10.534   9.250  0.00  0.00    -0.646 OA
ATOM     24  O3  BDP d1178      16.399  -8.521   9.390  0.00  0.00    -0.390 OA
ATOM     25  O2  BDP d1178      16.069  -7.737   6.718  0.00  0.00    -0.388 OA
ATOM     26  C5  BDP d1178      13.570 -10.697   8.218  0.00  0.00     0.152 C 
ATOM     27  C3  BDP d1178      15.653  -9.282   8.467  0.00  0.00     0.092 C 
ATOM     28  C2  BDP d1178      15.040  -8.393   7.414  0.00  0.00     0.110 C 
ATOM     29  O4  BDP d1178      15.203 -11.081   9.878  0.00  0.00    -0.348 OA
ATOM     30  O5  BDP d1178      13.139  -9.822   7.182  0.00  0.00    -0.340 OA
ATOM     31  C4  BDP d1178      14.557 -10.052   9.184  0.00  0.00     0.103 C 
ATOM     32  H   BDP d1178      14.759 -10.061   6.043  0.00  0.00     0.133 H 
ATOM     33  H   BDP d1178      17.095  -8.035   8.920  0.00  0.00     0.210 HD
ATOM     34  H   BDP d1178      15.684  -7.162   6.038  0.00  0.00     0.210 HD
ATOM     35  H   BDP d1178      14.067 -11.493   7.702  0.00  0.00     0.104 H 
ATOM     36  H   BDP d1178      16.317  -9.972   7.991  0.00  0.00     0.091 H 
ATOM     37  H   BDP d1178      14.403  -7.662   7.865  0.00  0.00     0.094 H 
ATOM     38  H   BDP d1178      14.007  -9.383   9.811  0.00  0.00     0.092 H 
ATOM     39  C6  NAG d1177       9.794  -8.726   2.534  0.00  0.00     0.043 C 
ATOM     40  O4  NAG d1177      11.052  -8.937   5.234  0.00  0.00    -0.390 OA
ATOM     41  C2  NAG d1177      14.080  -8.882   3.055  0.00  0.00     0.087 C 
ATOM     42  C3  NAG d1177      13.226  -9.092   4.297  0.00  0.00     0.093 C 
ATOM     43  C7  NAG d1177      16.542  -8.962   3.107  0.00  0.00     0.214 C 
ATOM     44  N2  NAG d1177      15.358  -9.549   3.260  0.00  0.00    -0.349 N 
ATOM     45  C8  NAG d1177      17.703  -9.905   2.998  0.00  0.00    -0.003 C 
ATOM     46  O7  NAG d1177      16.720  -7.741   3.071  0.00  0.00    -0.274 OA
ATOM     47  O6  NAG d1177       9.798  -7.788   1.472  0.00  0.00    -0.398 OA
ATOM     48  C4  NAG d1177      11.804  -8.592   4.087  0.00  0.00     0.089 C 
ATOM     49  O5  NAG d1177      12.042  -8.911   1.714  0.00  0.00    -0.349 OA
ATOM     50  C5  NAG d1177      11.215  -9.210   2.819  0.00  0.00     0.089 C 
ATOM     51  C1  NAG d1177      13.358  -9.429   1.822  0.00  0.00     0.154 C 
ATOM     52  O3  NAG d1177      13.784  -8.393   5.385  0.00  0.00    -0.348 OA
ATOM     53  H   NAG d1177       9.396  -8.262   3.412  0.00  0.00     0.078 H 
ATOM     54  H   NAG d1177       9.191  -9.565   2.255  0.00  0.00     0.078 H 
ATOM     55  H   NAG d1177      11.453  -8.530   6.018  0.00  0.00     0.210 HD
ATOM     56  H   NAG d1177      14.250  -7.838   2.889  0.00  0.00     0.084 H 
ATOM     57  H   NAG d1177      13.200 -10.143   4.496  0.00  0.00     0.091 H 
ATOM     58  H   NAG d1177      15.344 -10.495   3.530  0.00  0.00     0.163 HD
ATOM     59  H   NAG d1177      17.350 -10.913   3.050  0.00  0.00     0.040 H 
ATOM     60  H   NAG d1177      18.386  -9.724   3.802  0.00  0.00     0.040 H 
ATOM     61  H   NAG d1177      18.202  -9.750   2.064  0.00  0.00     0.040 H 
ATOM     62  H   NAG d1177      10.343  -7.025   1.716  0.00  0.00     0.209 HD
ATOM     63  H   NAG d1177      11.786  -7.530   3.957  0.00  0.00     0.091 H 
ATOM     64  H   NAG d1177      11.168 -10.266   2.978  0.00  0.00     0.090 H 
ATOM     65  H   NAG d1177      13.248 -10.490   1.913  0.00  0.00     0.132 H 
ATOM     66  C6  NAG d1175      17.101 -14.397  -6.187  0.00  0.00     0.043 C 
ATOM     67  O3  NAG d1175      13.966 -11.000  -4.530  0.00  0.00    -0.348 OA
ATOM     68  C2  NAG d1175      14.589 -10.981  -6.843  0.00  0.00     0.087 C 
ATOM     69  O6  NAG d1175      18.059 -14.686  -7.179  0.00  0.00    -0.398 OA
ATOM     70  O1  NAG d1175      15.089 -11.357  -9.185  0.00  0.00    -0.369 OA
ATOM     71  C7  NAG d1175      13.142  -9.224  -7.735  0.00  0.00     0.214 C 
ATOM     72  N2  NAG d1175      14.239  -9.581  -7.064  0.00  0.00    -0.349 N 
ATOM     73  C5  NAG d1175      16.645 -12.955  -6.374  0.00  0.00     0.089 C 
ATOM     74  O5  NAG d1175      15.933 -12.825  -7.595  0.00  0.00    -0.349 OA
ATOM     75  C4  NAG d1175      15.804 -12.511  -5.175  0.00  0.00     0.089 C 
ATOM     76  O4  NAG d1175      16.670 -12.449  -4.056  0.00  0.00    -0.390 OA
ATOM     77  O7  NAG d1175      12.008  -9.607  -7.424  0.00  0.00    -0.274 OA
ATOM     78  C1  NAG d1175      15.611 -11.472  -7.876  0.00  0.00     0.151 C 
ATOM     79  C8  NAG d1175      13.359  -8.302  -8.904  0.00  0.00    -0.003 C 
ATOM     80  C3  NAG d1175      15.086 -11.167  -5.399  0.00  0.00     0.093 C 
ATOM     81  H   NAG d1175      16.265 -15.058  -6.287  0.00  0.00     0.078 H 
ATOM     82  H   NAG d1175      17.525 -14.528  -5.213  0.00  0.00     0.078 H 
ATOM     83  H   NAG d1175      13.714 -11.584  -6.975  0.00  0.00     0.084 H 
ATOM     84  H   NAG d1175      17.663 -14.563  -8.056  0.00  0.00     0.209 HD
ATOM     85  H   NAG d1175      14.872 -10.429  -9.366  0.00  0.00     0.212 HD
ATOM     86  H   NAG d1175      14.830  -8.880  -6.707  0.00  0.00     0.163 HD
ATOM     87  H   NAG d1175      17.500 -12.313  -6.426  0.00  0.00     0.090 H 
ATOM     88  H   NAG d1175      15.018 -13.219  -5.018  0.00  0.00     0.091 H 
ATOM     89  H   NAG d1175      17.371 -11.800  -4.226  0.00  0.00     0.210 HD
ATOM     90  H   NAG d1175      16.494 -10.870  -7.815  0.00  0.00     0.132 H 
ATOM     91  H   NAG d1175      14.404  -8.092  -9.004  0.00  0.00     0.040 H 
ATOM     92  H   NAG d1175      12.827  -7.388  -8.741  0.00  0.00     0.040 H 
ATOM     93  H   NAG d1175      13.002  -8.768  -9.798  0.00  0.00     0.040 H 
ATOM     94  H   NAG d1175      15.832 -10.429  -5.185  0.00  0.00     0.091 H 
ATOM     95  C4  NAG d1181      15.033 -21.362  18.972  0.00  0.00     0.089 C 
ATOM     96  C3  NAG d1181      14.065 -20.386  19.647  0.00  0.00     0.086 C 
ATOM     97  C6  NAG d1181      16.798 -21.671  17.185  0.00  0.00     0.043 C 
ATOM     98  C5  NAG d1181      16.006 -20.658  18.015  0.00  0.00     0.089 C 
ATOM     99  C7  NAG d1181      11.395 -18.277  19.161  0.00  0.00     0.214 C 
ATOM    100  C8  NAG d1181      10.846 -17.963  17.796  0.00  0.00    -0.003 C 
ATOM    101  N2  NAG d1181      12.721 -18.354  19.276  0.00  0.00    -0.349 N 
ATOM    102  O3  NAG d1181      13.016 -21.095  20.291  0.00  0.00    -0.391 OA
ATOM    103  C1  NAG d1181      14.581 -18.784  17.760  0.00  0.00     0.154 C 
ATOM    104  O6  NAG d1181      17.961 -21.063  16.660  0.00  0.00    -0.398 OA
ATOM    105  O5  NAG d1181      15.318 -19.799  17.122  0.00  0.00    -0.349 OA
ATOM    106  O7  NAG d1181      10.642 -18.459  20.121  0.00  0.00    -0.274 OA
ATOM    107  O4  NAG d1181      15.763 -22.051  19.963  0.00  0.00    -0.390 OA
ATOM    108  C2  NAG d1181      13.485 -19.407  18.623  0.00  0.00     0.087 C 
ATOM    109  H   NAG d1181      14.451 -22.045  18.388  0.00  0.00     0.091 H 
ATOM    110  H   NAG d1181      14.608 -19.829  20.381  0.00  0.00     0.090 H 
ATOM    111  H   NAG d1181      16.188 -22.023  16.379  0.00  0.00     0.078 H 
ATOM    112  H   NAG d1181      17.083 -22.491  17.810  0.00  0.00     0.078 H 
ATOM    113  H   NAG d1181      16.674 -20.087  18.626  0.00  0.00     0.090 H 
ATOM    114  H   NAG d1181      11.654 -17.842  17.106  0.00  0.00     0.040 H 
ATOM    115  H   NAG d1181      10.277 -17.057  17.841  0.00  0.00     0.040 H 
ATOM    116  H   NAG d1181      10.216 -18.765  17.471  0.00  0.00     0.040 H 
ATOM    117  H   NAG d1181      13.195 -17.681  19.816  0.00  0.00     0.163 HD
ATOM    118  H   NAG d1181      12.517 -21.603  19.632  0.00  0.00     0.210 HD
ATOM    119  H   NAG d1181      15.266 -18.219  18.356  0.00  0.00     0.132 H 
ATOM    120  H   NAG d1181      17.708 -20.319  16.092  0.00  0.00     0.209 HD
ATOM    121  H   NAG d1181      16.283 -21.417  20.481  0.00  0.00     0.210 HD
ATOM    122  H   NAG d1181      12.830 -19.969  17.990  0.00  0.00     0.084 H 
ATOM    123  C7  NAG d1179      15.147 -14.385  10.058  0.00  0.00     0.214 C 
ATOM    124  C1  NAG d1179      14.862 -11.181  11.270  0.00  0.00     0.154 C 
ATOM    125  C2  NAG d1179      15.288 -12.587  11.673  0.00  0.00     0.087 C 
ATOM    126  O5  NAG d1179      15.535 -10.228  12.066  0.00  0.00    -0.349 OA
ATOM    127  O7  NAG d1179      16.304 -14.773  10.205  0.00  0.00    -0.274 OA
ATOM    128  O4  NAG d1179      15.635 -11.867  15.329  0.00  0.00    -0.390 OA
ATOM    129  N2  NAG d1179      14.534 -13.583  10.928  0.00  0.00    -0.349 N 
ATOM    130  C8  NAG d1179      14.369 -14.819   8.854  0.00  0.00    -0.003 C 
ATOM    131  O3  NAG d1179      15.934 -14.041  13.451  0.00  0.00    -0.348 OA
ATOM    132  C4  NAG d1179      15.853 -11.697  13.943  0.00  0.00     0.089 C 
ATOM    133  C5  NAG d1179      15.277 -10.367  13.452  0.00  0.00     0.089 C 
ATOM    134  O6  NAG d1179      17.276  -9.139  14.065  0.00  0.00    -0.398 OA
ATOM    135  C3  NAG d1179      15.219 -12.851  13.175  0.00  0.00     0.093 C 
ATOM    136  C6  NAG d1179      15.866  -9.166  14.193  0.00  0.00     0.043 C 
ATOM    137  H   NAG d1179      13.819 -10.993  11.419  0.00  0.00     0.132 H 
ATOM    138  H   NAG d1179      16.324 -12.666  11.417  0.00  0.00     0.084 H 
ATOM    139  H   NAG d1179      16.009 -12.716  15.612  0.00  0.00     0.210 HD
ATOM    140  H   NAG d1179      13.563 -13.667  11.068  0.00  0.00     0.163 HD
ATOM    141  H   NAG d1179      13.390 -14.390   8.888  0.00  0.00     0.040 H 
ATOM    142  H   NAG d1179      14.291 -15.886   8.845  0.00  0.00     0.040 H 
ATOM    143  H   NAG d1179      14.870 -14.491   7.968  0.00  0.00     0.040 H 
ATOM    144  H   NAG d1179      16.909 -11.687  13.770  0.00  0.00     0.091 H 
ATOM    145  H   NAG d1179      14.225 -10.382  13.645  0.00  0.00     0.090 H 
ATOM    146  H   NAG d1179      17.630  -8.371  14.540  0.00  0.00     0.209 HD
ATOM    147  H   NAG d1179      14.197 -12.945  13.476  0.00  0.00     0.091 H 
ATOM    148  H   NAG d1179      15.610  -9.233  15.230  0.00  0.00     0.078 H 
ATOM    149  H   NAG d1179      15.465  -8.270  13.767  0.00  0.00     0.078 H 
ATOM    150  C6  BDP d1180      13.866 -15.097  17.568  0.00  0.00     0.206 C 
ATOM    151  O3  BDP d1180      16.129 -18.545  14.849  0.00  0.00    -0.390 OA
ATOM    152  C1  BDP d1180      15.130 -15.020  14.125  0.00  0.00     0.160 C 
ATOM    153  O2  BDP d1180      15.368 -16.760  12.527  0.00  0.00    -0.388 OA
ATOM    154  C3  BDP d1180      15.171 -17.508  14.784  0.00  0.00     0.092 C 
ATOM    155  O4  BDP d1180      13.948 -17.913  16.808  0.00  0.00    -0.348 OA
ATOM    156  O5  BDP d1180      15.090 -14.755  15.510  0.00  0.00    -0.340 OA
ATOM    157  C5  BDP d1180      14.214 -15.637  16.179  0.00  0.00     0.152 C 
ATOM    158  O6B BDP d1180      14.807 -14.762  18.329  0.00  0.00    -0.646 OA
ATOM    159  O6A BDP d1180      12.651 -15.005  17.865  0.00  0.00    -0.646 OA
ATOM    160  C2  BDP d1180      15.703 -16.411  13.854  0.00  0.00     0.110 C 
ATOM    161  C4  BDP d1180      14.858 -17.022  16.203  0.00  0.00     0.103 C 
ATOM    162  H   BDP d1180      16.330 -18.856  13.952  0.00  0.00     0.210 HD
ATOM    163  H   BDP d1180      14.127 -14.976  13.755  0.00  0.00     0.133 H 
ATOM    164  H   BDP d1180      15.696 -16.078  11.921  0.00  0.00     0.210 HD
ATOM    165  H   BDP d1180      14.244 -17.847  14.372  0.00  0.00     0.091 H 
ATOM    166  H   BDP d1180      13.279 -15.719  15.665  0.00  0.00     0.104 H 
ATOM    167  H   BDP d1180      16.757 -16.352  14.025  0.00  0.00     0.094 H 
ATOM    168  H   BDP d1180      15.777 -16.975  16.748  0.00  0.00     0.092 H 
ENDROOT
TORSDOF 43
ENDMDL
MODEL 74
REMARK VINA RESULT:      -5.1      6.116      7.806
REMARK  0 active torsions:
REMARK  status: ('A' for Active; 'I' for Inactive)
REMARK       I    between atoms: C1_1  and  O3_15 
REMARK       I    between atoms: C1_2  and  O3_93 
REMARK       I    between atoms: C6_3  and  C5_89 
REMARK       I    between atoms: C6_3  and  O6_76 
REMARK       I    between atoms: O3_4  and  C3_22 
REMARK       I    between atoms: C6_5  and  C5_48 
REMARK       I    between atoms: C6_5  and  O6_31 
REMARK       I    between atoms: C4_6  and  O4_74 
REMARK       I    between atoms: C7_7  and  C8_62 
REMARK       I    between atoms: C7_7  and  N2_60 
REMARK       I    between atoms: C6_8  and  C5_52 
REMARK       I    between atoms: C3_9  and  O3_38 
REMARK       I    between atoms: C1_10  and  O4_75 
REMARK       I    between atoms: C6_12  and  C5_51 
REMARK       I    between atoms: O3_13  and  C3_42 
REMARK       I    between atoms: O4_14  and  C4_84 
REMARK       I    between atoms: O3_15  and  C3_86 
REMARK       I    between atoms: C6_16  and  C5_23 
REMARK       I    between atoms: C6_16  and  O6_58 
REMARK       I    between atoms: C1_17  and  O3_63 
REMARK       I    between atoms: C2_18  and  N2_60 
REMARK       I    between atoms: C2_19  and  N2_53 
REMARK       I    between atoms: O2_20  and  C2_66 
REMARK       I    between atoms: C3_25  and  O3_93 
REMARK       I    between atoms: C7_26  and  C8_32 
REMARK       I    between atoms: C7_26  and  N2_37 
REMARK       I    between atoms: C2_28  and  N2_44 
REMARK       I    between atoms: C7_29  and  C8_54 
REMARK       I    between atoms: C7_29  and  N2_53 
REMARK       I    between atoms: O1_33  and  C1_80 
REMARK       I    between atoms: O4_34  and  C4_40 
REMARK       I    between atoms: O4_34  and  C1_92 
REMARK       I    between atoms: C7_36  and  C8_81 
REMARK       I    between atoms: C7_36  and  N2_44 
REMARK       I    between atoms: N2_37  and  C2_83 
REMARK       I    between atoms: O3_39  and  C3_61 
REMARK       I    between atoms: C1_41  and  O4_46 
REMARK       I    between atoms: O2_43  and  C2_73 
REMARK       I    between atoms: C6_45  and  C5_87 
REMARK       I    between atoms: O4_46  and  C4_67 
REMARK       I    between atoms: C4_50  and  O4_65 
REMARK       I    between atoms: C2_55  and  O2_82 
REMARK       I    between atoms: O4_57  and  C4_71 
REMARK       I    between atoms: O3_63  and  C3_85 
REMARK       I    between atoms: O4_75  and  C4_91 
REMARK       I    between atoms: C5_77  and  C6_90 
REMARK       I    between atoms: O6_79  and  C6_90 
ROOT
ATOM      1  C1  BDP d1176      14.945 -14.412  18.102  0.00  0.00     0.160 C 
ATOM      2  O3  BDP d1176      15.823 -17.374  15.951  0.00  0.00    -0.390 OA
ATOM      3  O5  BDP d1176      14.181 -13.894  17.050  0.00  0.00    -0.340 OA
ATOM      4  O6A BDP d1176      12.862 -13.350  14.746  0.00  0.00    -0.646 OA
ATOM      5  C3  BDP d1176      15.904 -16.012  16.317  0.00  0.00     0.092 C 
ATOM      6  O4  BDP d1176      15.987 -15.049  14.133  0.00  0.00    -0.348 OA
ATOM      7  C4  BDP d1176      15.170 -15.172  15.281  0.00  0.00     0.103 C 
ATOM      8  C6  BDP d1176      14.033 -12.956  14.916  0.00  0.00     0.206 C 
ATOM      9  C2  BDP d1176      15.418 -15.829  17.753  0.00  0.00     0.110 C 
ATOM     10  O6B BDP d1176      14.551 -11.948  14.392  0.00  0.00    -0.646 OA
ATOM     11  O2  BDP d1176      16.513 -16.153  18.575  0.00  0.00    -0.388 OA
ATOM     12  C5  BDP d1176      14.888 -13.787  15.849  0.00  0.00     0.152 C 
ATOM     13  H   BDP d1176      15.813 -13.809  18.271  0.00  0.00     0.133 H 
ATOM     14  H   BDP d1176      16.290 -17.914  16.608  0.00  0.00     0.210 HD
ATOM     15  H   BDP d1176      16.917 -15.666  16.315  0.00  0.00     0.091 H 
ATOM     16  H   BDP d1176      14.243 -15.643  15.026  0.00  0.00     0.092 H 
ATOM     17  H   BDP d1176      14.560 -16.453  17.892  0.00  0.00     0.094 H 
ATOM     18  H   BDP d1176      17.246 -15.545  18.389  0.00  0.00     0.210 HD
ATOM     19  H   BDP d1176      15.840 -13.318  15.987  0.00  0.00     0.104 H 
ATOM     20  C1  BDP d1178      15.904 -15.352   8.341  0.00  0.00     0.160 C 
ATOM     21  C6  BDP d1178      13.510 -16.769   5.860  0.00  0.00     0.206 C 
ATOM     22  O6B BDP d1178      12.406 -16.377   5.412  0.00  0.00    -0.646 OA
ATOM     23  O6A BDP d1178      13.962 -17.931   5.715  0.00  0.00    -0.646 OA
ATOM     24  O3  BDP d1178      17.157 -13.607   5.294  0.00  0.00    -0.390 OA
ATOM     25  O2  BDP d1178      17.830 -13.944   7.995  0.00  0.00    -0.388 OA
ATOM     26  C5  BDP d1178      14.343 -15.723   6.604  0.00  0.00     0.152 C 
ATOM     27  C3  BDP d1178      16.233 -14.078   6.248  0.00  0.00     0.092 C 
ATOM     28  C2  BDP d1178      16.939 -14.821   7.354  0.00  0.00     0.110 C 
ATOM     29  O4  BDP d1178      14.381 -14.159   4.836  0.00  0.00    -0.348 OA
ATOM     30  O5  BDP d1178      15.082 -16.288   7.680  0.00  0.00    -0.340 OA
ATOM     31  C4  BDP d1178      15.215 -14.993   5.588  0.00  0.00     0.103 C 
ATOM     32  H   BDP d1178      15.252 -14.588   8.710  0.00  0.00     0.133 H 
ATOM     33  H   BDP d1178      17.801 -13.024   5.727  0.00  0.00     0.210 HD
ATOM     34  H   BDP d1178      18.289 -14.413   8.709  0.00  0.00     0.210 HD
ATOM     35  H   BDP d1178      13.696 -15.011   7.072  0.00  0.00     0.104 H 
ATOM     36  H   BDP d1178      15.729 -13.233   6.668  0.00  0.00     0.091 H 
ATOM     37  H   BDP d1178      17.490 -15.648   6.958  0.00  0.00     0.094 H 
ATOM     38  H   BDP d1178      15.728 -15.733   5.010  0.00  0.00     0.092 H 
ATOM     39  C6  NAG d1177      15.302 -19.485  12.552  0.00  0.00     0.043 C 
ATOM     40  O4  NAG d1177      15.415 -18.395   9.773  0.00  0.00    -0.390 OA
ATOM     41  C2  NAG d1177      16.219 -15.339  11.756  0.00  0.00     0.087 C 
ATOM     42  C3  NAG d1177      15.805 -16.195  10.567  0.00  0.00     0.093 C 
ATOM     43  C7  NAG d1177      16.754 -12.943  11.545  0.00  0.00     0.214 C 
ATOM     44  N2  NAG d1177      15.892 -13.952  11.457  0.00  0.00    -0.349 N 
ATOM     45  C8  NAG d1177      16.130 -11.580  11.563  0.00  0.00    -0.003 C 
ATOM     46  O7  NAG d1177      17.982 -13.071  11.592  0.00  0.00    -0.274 OA
ATOM     47  O6  NAG d1177      16.209 -19.644  13.628  0.00  0.00    -0.398 OA
ATOM     48  C4  NAG d1177      15.935 -17.678  10.876  0.00  0.00     0.089 C 
ATOM     49  O5  NAG d1177      15.681 -17.212  13.223  0.00  0.00    -0.349 OA
ATOM     50  C5  NAG d1177      15.188 -18.010  12.167  0.00  0.00     0.089 C 
ATOM     51  C1  NAG d1177      15.507 -15.819  13.022  0.00  0.00     0.154 C 
ATOM     52  O3  NAG d1177      16.624 -15.901   9.458  0.00  0.00    -0.348 OA
ATOM     53  H   NAG d1177      15.653 -20.043  11.710  0.00  0.00     0.078 H 
ATOM     54  H   NAG d1177      14.339 -19.841  12.853  0.00  0.00     0.078 H 
ATOM     55  H   NAG d1177      15.911 -18.161   8.973  0.00  0.00     0.210 HD
ATOM     56  H   NAG d1177      17.272 -15.423  11.930  0.00  0.00     0.084 H 
ATOM     57  H   NAG d1177      14.781 -15.971  10.351  0.00  0.00     0.091 H 
ATOM     58  H   NAG d1177      14.972 -13.748  11.172  0.00  0.00     0.163 HD
ATOM     59  H   NAG d1177      15.066 -11.674  11.515  0.00  0.00     0.040 H 
ATOM     60  H   NAG d1177      16.476 -11.018  10.721  0.00  0.00     0.040 H 
ATOM     61  H   NAG d1177      16.403 -11.074  12.466  0.00  0.00     0.040 H 
ATOM     62  H   NAG d1177      17.085 -19.322  13.364  0.00  0.00     0.209 HD
ATOM     63  H   NAG d1177      16.958 -17.951  11.026  0.00  0.00     0.091 H 
ATOM     64  H   NAG d1177      14.153 -17.804  11.993  0.00  0.00     0.090 H 
ATOM     65  H   NAG d1177      14.453 -15.668  12.919  0.00  0.00     0.132 H 
ATOM     66  C6  NAG d1175      11.613 -10.437  20.684  0.00  0.00     0.043 C 
ATOM     67  O3  NAG d1175      14.125 -14.420  19.292  0.00  0.00    -0.348 OA
ATOM     68  C2  NAG d1175      14.295 -13.670  21.561  0.00  0.00     0.087 C 
ATOM     69  O6  NAG d1175      11.570  -9.374  21.608  0.00  0.00    -0.398 OA
ATOM     70  O1  NAG d1175      14.051 -12.938  23.859  0.00  0.00    -0.369 OA
ATOM     71  C7  NAG d1175      15.635 -15.445  22.576  0.00  0.00     0.214 C 
ATOM     72  N2  NAG d1175      15.563 -14.341  21.830  0.00  0.00    -0.349 N 
ATOM     73  C5  NAG d1175      12.896 -11.224  20.926  0.00  0.00     0.089 C 
ATOM     74  O5  NAG d1175      12.842 -11.863  22.193  0.00  0.00    -0.349 OA
ATOM     75  C4  NAG d1175      13.119 -12.226  19.791  0.00  0.00     0.089 C 
ATOM     76  O4  NAG d1175      13.397 -11.479  18.621  0.00  0.00    -0.390 OA
ATOM     77  O7  NAG d1175      14.982 -16.467  22.330  0.00  0.00    -0.274 OA
ATOM     78  C1  NAG d1175      14.072 -12.492  22.517  0.00  0.00     0.151 C 
ATOM     79  C8  NAG d1175      16.580 -15.387  23.745  0.00  0.00    -0.003 C 
ATOM     80  C3  NAG d1175      14.242 -13.239  20.085  0.00  0.00     0.093 C 
ATOM     81  H   NAG d1175      10.765 -11.075  20.825  0.00  0.00     0.078 H 
ATOM     82  H   NAG d1175      11.593 -10.060  19.683  0.00  0.00     0.078 H 
ATOM     83  H   NAG d1175      13.493 -14.357  21.737  0.00  0.00     0.084 H 
ATOM     84  H   NAG d1175      11.589  -9.729  22.511  0.00  0.00     0.209 HD
ATOM     85  H   NAG d1175      14.896 -13.366  24.071  0.00  0.00     0.212 HD
ATOM     86  H   NAG d1175      16.390 -13.968  21.449  0.00  0.00     0.163 HD
ATOM     87  H   NAG d1175      13.730 -10.554  20.935  0.00  0.00     0.090 H 
ATOM     88  H   NAG d1175      12.237 -12.821  19.672  0.00  0.00     0.091 H 
ATOM     89  H   NAG d1175      14.199 -10.951  18.758  0.00  0.00     0.210 HD
ATOM     90  H   NAG d1175      14.875 -11.792  22.412  0.00  0.00     0.132 H 
ATOM     91  H   NAG d1175      17.044 -14.423  23.782  0.00  0.00     0.040 H 
ATOM     92  H   NAG d1175      17.332 -16.139  23.632  0.00  0.00     0.040 H 
ATOM     93  H   NAG d1175      16.038 -15.557  24.651  0.00  0.00     0.040 H 
ATOM     94  H   NAG d1175      15.142 -12.716  19.838  0.00  0.00     0.091 H 
ATOM     95  C4  NAG d1181       4.398 -12.373  -4.415  0.00  0.00     0.089 C 
ATOM     96  C3  NAG d1181       5.103 -13.596  -5.008  0.00  0.00     0.086 C 
ATOM     97  C6  NAG d1181       4.535 -10.472  -2.749  0.00  0.00     0.043 C 
ATOM     98  C5  NAG d1181       5.320 -11.544  -3.509  0.00  0.00     0.089 C 
ATOM     99  C7  NAG d1181       6.480 -16.667  -4.315  0.00  0.00     0.214 C 
ATOM    100  C8  NAG d1181       6.646 -17.186  -2.912  0.00  0.00    -0.003 C 
ATOM    101  N2  NAG d1181       6.736 -15.375  -4.516  0.00  0.00    -0.349 N 
ATOM    102  O3  NAG d1181       4.157 -14.476  -5.597  0.00  0.00    -0.391 OA
ATOM    103  C1  NAG d1181       6.780 -13.370  -3.129  0.00  0.00     0.154 C 
ATOM    104  O6  NAG d1181       5.412  -9.465  -2.289  0.00  0.00    -0.398 OA
ATOM    105  O5  NAG d1181       5.979 -12.364  -2.558  0.00  0.00    -0.349 OA
ATOM    106  O7  NAG d1181       6.119 -17.413  -5.229  0.00  0.00    -0.274 OA
ATOM    107  O4  NAG d1181       3.914 -11.563  -5.463  0.00  0.00    -0.390 OA
ATOM    108  C2  NAG d1181       5.905 -14.332  -3.932  0.00  0.00     0.087 C 
ATOM    109  H   NAG d1181       3.591 -12.727  -3.808  0.00  0.00     0.091 H 
ATOM    110  H   NAG d1181       5.779 -13.258  -5.765  0.00  0.00     0.090 H 
ATOM    111  H   NAG d1181       4.041 -10.921  -1.913  0.00  0.00     0.078 H 
ATOM    112  H   NAG d1181       3.813 -10.035  -3.407  0.00  0.00     0.078 H 
ATOM    113  H   NAG d1181       6.041 -11.081  -4.150  0.00  0.00     0.090 H 
ATOM    114  H   NAG d1181       6.962 -16.389  -2.273  0.00  0.00     0.040 H 
ATOM    115  H   NAG d1181       7.380 -17.964  -2.905  0.00  0.00     0.040 H 
ATOM    116  H   NAG d1181       5.711 -17.574  -2.563  0.00  0.00     0.040 H 
ATOM    117  H   NAG d1181       7.507 -15.119  -5.073  0.00  0.00     0.163 HD
ATOM    118  H   NAG d1181       3.539 -14.788  -4.917  0.00  0.00     0.210 HD
ATOM    119  H   NAG d1181       7.499 -12.888  -3.758  0.00  0.00     0.132 H 
ATOM    120  H   NAG d1181       6.069  -9.856  -1.692  0.00  0.00     0.209 HD
ATOM    121  H   NAG d1181       4.658 -11.252  -6.001  0.00  0.00     0.210 HD
ATOM    122  H   NAG d1181       5.197 -14.783  -3.269  0.00  0.00     0.084 H 
ATOM    123  C7  NAG d1179      11.168 -13.405   4.600  0.00  0.00     0.214 C 
ATOM    124  C1  NAG d1179      14.202 -14.556   3.467  0.00  0.00     0.154 C 
ATOM    125  C2  NAG d1179      12.947 -13.822   3.013  0.00  0.00     0.087 C 
ATOM    126  O5  NAG d1179      15.293 -14.195   2.648  0.00  0.00    -0.349 OA
ATOM    127  O7  NAG d1179      11.080 -12.200   4.372  0.00  0.00    -0.274 OA
ATOM    128  O4  NAG d1179      13.737 -13.908  -0.644  0.00  0.00    -0.390 OA
ATOM    129  N2  NAG d1179      11.793 -14.254   3.785  0.00  0.00    -0.349 N 
ATOM    130  C8  NAG d1179      10.552 -13.970   5.843  0.00  0.00    -0.003 C 
ATOM    131  O3  NAG d1179      11.703 -12.955   1.171  0.00  0.00    -0.348 OA
ATOM    132  C4  NAG d1179      13.954 -13.647   0.727  0.00  0.00     0.089 C 
ATOM    133  C5  NAG d1179      15.098 -14.502   1.278  0.00  0.00     0.089 C 
ATOM    134  O6  NAG d1179      16.786 -12.916   0.562  0.00  0.00    -0.398 OA
ATOM    135  C3  NAG d1179      12.677 -13.923   1.513  0.00  0.00     0.093 C 
ATOM    136  C6  NAG d1179      16.409 -14.280   0.523  0.00  0.00     0.043 C 
ATOM    137  H   NAG d1179      14.125 -15.621   3.388  0.00  0.00     0.132 H 
ATOM    138  H   NAG d1179      13.128 -12.784   3.200  0.00  0.00     0.084 H 
ATOM    139  H   NAG d1179      13.008 -13.354  -0.967  0.00  0.00     0.210 HD
ATOM    140  H   NAG d1179      11.471 -15.181   3.706  0.00  0.00     0.163 HD
ATOM    141  H   NAG d1179      10.723 -15.025   5.879  0.00  0.00     0.040 H 
ATOM    142  H   NAG d1179       9.498 -13.779   5.837  0.00  0.00     0.040 H 
ATOM    143  H   NAG d1179      10.992 -13.507   6.701  0.00  0.00     0.040 H 
ATOM    144  H   NAG d1179      14.226 -12.618   0.833  0.00  0.00     0.091 H 
ATOM    145  H   NAG d1179      14.821 -15.528   1.152  0.00  0.00     0.090 H 
ATOM    146  H   NAG d1179      17.618 -12.796   0.079  0.00  0.00     0.209 HD
ATOM    147  H   NAG d1179      12.332 -14.908   1.276  0.00  0.00     0.091 H 
ATOM    148  H   NAG d1179      16.282 -14.580  -0.496  0.00  0.00     0.078 H 
ATOM    149  H   NAG d1179      17.176 -14.862   0.990  0.00  0.00     0.078 H 
ATOM    150  C6  BDP d1180      10.172 -14.963  -2.825  0.00  0.00     0.206 C 
ATOM    151  O3  BDP d1180       7.391 -11.741  -0.319  0.00  0.00    -0.390 OA
ATOM    152  C1  BDP d1180      10.556 -13.534   0.531  0.00  0.00     0.160 C 
ATOM    153  O2  BDP d1180       8.927 -12.765   2.079  0.00  0.00    -0.388 OA
ATOM    154  C3  BDP d1180       8.157 -12.920  -0.175  0.00  0.00     0.092 C 
ATOM    155  O4  BDP d1180       7.464 -14.135  -2.123  0.00  0.00    -0.348 OA
ATOM    156  O5  BDP d1180      10.805 -13.729  -0.843  0.00  0.00    -0.340 OA
ATOM    157  C5  BDP d1180       9.733 -14.401  -1.471  0.00  0.00     0.152 C 
ATOM    158  O6B BDP d1180      10.732 -14.188  -3.638  0.00  0.00    -0.646 OA
ATOM    159  O6A BDP d1180       9.959 -16.181  -3.042  0.00  0.00    -0.646 OA
ATOM    160  C2  BDP d1180       9.351 -12.616   0.740  0.00  0.00     0.110 C 
ATOM    161  C4  BDP d1180       8.553 -13.437  -1.561  0.00  0.00     0.103 C 
ATOM    162  H   BDP d1180       7.139 -11.409   0.557  0.00  0.00     0.210 HD
ATOM    163  H   BDP d1180      10.348 -14.489   0.965  0.00  0.00     0.133 H 
ATOM    164  H   BDP d1180       9.668 -12.578   2.676  0.00  0.00     0.210 HD
ATOM    165  H   BDP d1180       7.597 -13.704   0.290  0.00  0.00     0.091 H 
ATOM    166  H   BDP d1180       9.421 -15.250  -0.900  0.00  0.00     0.104 H 
ATOM    167  H   BDP d1180       9.670 -11.623   0.503  0.00  0.00     0.094 H 
ATOM    168  H   BDP d1180       8.828 -12.596  -2.163  0.00  0.00     0.092 H 
ENDROOT
TORSDOF 43
ENDMDL
MODEL 75
REMARK VINA RESULT:      -5.0      5.821      7.432
REMARK  0 active torsions:
REMARK  status: ('A' for Active; 'I' for Inactive)
REMARK       I    between atoms: C1_1  and  O3_15 
REMARK       I    between atoms: C1_2  and  O3_93 
REMARK       I    between atoms: C6_3  and  C5_89 
REMARK       I    between atoms: C6_3  and  O6_76 
REMARK       I    between atoms: O3_4  and  C3_22 
REMARK       I    between atoms: C6_5  and  C5_48 
REMARK       I    between atoms: C6_5  and  O6_31 
REMARK       I    between atoms: C4_6  and  O4_74 
REMARK       I    between atoms: C7_7  and  C8_62 
REMARK       I    between atoms: C7_7  and  N2_60 
REMARK       I    between atoms: C6_8  and  C5_52 
REMARK       I    between atoms: C3_9  and  O3_38 
REMARK       I    between atoms: C1_10  and  O4_75 
REMARK       I    between atoms: C6_12  and  C5_51 
REMARK       I    between atoms: O3_13  and  C3_42 
REMARK       I    between atoms: O4_14  and  C4_84 
REMARK       I    between atoms: O3_15  and  C3_86 
REMARK       I    between atoms: C6_16  and  C5_23 
REMARK       I    between atoms: C6_16  and  O6_58 
REMARK       I    between atoms: C1_17  and  O3_63 
REMARK       I    between atoms: C2_18  and  N2_60 
REMARK       I    between atoms: C2_19  and  N2_53 
REMARK       I    between atoms: O2_20  and  C2_66 
REMARK       I    between atoms: C3_25  and  O3_93 
REMARK       I    between atoms: C7_26  and  C8_32 
REMARK       I    between atoms: C7_26  and  N2_37 
REMARK       I    between atoms: C2_28  and  N2_44 
REMARK       I    between atoms: C7_29  and  C8_54 
REMARK       I    between atoms: C7_29  and  N2_53 
REMARK       I    between atoms: O1_33  and  C1_80 
REMARK       I    between atoms: O4_34  and  C4_40 
REMARK       I    between atoms: O4_34  and  C1_92 
REMARK       I    between atoms: C7_36  and  C8_81 
REMARK       I    between atoms: C7_36  and  N2_44 
REMARK       I    between atoms: N2_37  and  C2_83 
REMARK       I    between atoms: O3_39  and  C3_61 
REMARK       I    between atoms: C1_41  and  O4_46 
REMARK       I    between atoms: O2_43  and  C2_73 
REMARK       I    between atoms: C6_45  and  C5_87 
REMARK       I    between atoms: O4_46  and  C4_67 
REMARK       I    between atoms: C4_50  and  O4_65 
REMARK       I    between atoms: C2_55  and  O2_82 
REMARK       I    between atoms: O4_57  and  C4_71 
REMARK       I    between atoms: O3_63  and  C3_85 
REMARK       I    between atoms: O4_75  and  C4_91 
REMARK       I    between atoms: C5_77  and  C6_90 
REMARK       I    between atoms: O6_79  and  C6_90 
ROOT
ATOM      1  C1  BDP d1176      15.114 -12.821  16.679  0.00  0.00     0.160 C 
ATOM      2  O3  BDP d1176      15.591  -9.743  14.565  0.00  0.00    -0.390 OA
ATOM      3  O5  BDP d1176      15.113 -13.601  15.516  0.00  0.00    -0.340 OA
ATOM      4  O6A BDP d1176      15.184 -14.624  13.008  0.00  0.00    -0.646 OA
ATOM      5  C3  BDP d1176      14.833 -10.824  15.067  0.00  0.00     0.092 C 
ATOM      6  O4  BDP d1176      13.618 -11.373  13.086  0.00  0.00    -0.348 OA
ATOM      7  C4  BDP d1176      14.626 -11.847  13.959  0.00  0.00     0.103 C 
ATOM      8  C6  BDP d1176      14.104 -14.269  13.519  0.00  0.00     0.206 C 
ATOM      9  C2  BDP d1176      15.485 -11.374  16.334  0.00  0.00     0.110 C 
ATOM     10  O6B BDP d1176      12.977 -14.736  13.250  0.00  0.00    -0.646 OA
ATOM     11  O2  BDP d1176      15.058 -10.538  17.381  0.00  0.00    -0.388 OA
ATOM     12  C5  BDP d1176      14.186 -13.175  14.561  0.00  0.00     0.152 C 
ATOM     13  H   BDP d1176      14.143 -12.813  17.128  0.00  0.00     0.133 H 
ATOM     14  H   BDP d1176      15.726  -9.088  15.268  0.00  0.00     0.210 HD
ATOM     15  H   BDP d1176      13.855 -10.509  15.367  0.00  0.00     0.091 H 
ATOM     16  H   BDP d1176      15.541 -11.989  13.424  0.00  0.00     0.092 H 
ATOM     17  H   BDP d1176      16.544 -11.385  16.181  0.00  0.00     0.094 H 
ATOM     18  H   BDP d1176      14.091 -10.583  17.456  0.00  0.00     0.210 HD
ATOM     19  H   BDP d1176      13.220 -13.007  14.991  0.00  0.00     0.104 H 
ATOM     20  C1  BDP d1178      12.297 -10.705   7.477  0.00  0.00     0.160 C 
ATOM     21  C6  BDP d1178      14.289 -10.763   4.327  0.00  0.00     0.206 C 
ATOM     22  O6B BDP d1178      14.786 -11.689   3.642  0.00  0.00    -0.646 OA
ATOM     23  O6A BDP d1178      14.583  -9.549   4.197  0.00  0.00    -0.646 OA
ATOM     24  O3  BDP d1178       9.497 -11.128   5.052  0.00  0.00    -0.390 OA
ATOM     25  O2  BDP d1178       9.907 -10.683   7.790  0.00  0.00    -0.388 OA
ATOM     26  C5  BDP d1178      13.241 -11.178   5.361  0.00  0.00     0.152 C 
ATOM     27  C3  BDP d1178      10.738 -11.368   5.678  0.00  0.00     0.092 C 
ATOM     28  C2  BDP d1178      10.929 -10.446   6.856  0.00  0.00     0.110 C 
ATOM     29  O4  BDP d1178      11.822 -12.273   3.825  0.00  0.00    -0.348 OA
ATOM     30  O5  BDP d1178      13.296 -10.377   6.536  0.00  0.00    -0.340 OA
ATOM     31  C4  BDP d1178      11.873 -11.173   4.688  0.00  0.00     0.103 C 
ATOM     32  H   BDP d1178      12.450 -11.733   7.732  0.00  0.00     0.133 H 
ATOM     33  H   BDP d1178       8.781 -11.256   5.694  0.00  0.00     0.210 HD
ATOM     34  H   BDP d1178      10.022 -10.094   8.552  0.00  0.00     0.210 HD
ATOM     35  H   BDP d1178      13.447 -12.170   5.707  0.00  0.00     0.104 H 
ATOM     36  H   BDP d1178      10.744 -12.379   6.028  0.00  0.00     0.091 H 
ATOM     37  H   BDP d1178      10.883  -9.424   6.542  0.00  0.00     0.094 H 
ATOM     38  H   BDP d1178      11.757 -10.229   4.198  0.00  0.00     0.092 H 
ATOM     39  C6  NAG d1177      16.306  -8.069  10.964  0.00  0.00     0.043 C 
ATOM     40  O4  NAG d1177      14.834  -8.654   8.432  0.00  0.00    -0.390 OA
ATOM     41  C2  NAG d1177      12.969 -10.810  10.839  0.00  0.00     0.087 C 
ATOM     42  C3  NAG d1177      13.465 -10.265   9.506  0.00  0.00     0.093 C 
ATOM     43  C7  NAG d1177      11.103 -12.411  11.007  0.00  0.00     0.214 C 
ATOM     44  N2  NAG d1177      12.329 -12.095  10.598  0.00  0.00    -0.349 N 
ATOM     45  C8  NAG d1177      10.790 -13.876  10.989  0.00  0.00    -0.003 C 
ATOM     46  O7  NAG d1177      10.251 -11.591  11.365  0.00  0.00    -0.274 OA
ATOM     47  O6  NAG d1177      15.995  -7.497  12.222  0.00  0.00    -0.398 OA
ATOM     48  C4  NAG d1177      14.315  -9.018   9.696  0.00  0.00     0.089 C 
ATOM     49  O5  NAG d1177      14.870  -9.734  11.925  0.00  0.00    -0.349 OA
ATOM     50  C5  NAG d1177      15.429  -9.293  10.706  0.00  0.00     0.089 C 
ATOM     51  C1  NAG d1177      14.136 -10.943  11.819  0.00  0.00     0.154 C 
ATOM     52  O3  NAG d1177      12.368  -9.932   8.688  0.00  0.00    -0.348 OA
ATOM     53  H   NAG d1177      16.136  -7.344  10.196  0.00  0.00     0.078 H 
ATOM     54  H   NAG d1177      17.333  -8.371  10.964  0.00  0.00     0.078 H 
ATOM     55  H   NAG d1177      14.102  -8.487   7.818  0.00  0.00     0.210 HD
ATOM     56  H   NAG d1177      12.259 -10.139  11.276  0.00  0.00     0.084 H 
ATOM     57  H   NAG d1177      14.061 -11.028   9.050  0.00  0.00     0.091 H 
ATOM     58  H   NAG d1177      12.837 -12.775  10.099  0.00  0.00     0.163 HD
ATOM     59  H   NAG d1177      11.648 -14.420  10.652  0.00  0.00     0.040 H 
ATOM     60  H   NAG d1177       9.970 -14.058  10.326  0.00  0.00     0.040 H 
ATOM     61  H   NAG d1177      10.530 -14.198  11.975  0.00  0.00     0.040 H 
ATOM     62  H   NAG d1177      15.065  -7.222  12.231  0.00  0.00     0.209 HD
ATOM     63  H   NAG d1177      13.731  -8.210  10.085  0.00  0.00     0.091 H 
ATOM     64  H   NAG d1177      16.054 -10.052  10.283  0.00  0.00     0.090 H 
ATOM     65  H   NAG d1177      14.828 -11.674  11.456  0.00  0.00     0.132 H 
ATOM     66  C6  NAG d1175      16.041 -18.189  18.653  0.00  0.00     0.043 C 
ATOM     67  O3  NAG d1175      16.067 -13.393  17.603  0.00  0.00    -0.348 OA
ATOM     68  C2  NAG d1175      16.111 -14.083  19.896  0.00  0.00     0.087 C 
ATOM     69  O6  NAG d1175      15.702 -19.147  19.629  0.00  0.00    -0.398 OA
ATOM     70  O1  NAG d1175      16.490 -15.004  22.106  0.00  0.00    -0.369 OA
ATOM     71  C7  NAG d1175      16.395 -11.950  21.056  0.00  0.00     0.214 C 
ATOM     72  N2  NAG d1175      15.604 -12.821  20.426  0.00  0.00    -0.349 N 
ATOM     73  C5  NAG d1175      15.583 -16.823  19.150  0.00  0.00     0.089 C 
ATOM     74  O5  NAG d1175      16.339 -16.443  20.290  0.00  0.00    -0.349 OA
ATOM     75  C4  NAG d1175      15.692 -15.792  18.024  0.00  0.00     0.089 C 
ATOM     76  O4  NAG d1175      14.727 -16.136  17.046  0.00  0.00    -0.390 OA
ATOM     77  O7  NAG d1175      17.425 -11.488  20.550  0.00  0.00    -0.274 OA
ATOM     78  C1  NAG d1175      15.852 -15.242  20.867  0.00  0.00     0.151 C 
ATOM     79  C8  NAG d1175      15.952 -11.538  22.433  0.00  0.00    -0.003 C 
ATOM     80  C3  NAG d1175      15.503 -14.342  18.507  0.00  0.00     0.093 C 
ATOM     81  H   NAG d1175      17.101 -18.184  18.502  0.00  0.00     0.078 H 
ATOM     82  H   NAG d1175      15.566 -18.423  17.723  0.00  0.00     0.078 H 
ATOM     83  H   NAG d1175      17.174 -14.014  19.787  0.00  0.00     0.084 H 
ATOM     84  H   NAG d1175      16.139 -18.924  20.466  0.00  0.00     0.209 HD
ATOM     85  H   NAG d1175      16.150 -14.181  22.492  0.00  0.00     0.212 HD
ATOM     86  H   NAG d1175      14.650 -12.606  20.316  0.00  0.00     0.163 HD
ATOM     87  H   NAG d1175      14.556 -16.876  19.444  0.00  0.00     0.090 H 
ATOM     88  H   NAG d1175      16.682 -15.819  17.619  0.00  0.00     0.091 H 
ATOM     89  H   NAG d1175      13.841 -16.103  17.440  0.00  0.00     0.210 HD
ATOM     90  H   NAG d1175      14.800 -15.327  21.046  0.00  0.00     0.132 H 
ATOM     91  H   NAG d1175      15.045 -12.047  22.684  0.00  0.00     0.040 H 
ATOM     92  H   NAG d1175      15.785 -10.482  22.453  0.00  0.00     0.040 H 
ATOM     93  H   NAG d1175      16.711 -11.793  23.143  0.00  0.00     0.040 H 
ATOM     94  H   NAG d1175      14.441 -14.216  18.559  0.00  0.00     0.091 H 
ATOM     95  C4  NAG d1181      15.931 -18.807  -7.527  0.00  0.00     0.089 C 
ATOM     96  C3  NAG d1181      15.945 -17.359  -8.026  0.00  0.00     0.086 C 
ATOM     97  C6  NAG d1181      15.165 -20.394  -5.711  0.00  0.00     0.043 C 
ATOM     98  C5  NAG d1181      14.985 -19.008  -6.334  0.00  0.00     0.089 C 
ATOM     99  C7  NAG d1181      16.871 -14.132  -7.289  0.00  0.00     0.214 C 
ATOM    100  C8  NAG d1181      17.425 -13.732  -5.949  0.00  0.00    -0.003 C 
ATOM    101  N2  NAG d1181      15.866 -15.008  -7.291  0.00  0.00    -0.349 N 
ATOM    102  O3  NAG d1181      17.025 -17.156  -8.926  0.00  0.00    -0.391 OA
ATOM    103  C1  NAG d1181      15.036 -16.712  -5.758  0.00  0.00     0.154 C 
ATOM    104  O6  NAG d1181      14.030 -20.731  -4.941  0.00  0.00    -0.398 OA
ATOM    105  O5  NAG d1181      15.215 -18.039  -5.326  0.00  0.00    -0.349 OA
ATOM    106  O7  NAG d1181      17.337 -13.668  -8.333  0.00  0.00    -0.274 OA
ATOM    107  O4  NAG d1181      15.547 -19.658  -8.583  0.00  0.00    -0.390 OA
ATOM    108  C2  NAG d1181      16.051 -16.383  -6.851  0.00  0.00     0.087 C 
ATOM    109  H   NAG d1181      16.920 -19.043  -7.192  0.00  0.00     0.091 H 
ATOM    110  H   NAG d1181      15.026 -17.174  -8.541  0.00  0.00     0.090 H 
ATOM    111  H   NAG d1181      16.031 -20.391  -5.083  0.00  0.00     0.078 H 
ATOM    112  H   NAG d1181      15.286 -21.117  -6.492  0.00  0.00     0.078 H 
ATOM    113  H   NAG d1181      13.990 -18.907  -6.715  0.00  0.00     0.090 H 
ATOM    114  H   NAG d1181      16.890 -14.241  -5.175  0.00  0.00     0.040 H 
ATOM    115  H   NAG d1181      17.318 -12.675  -5.821  0.00  0.00     0.040 H 
ATOM    116  H   NAG d1181      18.461 -13.995  -5.898  0.00  0.00     0.040 H 
ATOM    117  H   NAG d1181      14.976 -14.717  -7.596  0.00  0.00     0.163 HD
ATOM    118  H   NAG d1181      17.864 -17.321  -8.467  0.00  0.00     0.210 HD
ATOM    119  H   NAG d1181      14.034 -16.628  -6.124  0.00  0.00     0.132 H 
ATOM    120  H   NAG d1181      13.916 -20.079  -4.232  0.00  0.00     0.209 HD
ATOM    121  H   NAG d1181      14.650 -19.429  -8.873  0.00  0.00     0.210 HD
ATOM    122  H   NAG d1181      17.035 -16.489  -6.446  0.00  0.00     0.084 H 
ATOM    123  C7  NAG d1179      13.779 -14.744   2.818  0.00  0.00     0.214 C 
ATOM    124  C1  NAG d1179      11.822 -11.945   2.425  0.00  0.00     0.154 C 
ATOM    125  C2  NAG d1179      12.233 -13.235   1.727  0.00  0.00     0.087 C 
ATOM    126  O5  NAG d1179      10.555 -11.530   1.963  0.00  0.00    -0.349 OA
ATOM    127  O7  NAG d1179      13.082 -15.748   2.692  0.00  0.00    -0.274 OA
ATOM    128  O4  NAG d1179      10.692 -12.405  -1.581  0.00  0.00    -0.390 OA
ATOM    129  N2  NAG d1179      13.577 -13.627   2.121  0.00  0.00    -0.349 N 
ATOM    130  C8  NAG d1179      14.916 -14.751   3.794  0.00  0.00    -0.003 C 
ATOM    131  O3  NAG d1179      12.183 -14.513  -0.287  0.00  0.00    -0.348 OA
ATOM    132  C4  NAG d1179      10.743 -12.600  -0.183  0.00  0.00     0.089 C 
ATOM    133  C5  NAG d1179      10.515 -11.286   0.568  0.00  0.00     0.089 C 
ATOM    134  O6  NAG d1179       8.103 -11.517   0.479  0.00  0.00    -0.398 OA
ATOM    135  C3  NAG d1179      12.094 -13.190   0.207  0.00  0.00     0.093 C 
ATOM    136  C6  NAG d1179       9.178 -10.635   0.212  0.00  0.00     0.043 C 
ATOM    137  H   NAG d1179      12.482 -11.126   2.228  0.00  0.00     0.132 H 
ATOM    138  H   NAG d1179      11.539 -13.982   2.054  0.00  0.00     0.084 H 
ATOM    139  H   NAG d1179      10.840 -13.252  -2.030  0.00  0.00     0.210 HD
ATOM    140  H   NAG d1179      14.343 -13.062   1.871  0.00  0.00     0.163 HD
ATOM    141  H   NAG d1179      15.410 -13.803   3.774  0.00  0.00     0.040 H 
ATOM    142  H   NAG d1179      15.610 -15.521   3.527  0.00  0.00     0.040 H 
ATOM    143  H   NAG d1179      14.540 -14.936   4.778  0.00  0.00     0.040 H 
ATOM    144  H   NAG d1179       9.963 -13.279   0.089  0.00  0.00     0.091 H 
ATOM    145  H   NAG d1179      11.292 -10.610   0.276  0.00  0.00     0.090 H 
ATOM    146  H   NAG d1179       7.265 -11.086   0.248  0.00  0.00     0.209 HD
ATOM    147  H   NAG d1179      12.869 -12.579  -0.206  0.00  0.00     0.091 H 
ATOM    148  H   NAG d1179       9.175 -10.384  -0.828  0.00  0.00     0.078 H 
ATOM    149  H   NAG d1179       9.056  -9.754   0.808  0.00  0.00     0.078 H 
ATOM    150  C6  BDP d1180      13.450 -13.464  -4.719  0.00  0.00     0.206 C 
ATOM    151  O3  BDP d1180      14.374 -17.897  -2.744  0.00  0.00    -0.390 OA
ATOM    152  C1  BDP d1180      13.227 -14.667  -1.260  0.00  0.00     0.160 C 
ATOM    153  O2  BDP d1180      14.442 -16.367  -0.134  0.00  0.00    -0.388 OA
ATOM    154  C3  BDP d1180      14.515 -16.510  -2.515  0.00  0.00     0.092 C 
ATOM    155  O4  BDP d1180      15.230 -15.777  -4.683  0.00  0.00    -0.348 OA
ATOM    156  O5  BDP d1180      12.779 -14.251  -2.531  0.00  0.00    -0.340 OA
ATOM    157  C5  BDP d1180      13.823 -14.285  -3.483  0.00  0.00     0.152 C 
ATOM    158  O6B BDP d1180      12.349 -13.695  -5.276  0.00  0.00    -0.646 OA
ATOM    159  O6A BDP d1180      14.265 -12.590  -5.099  0.00  0.00    -0.646 OA
ATOM    160  C2  BDP d1180      13.670 -16.129  -1.292  0.00  0.00     0.110 C 
ATOM    161  C4  BDP d1180      14.140 -15.747  -3.789  0.00  0.00     0.103 C 
ATOM    162  H   BDP d1180      14.610 -18.383  -1.938  0.00  0.00     0.210 HD
ATOM    163  H   BDP d1180      14.061 -14.053  -0.990  0.00  0.00     0.133 H 
ATOM    164  H   BDP d1180      13.926 -16.132   0.653  0.00  0.00     0.210 HD
ATOM    165  H   BDP d1180      15.527 -16.243  -2.292  0.00  0.00     0.091 H 
ATOM    166  H   BDP d1180      14.712 -13.831  -3.098  0.00  0.00     0.104 H 
ATOM    167  H   BDP d1180      12.782 -16.724  -1.339  0.00  0.00     0.094 H 
ATOM    168  H   BDP d1180      13.276 -16.215  -4.214  0.00  0.00     0.092 H 
ENDROOT
TORSDOF 43
ENDMDL
MODEL 76
REMARK VINA RESULT:      -5.0      4.180     19.218
REMARK  0 active torsions:
REMARK  status: ('A' for Active; 'I' for Inactive)
REMARK       I    between atoms: C1_1  and  O3_15 
REMARK       I    between atoms: C1_2  and  O3_93 
REMARK       I    between atoms: C6_3  and  C5_89 
REMARK       I    between atoms: C6_3  and  O6_76 
REMARK       I    between atoms: O3_4  and  C3_22 
REMARK       I    between atoms: C6_5  and  C5_48 
REMARK       I    between atoms: C6_5  and  O6_31 
REMARK       I    between atoms: C4_6  and  O4_74 
REMARK       I    between atoms: C7_7  and  C8_62 
REMARK       I    between atoms: C7_7  and  N2_60 
REMARK       I    between atoms: C6_8  and  C5_52 
REMARK       I    between atoms: C3_9  and  O3_38 
REMARK       I    between atoms: C1_10  and  O4_75 
REMARK       I    between atoms: C6_12  and  C5_51 
REMARK       I    between atoms: O3_13  and  C3_42 
REMARK       I    between atoms: O4_14  and  C4_84 
REMARK       I    between atoms: O3_15  and  C3_86 
REMARK       I    between atoms: C6_16  and  C5_23 
REMARK       I    between atoms: C6_16  and  O6_58 
REMARK       I    between atoms: C1_17  and  O3_63 
REMARK       I    between atoms: C2_18  and  N2_60 
REMARK       I    between atoms: C2_19  and  N2_53 
REMARK       I    between atoms: O2_20  and  C2_66 
REMARK       I    between atoms: C3_25  and  O3_93 
REMARK       I    between atoms: C7_26  and  C8_32 
REMARK       I    between atoms: C7_26  and  N2_37 
REMARK       I    between atoms: C2_28  and  N2_44 
REMARK       I    between atoms: C7_29  and  C8_54 
REMARK       I    between atoms: C7_29  and  N2_53 
REMARK       I    between atoms: O1_33  and  C1_80 
REMARK       I    between atoms: O4_34  and  C4_40 
REMARK       I    between atoms: O4_34  and  C1_92 
REMARK       I    between atoms: C7_36  and  C8_81 
REMARK       I    between atoms: C7_36  and  N2_44 
REMARK       I    between atoms: N2_37  and  C2_83 
REMARK       I    between atoms: O3_39  and  C3_61 
REMARK       I    between atoms: C1_41  and  O4_46 
REMARK       I    between atoms: O2_43  and  C2_73 
REMARK       I    between atoms: C6_45  and  C5_87 
REMARK       I    between atoms: O4_46  and  C4_67 
REMARK       I    between atoms: C4_50  and  O4_65 
REMARK       I    between atoms: C2_55  and  O2_82 
REMARK       I    between atoms: O4_57  and  C4_71 
REMARK       I    between atoms: O3_63  and  C3_85 
REMARK       I    between atoms: O4_75  and  C4_91 
REMARK       I    between atoms: C5_77  and  C6_90 
REMARK       I    between atoms: O6_79  and  C6_90 
ROOT
ATOM      1  C1  BDP d1176      14.938 -16.648  -0.945  0.00  0.00     0.160 C 
ATOM      2  O3  BDP d1176      16.120 -13.311   0.336  0.00  0.00    -0.390 OA
ATOM      3  O5  BDP d1176      14.077 -16.747   0.154  0.00  0.00    -0.340 OA
ATOM      4  O6A BDP d1176      12.620 -16.445   2.419  0.00  0.00    -0.646 OA
ATOM      5  C3  BDP d1176      16.035 -14.721   0.377  0.00  0.00     0.092 C 
ATOM      6  O4  BDP d1176      15.917 -15.013   2.744  0.00  0.00    -0.348 OA
ATOM      7  C4  BDP d1176      15.162 -15.134   1.553  0.00  0.00     0.103 C 
ATOM      8  C6  BDP d1176      13.734 -17.002   2.451  0.00  0.00     0.206 C 
ATOM      9  C2  BDP d1176      15.579 -15.255  -0.979  0.00  0.00     0.110 C 
ATOM     10  O6B BDP d1176      14.097 -17.868   3.274  0.00  0.00    -0.646 OA
ATOM     11  O2  BDP d1176      16.734 -15.312  -1.779  0.00  0.00    -0.388 OA
ATOM     12  C5  BDP d1176      14.722 -16.582   1.383  0.00  0.00     0.152 C 
ATOM     13  H   BDP d1176      15.724 -17.369  -0.874  0.00  0.00     0.133 H 
ATOM     14  H   BDP d1176      16.676 -13.043  -0.413  0.00  0.00     0.210 HD
ATOM     15  H   BDP d1176      16.993 -15.165   0.548  0.00  0.00     0.091 H 
ATOM     16  H   BDP d1176      14.297 -14.506   1.599  0.00  0.00     0.092 H 
ATOM     17  H   BDP d1176      14.815 -14.603  -1.349  0.00  0.00     0.094 H 
ATOM     18  H   BDP d1176      17.375 -15.919  -1.378  0.00  0.00     0.210 HD
ATOM     19  H   BDP d1176      15.608 -17.178   1.451  0.00  0.00     0.104 H 
ATOM     20  C1  BDP d1178      15.675 -13.036   8.193  0.00  0.00     0.160 C 
ATOM     21  C6  BDP d1178      13.403 -10.695   9.996  0.00  0.00     0.206 C 
ATOM     22  O6B BDP d1178      12.242 -10.810  10.457  0.00  0.00    -0.646 OA
ATOM     23  O6A BDP d1178      13.997  -9.600   9.836  0.00  0.00    -0.646 OA
ATOM     24  O3  BDP d1178      16.584 -13.955  11.690  0.00  0.00    -0.390 OA
ATOM     25  O2  BDP d1178      17.388 -14.496   9.058  0.00  0.00    -0.388 OA
ATOM     26  C5  BDP d1178      14.117 -12.000   9.639  0.00  0.00     0.152 C 
ATOM     27  C3  BDP d1178      15.763 -13.678  10.578  0.00  0.00     0.092 C 
ATOM     28  C2  BDP d1178      16.597 -13.374   9.359  0.00  0.00     0.110 C 
ATOM     29  O4  BDP d1178      13.890 -12.978  11.775  0.00  0.00    -0.348 OA
ATOM     30  O5  BDP d1178      14.960 -11.860   8.501  0.00  0.00    -0.340 OA
ATOM     31  C4  BDP d1178      14.851 -12.500  10.878  0.00  0.00     0.103 C 
ATOM     32  H   BDP d1178      14.942 -13.794   8.010  0.00  0.00     0.133 H 
ATOM     33  H   BDP d1178      17.161 -14.708  11.486  0.00  0.00     0.210 HD
ATOM     34  H   BDP d1178      17.928 -14.310   8.275  0.00  0.00     0.210 HD
ATOM     35  H   BDP d1178      13.399 -12.738   9.347  0.00  0.00     0.104 H 
ATOM     36  H   BDP d1178      15.167 -14.544  10.380  0.00  0.00     0.091 H 
ATOM     37  H   BDP d1178      17.238 -12.537   9.544  0.00  0.00     0.094 H 
ATOM     38  H   BDP d1178      15.436 -11.689  11.259  0.00  0.00     0.092 H 
ATOM     39  C6  NAG d1177      15.763 -10.260   2.952  0.00  0.00     0.043 C 
ATOM     40  O4  NAG d1177      15.638 -10.503   5.927  0.00  0.00    -0.390 OA
ATOM     41  C2  NAG d1177      16.103 -14.075   4.952  0.00  0.00     0.087 C 
ATOM     42  C3  NAG d1177      15.763 -12.869   5.818  0.00  0.00     0.093 C 
ATOM     43  C7  NAG d1177      16.313 -16.352   5.870  0.00  0.00     0.214 C 
ATOM     44  N2  NAG d1177      15.587 -15.268   5.608  0.00  0.00    -0.349 N 
ATOM     45  C8  NAG d1177      15.517 -17.580   6.195  0.00  0.00    -0.003 C 
ATOM     46  O7  NAG d1177      17.548 -16.385   5.875  0.00  0.00    -0.274 OA
ATOM     47  O6  NAG d1177      16.719 -10.526   1.942  0.00  0.00    -0.398 OA
ATOM     48  C4  NAG d1177      16.097 -11.564   5.111  0.00  0.00     0.089 C 
ATOM     49  O5  NAG d1177      15.865 -12.658   2.980  0.00  0.00    -0.349 OA
ATOM     50  C5  NAG d1177      15.444 -11.537   3.729  0.00  0.00     0.089 C 
ATOM     51  C1  NAG d1177      15.503 -13.903   3.555  0.00  0.00     0.154 C 
ATOM     52  O3  NAG d1177      16.498 -12.921   7.019  0.00  0.00    -0.348 OA
ATOM     53  H   NAG d1177      16.155  -9.527   3.624  0.00  0.00     0.078 H 
ATOM     54  H   NAG d1177      14.866  -9.898   2.495  0.00  0.00     0.078 H 
ATOM     55  H   NAG d1177      16.071 -10.551   6.793  0.00  0.00     0.210 HD
ATOM     56  H   NAG d1177      17.163 -14.167   4.837  0.00  0.00     0.084 H 
ATOM     57  H   NAG d1177      14.712 -12.901   6.015  0.00  0.00     0.091 H 
ATOM     58  H   NAG d1177      14.640 -15.273   5.874  0.00  0.00     0.163 HD
ATOM     59  H   NAG d1177      14.473 -17.354   6.139  0.00  0.00     0.040 H 
ATOM     60  H   NAG d1177      15.758 -17.910   7.185  0.00  0.00     0.040 H 
ATOM     61  H   NAG d1177      15.752 -18.354   5.494  0.00  0.00     0.040 H 
ATOM     62  H   NAG d1177      17.536 -10.856   2.347  0.00  0.00     0.209 HD
ATOM     63  H   NAG d1177      17.152 -11.466   4.962  0.00  0.00     0.091 H 
ATOM     64  H   NAG d1177      14.386 -11.563   3.882  0.00  0.00     0.090 H 
ATOM     65  H   NAG d1177      14.436 -13.895   3.622  0.00  0.00     0.132 H 
ATOM     66  C6  NAG d1175      11.205 -20.789  -2.524  0.00  0.00     0.043 C 
ATOM     67  O3  NAG d1175      14.167 -16.891  -2.143  0.00  0.00    -0.348 OA
ATOM     68  C2  NAG d1175      14.315 -18.280  -4.089  0.00  0.00     0.087 C 
ATOM     69  O6  NAG d1175      11.055 -22.062  -3.109  0.00  0.00    -0.398 OA
ATOM     70  O1  NAG d1175      14.057 -19.614  -6.097  0.00  0.00    -0.369 OA
ATOM     71  C7  NAG d1175      15.910 -17.043  -5.468  0.00  0.00     0.214 C 
ATOM     72  N2  NAG d1175      15.668 -17.867  -4.447  0.00  0.00    -0.349 N 
ATOM     73  C5  NAG d1175      12.587 -20.260  -2.887  0.00  0.00     0.089 C 
ATOM     74  O5  NAG d1175      12.661 -20.013  -4.284  0.00  0.00    -0.349 OA
ATOM     75  C4  NAG d1175      12.900 -19.004  -2.070  0.00  0.00     0.089 C 
ATOM     76  O4  NAG d1175      13.038 -19.407  -0.720  0.00  0.00    -0.390 OA
ATOM     77  O7  NAG d1175      15.388 -15.925  -5.568  0.00  0.00    -0.274 OA
ATOM     78  C1  NAG d1175      13.973 -19.652  -4.686  0.00  0.00     0.151 C 
ATOM     79  C8  NAG d1175      16.878 -17.545  -6.503  0.00  0.00    -0.003 C 
ATOM     80  C3  NAG d1175      14.155 -18.256  -2.559  0.00  0.00     0.093 C 
ATOM     81  H   NAG d1175      10.453 -20.126  -2.899  0.00  0.00     0.078 H 
ATOM     82  H   NAG d1175      11.102 -20.855  -1.461  0.00  0.00     0.078 H 
ATOM     83  H   NAG d1175      13.616 -17.587  -4.509  0.00  0.00     0.084 H 
ATOM     84  H   NAG d1175      11.151 -21.988  -4.072  0.00  0.00     0.209 HD
ATOM     85  H   NAG d1175      14.956 -19.366  -6.361  0.00  0.00     0.212 HD
ATOM     86  H   NAG d1175      16.426 -18.207  -3.918  0.00  0.00     0.163 HD
ATOM     87  H   NAG d1175      13.327 -20.995  -2.648  0.00  0.00     0.090 H 
ATOM     88  H   NAG d1175      12.100 -18.303  -2.186  0.00  0.00     0.091 H 
ATOM     89  H   NAG d1175      13.769 -20.040  -0.644  0.00  0.00     0.210 HD
ATOM     90  H   NAG d1175      14.674 -20.379  -4.330  0.00  0.00     0.132 H 
ATOM     91  H   NAG d1175      17.213 -18.525  -6.232  0.00  0.00     0.040 H 
ATOM     92  H   NAG d1175      17.718 -16.885  -6.555  0.00  0.00     0.040 H 
ATOM     93  H   NAG d1175      16.394 -17.584  -7.456  0.00  0.00     0.040 H 
ATOM     94  H   NAG d1175      14.970 -18.785  -2.111  0.00  0.00     0.091 H 
ATOM     95  C4  NAG d1181       3.447 -10.843  20.426  0.00  0.00     0.089 C 
ATOM     96  C3  NAG d1181       4.286  -9.590  20.696  0.00  0.00     0.086 C 
ATOM     97  C6  NAG d1181       3.392 -13.148  19.381  0.00  0.00     0.043 C 
ATOM     98  C5  NAG d1181       4.284 -11.999  19.859  0.00  0.00     0.089 C 
ATOM     99  C7  NAG d1181       6.075  -7.032  19.261  0.00  0.00     0.214 C 
ATOM    100  C8  NAG d1181       6.355  -6.965  17.784  0.00  0.00    -0.003 C 
ATOM    101  N2  NAG d1181       6.153  -8.231  19.837  0.00  0.00    -0.349 N 
ATOM    102  O3  NAG d1181       3.443  -8.475  20.944  0.00  0.00    -0.391 OA
ATOM    103  C1  NAG d1181       5.982 -10.543  19.082  0.00  0.00     0.154 C 
ATOM    104  O6  NAG d1181       4.145 -14.339  19.287  0.00  0.00    -0.398 OA
ATOM    105  O5  NAG d1181       5.076 -11.572  18.764  0.00  0.00    -0.349 OA
ATOM    106  O7  NAG d1181       5.783  -6.016  19.898  0.00  0.00    -0.274 OA
ATOM    107  O4  NAG d1181       2.826 -11.254  21.623  0.00  0.00    -0.390 OA
ATOM    108  C2  NAG d1181       5.214  -9.296  19.515  0.00  0.00     0.087 C 
ATOM    109  H   NAG d1181       2.715 -10.590  19.688  0.00  0.00     0.091 H 
ATOM    110  H   NAG d1181       4.885  -9.770  21.564  0.00  0.00     0.090 H 
ATOM    111  H   NAG d1181       2.990 -12.907  18.419  0.00  0.00     0.078 H 
ATOM    112  H   NAG d1181       2.597 -13.290  20.082  0.00  0.00     0.078 H 
ATOM    113  H   NAG d1181       4.916 -12.337  20.655  0.00  0.00     0.090 H 
ATOM    114  H   NAG d1181       6.586  -7.944  17.420  0.00  0.00     0.040 H 
ATOM    115  H   NAG d1181       7.185  -6.313  17.608  0.00  0.00     0.040 H 
ATOM    116  H   NAG d1181       5.492  -6.590  17.274  0.00  0.00     0.040 H 
ATOM    117  H   NAG d1181       6.864  -8.402  20.496  0.00  0.00     0.163 HD
ATOM    118  H   NAG d1181       2.894  -8.304  20.162  0.00  0.00     0.210 HD
ATOM    119  H   NAG d1181       6.610 -10.902  19.870  0.00  0.00     0.132 H 
ATOM    120  H   NAG d1181       4.867 -14.216  18.652  0.00  0.00     0.209 HD
ATOM    121  H   NAG d1181       3.504 -11.479  22.278  0.00  0.00     0.210 HD
ATOM    122  H   NAG d1181       4.593  -8.978  18.703  0.00  0.00     0.084 H 
ATOM    123  C7  NAG d1179      10.600 -13.255  11.988  0.00  0.00     0.214 C 
ATOM    124  C1  NAG d1179      13.718 -12.183  12.960  0.00  0.00     0.154 C 
ATOM    125  C2  NAG d1179      12.362 -12.604  13.514  0.00  0.00     0.087 C 
ATOM    126  O5  NAG d1179      14.724 -12.414  13.923  0.00  0.00    -0.349 OA
ATOM    127  O7  NAG d1179      10.347 -14.324  12.541  0.00  0.00    -0.274 OA
ATOM    128  O4  NAG d1179      13.031 -11.554  17.043  0.00  0.00    -0.390 OA
ATOM    129  N2  NAG d1179      11.302 -12.285  12.571  0.00  0.00    -0.349 N 
ATOM    130  C8  NAG d1179      10.105 -13.009  10.596  0.00  0.00    -0.003 C 
ATOM    131  O3  NAG d1179      10.953 -12.751  15.433  0.00  0.00    -0.348 OA
ATOM    132  C4  NAG d1179      13.259 -12.224  15.820  0.00  0.00     0.089 C 
ATOM    133  C5  NAG d1179      14.523 -11.704  15.132  0.00  0.00     0.089 C 
ATOM    134  O6  NAG d1179      15.963 -13.198  16.385  0.00  0.00    -0.398 OA
ATOM    135  C3  NAG d1179      12.056 -12.042  14.900  0.00  0.00     0.093 C 
ATOM    136  C6  NAG d1179      15.767 -11.847  16.009  0.00  0.00     0.043 C 
ATOM    137  H   NAG d1179      13.777 -11.140  12.728  0.00  0.00     0.132 H 
ATOM    138  H   NAG d1179      12.412 -13.666  13.641  0.00  0.00     0.084 H 
ATOM    139  H   NAG d1179      12.225 -11.903  17.457  0.00  0.00     0.210 HD
ATOM    140  H   NAG d1179      11.101 -11.344  12.362  0.00  0.00     0.163 HD
ATOM    141  H   NAG d1179      10.415 -12.036  10.275  0.00  0.00     0.040 H 
ATOM    142  H   NAG d1179       9.037 -13.066  10.581  0.00  0.00     0.040 H 
ATOM    143  H   NAG d1179      10.511 -13.747   9.937  0.00  0.00     0.040 H 
ATOM    144  H   NAG d1179      13.397 -13.264  16.030  0.00  0.00     0.091 H 
ATOM    145  H   NAG d1179      14.378 -10.660  14.942  0.00  0.00     0.090 H 
ATOM    146  H   NAG d1179      16.756 -13.267  16.939  0.00  0.00     0.209 HD
ATOM    147  H   NAG d1179      11.835 -10.999  14.824  0.00  0.00     0.091 H 
ATOM    148  H   NAG d1179      15.645 -11.252  16.890  0.00  0.00     0.078 H 
ATOM    149  H   NAG d1179      16.619 -11.517  15.452  0.00  0.00     0.078 H 
ATOM    150  C6  BDP d1180       9.562  -9.508  18.579  0.00  0.00     0.206 C 
ATOM    151  O3  BDP d1180       6.471 -12.976  16.899  0.00  0.00    -0.390 OA
ATOM    152  C1  BDP d1180       9.870 -11.884  15.800  0.00  0.00     0.160 C 
ATOM    153  O2  BDP d1180       8.209 -12.875  14.423  0.00  0.00    -0.388 OA
ATOM    154  C3  BDP d1180       7.389 -11.986  16.480  0.00  0.00     0.092 C 
ATOM    155  O4  BDP d1180       6.794 -10.187  17.951  0.00  0.00    -0.348 OA
ATOM    156  O5  BDP d1180      10.095 -11.328  17.077  0.00  0.00    -0.340 OA
ATOM    157  C5  BDP d1180       9.100 -10.384  17.412  0.00  0.00     0.152 C 
ATOM    158  O6B BDP d1180       9.987 -10.074  19.615  0.00  0.00    -0.646 OA
ATOM    159  O6A BDP d1180       9.502  -8.264  18.426  0.00  0.00    -0.646 OA
ATOM    160  C2  BDP d1180       8.564 -12.677  15.776  0.00  0.00     0.110 C 
ATOM    161  C4  BDP d1180       7.801 -11.138  17.688  0.00  0.00     0.103 C 
ATOM    162  H   BDP d1180       6.208 -13.516  16.136  0.00  0.00     0.210 HD
ATOM    163  H   BDP d1180       9.804 -11.077  15.100  0.00  0.00     0.133 H 
ATOM    164  H   BDP d1180       8.939 -13.311  13.958  0.00  0.00     0.210 HD
ATOM    165  H   BDP d1180       6.953 -11.311  15.774  0.00  0.00     0.091 H 
ATOM    166  H   BDP d1180       8.921  -9.707  16.603  0.00  0.00     0.104 H 
ATOM    167  H   BDP d1180       8.742 -13.589  16.306  0.00  0.00     0.094 H 
ATOM    168  H   BDP d1180       7.943 -11.795  18.521  0.00  0.00     0.092 H 
ENDROOT
TORSDOF 43
ENDMDL
MODEL 77
REMARK VINA RESULT:      -5.0      3.348     19.427
REMARK  0 active torsions:
REMARK  status: ('A' for Active; 'I' for Inactive)
REMARK       I    between atoms: C1_1  and  O3_15 
REMARK       I    between atoms: C1_2  and  O3_93 
REMARK       I    between atoms: C6_3  and  C5_89 
REMARK       I    between atoms: C6_3  and  O6_76 
REMARK       I    between atoms: O3_4  and  C3_22 
REMARK       I    between atoms: C6_5  and  C5_48 
REMARK       I    between atoms: C6_5  and  O6_31 
REMARK       I    between atoms: C4_6  and  O4_74 
REMARK       I    between atoms: C7_7  and  C8_62 
REMARK       I    between atoms: C7_7  and  N2_60 
REMARK       I    between atoms: C6_8  and  C5_52 
REMARK       I    between atoms: C3_9  and  O3_38 
REMARK       I    between atoms: C1_10  and  O4_75 
REMARK       I    between atoms: C6_12  and  C5_51 
REMARK       I    between atoms: O3_13  and  C3_42 
REMARK       I    between atoms: O4_14  and  C4_84 
REMARK       I    between atoms: O3_15  and  C3_86 
REMARK       I    between atoms: C6_16  and  C5_23 
REMARK       I    between atoms: C6_16  and  O6_58 
REMARK       I    between atoms: C1_17  and  O3_63 
REMARK       I    between atoms: C2_18  and  N2_60 
REMARK       I    between atoms: C2_19  and  N2_53 
REMARK       I    between atoms: O2_20  and  C2_66 
REMARK       I    between atoms: C3_25  and  O3_93 
REMARK       I    between atoms: C7_26  and  C8_32 
REMARK       I    between atoms: C7_26  and  N2_37 
REMARK       I    between atoms: C2_28  and  N2_44 
REMARK       I    between atoms: C7_29  and  C8_54 
REMARK       I    between atoms: C7_29  and  N2_53 
REMARK       I    between atoms: O1_33  and  C1_80 
REMARK       I    between atoms: O4_34  and  C4_40 
REMARK       I    between atoms: O4_34  and  C1_92 
REMARK       I    between atoms: C7_36  and  C8_81 
REMARK       I    between atoms: C7_36  and  N2_44 
REMARK       I    between atoms: N2_37  and  C2_83 
REMARK       I    between atoms: O3_39  and  C3_61 
REMARK       I    between atoms: C1_41  and  O4_46 
REMARK       I    between atoms: O2_43  and  C2_73 
REMARK       I    between atoms: C6_45  and  C5_87 
REMARK       I    between atoms: O4_46  and  C4_67 
REMARK       I    between atoms: C4_50  and  O4_65 
REMARK       I    between atoms: C2_55  and  O2_82 
REMARK       I    between atoms: O4_57  and  C4_71 
REMARK       I    between atoms: O3_63  and  C3_85 
REMARK       I    between atoms: O4_75  and  C4_91 
REMARK       I    between atoms: C5_77  and  C6_90 
REMARK       I    between atoms: O6_79  and  C6_90 
ROOT
ATOM      1  C1  BDP d1176      14.528 -12.312   0.566  0.00  0.00     0.160 C 
ATOM      2  O3  BDP d1176      15.772  -9.905   3.180  0.00  0.00    -0.390 OA
ATOM      3  O5  BDP d1176      13.541 -12.747   1.459  0.00  0.00    -0.340 OA
ATOM      4  O6A BDP d1176      11.855 -13.213   3.528  0.00  0.00    -0.646 OA
ATOM      5  C3  BDP d1176      15.590 -11.197   2.639  0.00  0.00     0.092 C 
ATOM      6  O4  BDP d1176      15.179 -12.389   4.667  0.00  0.00    -0.348 OA
ATOM      7  C4  BDP d1176      14.562 -11.947   3.473  0.00  0.00     0.103 C 
ATOM      8  C6  BDP d1176      12.919 -13.853   3.419  0.00  0.00     0.206 C 
ATOM      9  C2  BDP d1176      15.259 -11.097   1.152  0.00  0.00     0.110 C 
ATOM     10  O6B BDP d1176      13.127 -15.008   3.847  0.00  0.00    -0.646 OA
ATOM     11  O2  BDP d1176      16.494 -10.955   0.491  0.00  0.00    -0.388 OA
ATOM     12  C5  BDP d1176      14.049 -13.153   2.696  0.00  0.00     0.152 C 
ATOM     13  H   BDP d1176      15.252 -13.082   0.401  0.00  0.00     0.133 H 
ATOM     14  H   BDP d1176      16.427  -9.423   2.651  0.00  0.00     0.210 HD
ATOM     15  H   BDP d1176      16.491 -11.773   2.691  0.00  0.00     0.091 H 
ATOM     16  H   BDP d1176      13.740 -11.300   3.701  0.00  0.00     0.092 H 
ATOM     17  H   BDP d1176      14.589 -10.275   1.017  0.00  0.00     0.094 H 
ATOM     18  H   BDP d1176      17.042 -11.737   0.661  0.00  0.00     0.210 HD
ATOM     19  H   BDP d1176      14.880 -13.817   2.587  0.00  0.00     0.104 H 
ATOM     20  C1  BDP d1178      14.439 -12.723  10.411  0.00  0.00     0.160 C 
ATOM     21  C6  BDP d1178      12.133 -11.060  12.821  0.00  0.00     0.206 C 
ATOM     22  O6B BDP d1178      10.921 -11.224  13.103  0.00  0.00    -0.646 OA
ATOM     23  O6A BDP d1178      12.813 -10.062  13.167  0.00  0.00    -0.646 OA
ATOM     24  O3  BDP d1178      14.875 -15.045  13.295  0.00  0.00    -0.390 OA
ATOM     25  O2  BDP d1178      15.940 -14.580  10.743  0.00  0.00    -0.388 OA
ATOM     26  C5  BDP d1178      12.796 -12.185  12.024  0.00  0.00     0.152 C 
ATOM     27  C3  BDP d1178      14.207 -14.263  12.330  0.00  0.00     0.092 C 
ATOM     28  C2  BDP d1178      15.196 -13.592  11.410  0.00  0.00     0.110 C 
ATOM     29  O4  BDP d1178      12.259 -13.900  13.555  0.00  0.00    -0.348 OA
ATOM     30  O5  BDP d1178      13.773 -11.696  11.112  0.00  0.00    -0.340 OA
ATOM     31  C4  BDP d1178      13.347 -13.211  13.008  0.00  0.00     0.103 C 
ATOM     32  H   BDP d1178      13.684 -13.263   9.879  0.00  0.00     0.133 H 
ATOM     33  H   BDP d1178      15.420 -15.712  12.849  0.00  0.00     0.210 HD
ATOM     34  H   BDP d1178      16.579 -14.157  10.148  0.00  0.00     0.210 HD
ATOM     35  H   BDP d1178      12.069 -12.665  11.402  0.00  0.00     0.104 H 
ATOM     36  H   BDP d1178      13.583 -14.911  11.751  0.00  0.00     0.091 H 
ATOM     37  H   BDP d1178      15.864 -12.970  11.968  0.00  0.00     0.094 H 
ATOM     38  H   BDP d1178      13.936 -12.684  13.730  0.00  0.00     0.092 H 
ATOM     39  C6  NAG d1177      15.317  -8.123   6.771  0.00  0.00     0.043 C 
ATOM     40  O4  NAG d1177      14.831  -9.511   9.371  0.00  0.00    -0.390 OA
ATOM     41  C2  NAG d1177      15.170 -12.430   7.072  0.00  0.00     0.087 C 
ATOM     42  C3  NAG d1177      14.813 -11.638   8.323  0.00  0.00     0.093 C 
ATOM     43  C7  NAG d1177      15.122 -14.893   7.002  0.00  0.00     0.214 C 
ATOM     44  N2  NAG d1177      14.504 -13.723   7.145  0.00  0.00    -0.349 N 
ATOM     45  C8  NAG d1177      14.214 -16.056   6.737  0.00  0.00    -0.003 C 
ATOM     46  O7  NAG d1177      16.343 -15.057   7.091  0.00  0.00    -0.274 OA
ATOM     47  O6  NAG d1177      16.364  -8.066   5.819  0.00  0.00    -0.398 OA
ATOM     48  C4  NAG d1177      15.311 -10.203   8.235  0.00  0.00     0.089 C 
ATOM     49  O5  NAG d1177      15.256 -10.331   5.832  0.00  0.00    -0.349 OA
ATOM     50  C5  NAG d1177      14.826  -9.561   6.936  0.00  0.00     0.089 C 
ATOM     51  C1  NAG d1177      14.749 -11.656   5.822  0.00  0.00     0.154 C 
ATOM     52  O3  NAG d1177      15.398 -12.241   9.454  0.00  0.00    -0.348 OA
ATOM     53  H   NAG d1177      15.676  -7.762   7.712  0.00  0.00     0.078 H 
ATOM     54  H   NAG d1177      14.504  -7.515   6.430  0.00  0.00     0.078 H 
ATOM     55  H   NAG d1177      15.158  -9.944  10.175  0.00  0.00     0.210 HD
ATOM     56  H   NAG d1177      16.228 -12.581   7.014  0.00  0.00     0.084 H 
ATOM     57  H   NAG d1177      13.746 -11.633   8.406  0.00  0.00     0.091 H 
ATOM     58  H   NAG d1177      13.534 -13.732   7.310  0.00  0.00     0.163 HD
ATOM     59  H   NAG d1177      13.201 -15.716   6.694  0.00  0.00     0.040 H 
ATOM     60  H   NAG d1177      14.317 -16.775   7.523  0.00  0.00     0.040 H 
ATOM     61  H   NAG d1177      14.478 -16.509   5.803  0.00  0.00     0.040 H 
ATOM     62  H   NAG d1177      17.105  -8.615   6.120  0.00  0.00     0.209 HD
ATOM     63  H   NAG d1177      16.380 -10.168   8.223  0.00  0.00     0.091 H 
ATOM     64  H   NAG d1177      13.758  -9.532   6.980  0.00  0.00     0.090 H 
ATOM     65  H   NAG d1177      13.684 -11.560   5.801  0.00  0.00     0.132 H 
ATOM     66  C6  NAG d1175      10.739 -15.062  -2.847  0.00  0.00     0.043 C 
ATOM     67  O3  NAG d1175      13.888 -11.976  -0.685  0.00  0.00    -0.348 OA
ATOM     68  C2  NAG d1175      14.168 -12.487  -3.008  0.00  0.00     0.087 C 
ATOM     69  O6  NAG d1175      10.575 -15.975  -3.908  0.00  0.00    -0.398 OA
ATOM     70  O1  NAG d1175      14.057 -12.879  -5.398  0.00  0.00    -0.369 OA
ATOM     71  C7  NAG d1175      15.990 -10.982  -3.635  0.00  0.00     0.214 C 
ATOM     72  N2  NAG d1175      15.578 -12.113  -3.058  0.00  0.00    -0.349 N 
ATOM     73  C5  NAG d1175      12.186 -14.583  -2.854  0.00  0.00     0.089 C 
ATOM     74  O5  NAG d1175      12.438 -13.812  -4.019  0.00  0.00    -0.349 OA
ATOM     75  C4  NAG d1175      12.484 -13.796  -1.576  0.00  0.00     0.089 C 
ATOM     76  O4  NAG d1175      12.438 -14.714  -0.498  0.00  0.00    -0.390 OA
ATOM     77  O7  NAG d1175      15.558  -9.868  -3.315  0.00  0.00    -0.274 OA
ATOM     78  C1  NAG d1175      13.808 -13.464  -4.135  0.00  0.00     0.151 C 
ATOM     79  C8  NAG d1175      17.037 -11.134  -4.704  0.00  0.00    -0.003 C 
ATOM     80  C3  NAG d1175      13.834 -13.055  -1.618  0.00  0.00     0.093 C 
ATOM     81  H   NAG d1175      10.081 -14.229  -2.980  0.00  0.00     0.078 H 
ATOM     82  H   NAG d1175      10.510 -15.533  -1.914  0.00  0.00     0.078 H 
ATOM     83  H   NAG d1175      13.570 -11.614  -3.165  0.00  0.00     0.084 H 
ATOM     84  H   NAG d1175      10.786 -15.536  -4.747  0.00  0.00     0.209 HD
ATOM     85  H   NAG d1175      14.995 -12.644  -5.466  0.00  0.00     0.212 HD
ATOM     86  H   NAG d1175      16.245 -12.713  -2.655  0.00  0.00     0.163 HD
ATOM     87  H   NAG d1175      12.843 -15.428  -2.875  0.00  0.00     0.090 H 
ATOM     88  H   NAG d1175      11.751 -13.025  -1.461  0.00  0.00     0.091 H 
ATOM     89  H   NAG d1175      13.112 -15.400  -0.628  0.00  0.00     0.210 HD
ATOM     90  H   NAG d1175      14.413 -14.343  -4.050  0.00  0.00     0.132 H 
ATOM     91  H   NAG d1175      17.272 -12.170  -4.829  0.00  0.00     0.040 H 
ATOM     92  H   NAG d1175      17.919 -10.601  -4.418  0.00  0.00     0.040 H 
ATOM     93  H   NAG d1175      16.665 -10.739  -5.627  0.00  0.00     0.040 H 
ATOM     94  H   NAG d1175      14.555 -13.802  -1.360  0.00  0.00     0.091 H 
ATOM     95  C4  NAG d1181       1.048 -14.267  21.468  0.00  0.00     0.089 C 
ATOM     96  C3  NAG d1181       1.930 -13.322  22.289  0.00  0.00     0.086 C 
ATOM     97  C6  NAG d1181       0.962 -15.948  19.578  0.00  0.00     0.043 C 
ATOM     98  C5  NAG d1181       1.867 -15.186  20.550  0.00  0.00     0.089 C 
ATOM     99  C7  NAG d1181       4.038 -10.611  22.161  0.00  0.00     0.214 C 
ATOM    100  C8  NAG d1181       4.491  -9.994  20.866  0.00  0.00    -0.003 C 
ATOM    101  N2  NAG d1181       3.970 -11.942  22.206  0.00  0.00    -0.349 N 
ATOM    102  O3  NAG d1181       1.139 -12.313  22.900  0.00  0.00    -0.391 OA
ATOM    103  C1  NAG d1181       3.735 -13.731  20.567  0.00  0.00     0.154 C 
ATOM    104  O6  NAG d1181       1.641 -17.077  19.069  0.00  0.00    -0.398 OA
ATOM    105  O5  NAG d1181       2.807 -14.447  19.789  0.00  0.00    -0.349 OA
ATOM    106  O7  NAG d1181       3.742  -9.907  23.130  0.00  0.00    -0.274 OA
ATOM    107  O4  NAG d1181       0.266 -15.050  22.343  0.00  0.00    -0.390 OA
ATOM    108  C2  NAG d1181       3.006 -12.684  21.407  0.00  0.00     0.087 C 
ATOM    109  H   NAG d1181       0.424 -13.665  20.841  0.00  0.00     0.091 H 
ATOM    110  H   NAG d1181       2.412 -13.894  23.054  0.00  0.00     0.090 H 
ATOM    111  H   NAG d1181       0.691 -15.304  18.768  0.00  0.00     0.078 H 
ATOM    112  H   NAG d1181       0.084 -16.270  20.096  0.00  0.00     0.078 H 
ATOM    113  H   NAG d1181       2.378 -15.877  21.188  0.00  0.00     0.090 H 
ATOM    114  H   NAG d1181       4.698 -10.767  20.156  0.00  0.00     0.040 H 
ATOM    115  H   NAG d1181       5.377  -9.419  21.036  0.00  0.00     0.040 H 
ATOM    116  H   NAG d1181       3.720  -9.357  20.485  0.00  0.00     0.040 H 
ATOM    117  H   NAG d1181       4.587 -12.434  22.794  0.00  0.00     0.163 HD
ATOM    118  H   NAG d1181       0.698 -11.788  22.214  0.00  0.00     0.210 HD
ATOM    119  H   NAG d1181       4.243 -14.438  21.189  0.00  0.00     0.132 H 
ATOM    120  H   NAG d1181       2.439 -16.790  18.599  0.00  0.00     0.209 HD
ATOM    121  H   NAG d1181       0.848 -15.587  22.902  0.00  0.00     0.210 HD
ATOM    122  H   NAG d1181       2.506 -12.005  20.747  0.00  0.00     0.084 H 
ATOM    123  C7  NAG d1179       8.955 -13.885  13.375  0.00  0.00     0.214 C 
ATOM    124  C1  NAG d1179      12.003 -13.626  14.942  0.00  0.00     0.154 C 
ATOM    125  C2  NAG d1179      10.568 -14.085  15.168  0.00  0.00     0.087 C 
ATOM    126  O5  NAG d1179      12.873 -14.327  15.805  0.00  0.00    -0.349 OA
ATOM    127  O7  NAG d1179       8.570 -15.051  13.425  0.00  0.00    -0.274 OA
ATOM    128  O4  NAG d1179      10.891 -14.599  18.861  0.00  0.00    -0.390 OA
ATOM    129  N2  NAG d1179       9.647 -13.307  14.355  0.00  0.00    -0.349 N 
ATOM    130  C8  NAG d1179       8.643 -13.055  12.168  0.00  0.00    -0.003 C 
ATOM    131  O3  NAG d1179       8.939 -14.829  16.745  0.00  0.00    -0.348 OA
ATOM    132  C4  NAG d1179      11.215 -14.749  17.494  0.00  0.00     0.089 C 
ATOM    133  C5  NAG d1179      12.581 -14.137  17.179  0.00  0.00     0.089 C 
ATOM    134  O6  NAG d1179      13.765 -16.150  17.828  0.00  0.00    -0.398 OA
ATOM    135  C3  NAG d1179      10.141 -14.090  16.634  0.00  0.00     0.093 C 
ATOM    136  C6  NAG d1179      13.703 -14.748  18.018  0.00  0.00     0.043 C 
ATOM    137  H   NAG d1179      12.158 -12.590  15.159  0.00  0.00     0.132 H 
ATOM    138  H   NAG d1179      10.533 -15.108  14.858  0.00  0.00     0.084 H 
ATOM    139  H   NAG d1179      10.022 -14.994  19.032  0.00  0.00     0.210 HD
ATOM    140  H   NAG d1179       9.534 -12.344  14.530  0.00  0.00     0.163 HD
ATOM    141  H   NAG d1179       9.050 -12.074  12.294  0.00  0.00     0.040 H 
ATOM    142  H   NAG d1179       7.581 -12.987  12.046  0.00  0.00     0.040 H 
ATOM    143  H   NAG d1179       9.072 -13.510  11.301  0.00  0.00     0.040 H 
ATOM    144  H   NAG d1179      11.259 -15.795  17.274  0.00  0.00     0.091 H 
ATOM    145  H   NAG d1179      12.529 -13.095  17.417  0.00  0.00     0.090 H 
ATOM    146  H   NAG d1179      14.482 -16.518  18.368  0.00  0.00     0.209 HD
ATOM    147  H   NAG d1179      10.000 -13.084  16.970  0.00  0.00     0.091 H 
ATOM    148  H   NAG d1179      13.520 -14.542  19.052  0.00  0.00     0.078 H 
ATOM    149  H   NAG d1179      14.634 -14.318  17.712  0.00  0.00     0.078 H 
ATOM    150  C6  BDP d1180       7.410 -12.971  20.813  0.00  0.00     0.206 C 
ATOM    151  O3  BDP d1180       4.313 -15.136  17.632  0.00  0.00    -0.390 OA
ATOM    152  C1  BDP d1180       7.881 -14.068  17.345  0.00  0.00     0.160 C 
ATOM    153  O2  BDP d1180       6.328 -14.248  15.557  0.00  0.00    -0.388 OA
ATOM    154  C3  BDP d1180       5.336 -14.166  17.725  0.00  0.00     0.092 C 
ATOM    155  O4  BDP d1180       4.695 -13.045  19.746  0.00  0.00    -0.348 OA
ATOM    156  O5  BDP d1180       7.993 -14.092  18.750  0.00  0.00    -0.340 OA
ATOM    157  C5  BDP d1180       7.029 -13.258  19.359  0.00  0.00     0.152 C 
ATOM    158  O6B BDP d1180       7.674 -13.944  21.561  0.00  0.00    -0.646 OA
ATOM    159  O6A BDP d1180       7.451 -11.770  21.174  0.00  0.00    -0.646 OA
ATOM    160  C2  BDP d1180       6.537 -14.642  16.896  0.00  0.00     0.110 C 
ATOM    161  C4  BDP d1180       5.661 -13.916  19.201  0.00  0.00     0.103 C 
ATOM    162  H   BDP d1180       4.104 -15.297  16.698  0.00  0.00     0.210 HD
ATOM    163  H   BDP d1180       7.949 -13.048  17.028  0.00  0.00     0.133 H 
ATOM    164  H   BDP d1180       7.078 -14.539  15.014  0.00  0.00     0.210 HD
ATOM    165  H   BDP d1180       5.030 -13.224  17.321  0.00  0.00     0.091 H 
ATOM    166  H   BDP d1180       6.990 -12.301  18.883  0.00  0.00     0.104 H 
ATOM    167  H   BDP d1180       6.592 -15.703  17.024  0.00  0.00     0.094 H 
ATOM    168  H   BDP d1180       5.662 -14.860  19.705  0.00  0.00     0.092 H 
ENDROOT
TORSDOF 43
ENDMDL
MODEL 78
REMARK VINA RESULT:      -4.8      5.288     19.822
REMARK  0 active torsions:
REMARK  status: ('A' for Active; 'I' for Inactive)
REMARK       I    between atoms: C1_1  and  O3_15 
REMARK       I    between atoms: C1_2  and  O3_93 
REMARK       I    between atoms: C6_3  and  C5_89 
REMARK       I    between atoms: C6_3  and  O6_76 
REMARK       I    between atoms: O3_4  and  C3_22 
REMARK       I    between atoms: C6_5  and  C5_48 
REMARK       I    between atoms: C6_5  and  O6_31 
REMARK       I    between atoms: C4_6  and  O4_74 
REMARK       I    between atoms: C7_7  and  C8_62 
REMARK       I    between atoms: C7_7  and  N2_60 
REMARK       I    between atoms: C6_8  and  C5_52 
REMARK       I    between atoms: C3_9  and  O3_38 
REMARK       I    between atoms: C1_10  and  O4_75 
REMARK       I    between atoms: C6_12  and  C5_51 
REMARK       I    between atoms: O3_13  and  C3_42 
REMARK       I    between atoms: O4_14  and  C4_84 
REMARK       I    between atoms: O3_15  and  C3_86 
REMARK       I    between atoms: C6_16  and  C5_23 
REMARK       I    between atoms: C6_16  and  O6_58 
REMARK       I    between atoms: C1_17  and  O3_63 
REMARK       I    between atoms: C2_18  and  N2_60 
REMARK       I    between atoms: C2_19  and  N2_53 
REMARK       I    between atoms: O2_20  and  C2_66 
REMARK       I    between atoms: C3_25  and  O3_93 
REMARK       I    between atoms: C7_26  and  C8_32 
REMARK       I    between atoms: C7_26  and  N2_37 
REMARK       I    between atoms: C2_28  and  N2_44 
REMARK       I    between atoms: C7_29  and  C8_54 
REMARK       I    between atoms: C7_29  and  N2_53 
REMARK       I    between atoms: O1_33  and  C1_80 
REMARK       I    between atoms: O4_34  and  C4_40 
REMARK       I    between atoms: O4_34  and  C1_92 
REMARK       I    between atoms: C7_36  and  C8_81 
REMARK       I    between atoms: C7_36  and  N2_44 
REMARK       I    between atoms: N2_37  and  C2_83 
REMARK       I    between atoms: O3_39  and  C3_61 
REMARK       I    between atoms: C1_41  and  O4_46 
REMARK       I    between atoms: O2_43  and  C2_73 
REMARK       I    between atoms: C6_45  and  C5_87 
REMARK       I    between atoms: O4_46  and  C4_67 
REMARK       I    between atoms: C4_50  and  O4_65 
REMARK       I    between atoms: C2_55  and  O2_82 
REMARK       I    between atoms: O4_57  and  C4_71 
REMARK       I    between atoms: O3_63  and  C3_85 
REMARK       I    between atoms: O4_75  and  C4_91 
REMARK       I    between atoms: C5_77  and  C6_90 
REMARK       I    between atoms: O6_79  and  C6_90 
ROOT
ATOM      1  C1  BDP d1176      12.784 -19.191   1.816  0.00  0.00     0.160 C 
ATOM      2  O3  BDP d1176      15.579 -17.725   3.870  0.00  0.00    -0.390 OA
ATOM      3  O5  BDP d1176      11.876 -18.817   2.814  0.00  0.00    -0.340 OA
ATOM      4  O6A BDP d1176      10.568 -17.891   4.999  0.00  0.00    -0.646 OA
ATOM      5  C3  BDP d1176      14.590 -18.696   3.594  0.00  0.00     0.092 C 
ATOM      6  O4  BDP d1176      13.859 -19.121   5.827  0.00  0.00    -0.348 OA
ATOM      7  C4  BDP d1176      13.455 -18.552   4.596  0.00  0.00     0.103 C 
ATOM      8  C6  BDP d1176      11.017 -19.054   4.973  0.00  0.00     0.206 C 
ATOM      9  C2  BDP d1176      14.168 -18.608   2.129  0.00  0.00     0.110 C 
ATOM     10  O6B BDP d1176      10.562 -20.030   5.604  0.00  0.00    -0.646 OA
ATOM     11  O2  BDP d1176      15.134 -19.331   1.405  0.00  0.00    -0.388 OA
ATOM     12  C5  BDP d1176      12.221 -19.284   4.085  0.00  0.00     0.152 C 
ATOM     13  H   BDP d1176      12.879 -20.255   1.773  0.00  0.00     0.133 H 
ATOM     14  H   BDP d1176      16.306 -17.813   3.233  0.00  0.00     0.210 HD
ATOM     15  H   BDP d1176      14.972 -19.688   3.719  0.00  0.00     0.091 H 
ATOM     16  H   BDP d1176      13.219 -17.516   4.728  0.00  0.00     0.092 H 
ATOM     17  H   BDP d1176      14.103 -17.573   1.867  0.00  0.00     0.094 H 
ATOM     18  H   BDP d1176      15.132 -20.256   1.699  0.00  0.00     0.210 HD
ATOM     19  H   BDP d1176      12.471 -20.325   4.072  0.00  0.00     0.104 H 
ATOM     20  C1  BDP d1178      13.921 -18.195  11.553  0.00  0.00     0.160 C 
ATOM     21  C6  BDP d1178      13.429 -15.181  13.691  0.00  0.00     0.206 C 
ATOM     22  O6B BDP d1178      12.413 -14.537  14.046  0.00  0.00    -0.646 OA
ATOM     23  O6A BDP d1178      14.609 -14.768  13.812  0.00  0.00    -0.646 OA
ATOM     24  O3  BDP d1178      13.318 -19.910  14.808  0.00  0.00    -0.390 OA
ATOM     25  O2  BDP d1178      14.062 -20.520  12.175  0.00  0.00    -0.388 OA
ATOM     26  C5  BDP d1178      13.173 -16.568  13.098  0.00  0.00     0.152 C 
ATOM     27  C3  BDP d1178      13.109 -19.015  13.739  0.00  0.00     0.092 C 
ATOM     28  C2  BDP d1178      14.154 -19.208  12.669  0.00  0.00     0.110 C 
ATOM     29  O4  BDP d1178      11.959 -17.389  14.948  0.00  0.00    -0.348 OA
ATOM     30  O5  BDP d1178      14.102 -16.896  12.071  0.00  0.00    -0.340 OA
ATOM     31  C4  BDP d1178      13.148 -17.581  14.237  0.00  0.00     0.103 C 
ATOM     32  H   BDP d1178      12.924 -18.227  11.165  0.00  0.00     0.133 H 
ATOM     33  H   BDP d1178      13.291 -20.821  14.478  0.00  0.00     0.210 HD
ATOM     34  H   BDP d1178      14.731 -20.654  11.485  0.00  0.00     0.210 HD
ATOM     35  H   BDP d1178      12.221 -16.582  12.608  0.00  0.00     0.104 H 
ATOM     36  H   BDP d1178      12.146 -19.217  13.320  0.00  0.00     0.091 H 
ATOM     37  H   BDP d1178      15.134 -19.056  13.071  0.00  0.00     0.094 H 
ATOM     38  H   BDP d1178      14.033 -17.433  14.821  0.00  0.00     0.092 H 
ATOM     39  C6  NAG d1177      16.800 -15.591   7.069  0.00  0.00     0.043 C 
ATOM     40  O4  NAG d1177      15.977 -16.050   9.904  0.00  0.00    -0.390 OA
ATOM     41  C2  NAG d1177      14.182 -18.838   8.194  0.00  0.00     0.087 C 
ATOM     42  C3  NAG d1177      14.551 -17.840   9.283  0.00  0.00     0.093 C 
ATOM     43  C7  NAG d1177      12.677 -20.748   8.598  0.00  0.00     0.214 C 
ATOM     44  N2  NAG d1177      12.900 -19.438   8.539  0.00  0.00    -0.349 N 
ATOM     45  C8  NAG d1177      11.231 -21.142   8.596  0.00  0.00    -0.003 C 
ATOM     46  O7  NAG d1177      13.562 -21.607   8.668  0.00  0.00    -0.274 OA
ATOM     47  O6  NAG d1177      17.523 -16.305   6.083  0.00  0.00    -0.398 OA
ATOM     48  C4  NAG d1177      15.781 -17.030   8.903  0.00  0.00     0.089 C 
ATOM     49  O5  NAG d1177      15.308 -17.405   6.573  0.00  0.00    -0.349 OA
ATOM     50  C5  NAG d1177      15.585 -16.398   7.525  0.00  0.00     0.089 C 
ATOM     51  C1  NAG d1177      14.121 -18.136   6.837  0.00  0.00     0.154 C 
ATOM     52  O3  NAG d1177      14.825 -18.523  10.485  0.00  0.00    -0.348 OA
ATOM     53  H   NAG d1177      17.436 -15.406   7.908  0.00  0.00     0.078 H 
ATOM     54  H   NAG d1177      16.464 -14.664   6.651  0.00  0.00     0.078 H 
ATOM     55  H   NAG d1177      16.098 -16.485  10.762  0.00  0.00     0.210 HD
ATOM     56  H   NAG d1177      14.922 -19.607   8.124  0.00  0.00     0.084 H 
ATOM     57  H   NAG d1177      13.720 -17.177   9.406  0.00  0.00     0.091 H 
ATOM     58  H   NAG d1177      12.150 -18.833   8.741  0.00  0.00     0.163 HD
ATOM     59  H   NAG d1177      10.622 -20.265   8.530  0.00  0.00     0.040 H 
ATOM     60  H   NAG d1177      11.003 -21.666   9.501  0.00  0.00     0.040 H 
ATOM     61  H   NAG d1177      11.035 -21.776   7.757  0.00  0.00     0.040 H 
ATOM     62  H   NAG d1177      17.831 -17.147   6.454  0.00  0.00     0.209 HD
ATOM     63  H   NAG d1177      16.648 -17.654   8.842  0.00  0.00     0.091 H 
ATOM     64  H   NAG d1177      14.761 -15.721   7.605  0.00  0.00     0.090 H 
ATOM     65  H   NAG d1177      13.330 -17.416   6.840  0.00  0.00     0.132 H 
ATOM     66  C6  NAG d1175       7.651 -19.480  -0.855  0.00  0.00     0.043 C 
ATOM     67  O3  NAG d1175      12.291 -18.698   0.551  0.00  0.00    -0.348 OA
ATOM     68  C2  NAG d1175      11.869 -19.567  -1.641  0.00  0.00     0.087 C 
ATOM     69  O6  NAG d1175       6.825 -20.231  -1.715  0.00  0.00    -0.398 OA
ATOM     70  O1  NAG d1175      11.197 -20.113  -3.906  0.00  0.00    -0.369 OA
ATOM     71  C7  NAG d1175      14.111 -19.575  -2.616  0.00  0.00     0.214 C 
ATOM     72  N2  NAG d1175      13.201 -20.137  -1.818  0.00  0.00    -0.349 N 
ATOM     73  C5  NAG d1175       9.081 -19.985  -1.011  0.00  0.00     0.089 C 
ATOM     74  O5  NAG d1175       9.564 -19.683  -2.311  0.00  0.00    -0.349 OA
ATOM     75  C4  NAG d1175       9.971 -19.386   0.080  0.00  0.00     0.089 C 
ATOM     76  O4  NAG d1175       9.550 -19.938   1.314  0.00  0.00    -0.390 OA
ATOM     77  O7  NAG d1175      14.474 -18.399  -2.499  0.00  0.00    -0.274 OA
ATOM     78  C1  NAG d1175      10.840 -20.258  -2.545  0.00  0.00     0.151 C 
ATOM     79  C8  NAG d1175      14.694 -20.468  -3.678  0.00  0.00    -0.003 C 
ATOM     80  C3  NAG d1175      11.473 -19.630  -0.156  0.00  0.00     0.093 C 
ATOM     81  H   NAG d1175       7.602 -18.444  -1.119  0.00  0.00     0.078 H 
ATOM     82  H   NAG d1175       7.328 -19.589   0.159  0.00  0.00     0.078 H 
ATOM     83  H   NAG d1175      11.888 -18.539  -1.938  0.00  0.00     0.084 H 
ATOM     84  H   NAG d1175       7.129 -20.123  -2.630  0.00  0.00     0.209 HD
ATOM     85  H   NAG d1175      12.070 -20.508  -4.055  0.00  0.00     0.212 HD
ATOM     86  H   NAG d1175      13.434 -20.962  -1.334  0.00  0.00     0.163 HD
ATOM     87  H   NAG d1175       9.099 -21.049  -0.896  0.00  0.00     0.090 H 
ATOM     88  H   NAG d1175       9.862 -18.321   0.075  0.00  0.00     0.091 H 
ATOM     89  H   NAG d1175       9.660 -20.902   1.291  0.00  0.00     0.210 HD
ATOM     90  H   NAG d1175      10.813 -21.304  -2.318  0.00  0.00     0.132 H 
ATOM     91  H   NAG d1175      14.250 -21.439  -3.611  0.00  0.00     0.040 H 
ATOM     92  H   NAG d1175      15.751 -20.549  -3.533  0.00  0.00     0.040 H 
ATOM     93  H   NAG d1175      14.496 -20.051  -4.643  0.00  0.00     0.040 H 
ATOM     94  H   NAG d1175      11.641 -20.621   0.211  0.00  0.00     0.091 H 
ATOM     95  C4  NAG d1181       4.016  -9.847  23.223  0.00  0.00     0.089 C 
ATOM     96  C3  NAG d1181       5.395  -9.537  23.813  0.00  0.00     0.086 C 
ATOM     97  C6  NAG d1181       2.677 -11.355  21.694  0.00  0.00     0.043 C 
ATOM     98  C5  NAG d1181       3.987 -11.183  22.466  0.00  0.00     0.089 C 
ATOM     99  C7  NAG d1181       8.651  -8.711  23.085  0.00  0.00     0.214 C 
ATOM    100  C8  NAG d1181       9.184  -8.669  21.679  0.00  0.00    -0.003 C 
ATOM    101  N2  NAG d1181       7.817  -9.706  23.386  0.00  0.00    -0.349 N 
ATOM    102  O3  NAG d1181       5.455  -8.187  24.250  0.00  0.00    -0.391 OA
ATOM    103  C1  NAG d1181       6.332 -11.176  22.131  0.00  0.00     0.154 C 
ATOM    104  O6  NAG d1181       2.472 -12.718  21.384  0.00  0.00    -0.398 OA
ATOM    105  O5  NAG d1181       5.058 -11.273  21.541  0.00  0.00    -0.349 OA
ATOM    106  O7  NAG d1181       8.975  -7.855  23.912  0.00  0.00    -0.274 OA
ATOM    107  O4  NAG d1181       3.063  -9.873  24.261  0.00  0.00    -0.390 OA
ATOM    108  C2  NAG d1181       6.496  -9.805  22.783  0.00  0.00     0.087 C 
ATOM    109  H   NAG d1181       3.785  -9.077  22.517  0.00  0.00     0.091 H 
ATOM    110  H   NAG d1181       5.552 -10.180  24.653  0.00  0.00     0.090 H 
ATOM    111  H   NAG d1181       2.723 -10.789  20.787  0.00  0.00     0.078 H 
ATOM    112  H   NAG d1181       1.866 -11.007  22.299  0.00  0.00     0.078 H 
ATOM    113  H   NAG d1181       4.079 -11.953  23.203  0.00  0.00     0.090 H 
ATOM    114  H   NAG d1181       8.787  -9.492  21.123  0.00  0.00     0.040 H 
ATOM    115  H   NAG d1181      10.252  -8.735  21.701  0.00  0.00     0.040 H 
ATOM    116  H   NAG d1181       8.892  -7.750  21.214  0.00  0.00     0.040 H 
ATOM    117  H   NAG d1181       8.102 -10.393  24.033  0.00  0.00     0.163 HD
ATOM    118  H   NAG d1181       5.314  -7.596  23.494  0.00  0.00     0.210 HD
ATOM    119  H   NAG d1181       6.408 -11.959  22.856  0.00  0.00     0.132 H 
ATOM    120  H   NAG d1181       3.205 -13.038  20.836  0.00  0.00     0.209 HD
ATOM    121  H   NAG d1181       3.288 -10.576  24.890  0.00  0.00     0.210 HD
ATOM    122  H   NAG d1181       6.403  -9.054  22.026  0.00  0.00     0.084 H 
ATOM    123  C7  NAG d1179       9.321 -15.392  14.900  0.00  0.00     0.214 C 
ATOM    124  C1  NAG d1179      12.122 -16.841  16.267  0.00  0.00     0.154 C 
ATOM    125  C2  NAG d1179      10.746 -16.299  16.633  0.00  0.00     0.087 C 
ATOM    126  O5  NAG d1179      12.525 -17.808  17.212  0.00  0.00    -0.349 OA
ATOM    127  O7  NAG d1179       8.333 -16.066  15.187  0.00  0.00    -0.274 OA
ATOM    128  O4  NAG d1179      11.242 -16.425  20.340  0.00  0.00    -0.390 OA
ATOM    129  N2  NAG d1179      10.356 -15.234  15.723  0.00  0.00    -0.349 N 
ATOM    130  C8  NAG d1179       9.386 -14.706  13.569  0.00  0.00    -0.003 C 
ATOM    131  O3  NAG d1179       9.247 -15.690  18.386  0.00  0.00    -0.348 OA
ATOM    132  C4  NAG d1179      11.209 -16.914  19.015  0.00  0.00     0.089 C 
ATOM    133  C5  NAG d1179      12.608 -17.306  18.535  0.00  0.00     0.089 C 
ATOM    134  O6  NAG d1179      12.453 -19.520  19.510  0.00  0.00    -0.398 OA
ATOM    135  C3  NAG d1179      10.621 -15.856  18.088  0.00  0.00     0.093 C 
ATOM    136  C6  NAG d1179      13.260 -18.359  19.431  0.00  0.00     0.043 C 
ATOM    137  H   NAG d1179      12.890 -16.095  16.275  0.00  0.00     0.132 H 
ATOM    138  H   NAG d1179      10.067 -17.120  16.525  0.00  0.00     0.084 H 
ATOM    139  H   NAG d1179      10.344 -16.184  20.618  0.00  0.00     0.210 HD
ATOM    140  H   NAG d1179      10.861 -14.389  15.715  0.00  0.00     0.163 HD
ATOM    141  H   NAG d1179      10.308 -14.170  13.489  0.00  0.00     0.040 H 
ATOM    142  H   NAG d1179       8.567 -14.024  13.479  0.00  0.00     0.040 H 
ATOM    143  H   NAG d1179       9.330 -15.436  12.789  0.00  0.00     0.040 H 
ATOM    144  H   NAG d1179      10.593 -17.789  18.998  0.00  0.00     0.091 H 
ATOM    145  H   NAG d1179      13.217 -16.427  18.571  0.00  0.00     0.090 H 
ATOM    146  H   NAG d1179      12.883 -20.175  20.081  0.00  0.00     0.209 HD
ATOM    147  H   NAG d1179      11.152 -14.939  18.231  0.00  0.00     0.091 H 
ATOM    148  H   NAG d1179      13.389 -17.954  20.412  0.00  0.00     0.078 H 
ATOM    149  H   NAG d1179      14.207 -18.627  19.011  0.00  0.00     0.078 H 
ATOM    150  C6  BDP d1180       9.731 -12.783  22.081  0.00  0.00     0.206 C 
ATOM    151  O3  BDP d1180       5.527 -13.005  19.497  0.00  0.00    -0.390 OA
ATOM    152  C1  BDP d1180       8.945 -14.373  18.870  0.00  0.00     0.160 C 
ATOM    153  O2  BDP d1180       7.345 -13.800  17.213  0.00  0.00    -0.388 OA
ATOM    154  C3  BDP d1180       6.926 -12.854  19.363  0.00  0.00     0.092 C 
ATOM    155  O4  BDP d1180       7.377 -11.327  21.156  0.00  0.00    -0.348 OA
ATOM    156  O5  BDP d1180       9.227 -14.280  20.249  0.00  0.00    -0.340 OA
ATOM    157  C5  BDP d1180       9.046 -12.963  20.725  0.00  0.00     0.152 C 
ATOM    158  O6B BDP d1180       9.476 -13.610  22.991  0.00  0.00    -0.646 OA
ATOM    159  O6A BDP d1180      10.526 -11.820  22.204  0.00  0.00    -0.646 OA
ATOM    160  C2  BDP d1180       7.474 -14.064  18.594  0.00  0.00     0.110 C 
ATOM    161  C4  BDP d1180       7.548 -12.667  20.750  0.00  0.00     0.103 C 
ATOM    162  H   BDP d1180       5.129 -13.124  18.621  0.00  0.00     0.210 HD
ATOM    163  H   BDP d1180       9.556 -13.657  18.362  0.00  0.00     0.133 H 
ATOM    164  H   BDP d1180       7.687 -14.554  16.706  0.00  0.00     0.210 HD
ATOM    165  H   BDP d1180       7.180 -11.982  18.799  0.00  0.00     0.091 H 
ATOM    166  H   BDP d1180       9.510 -12.250  20.076  0.00  0.00     0.104 H 
ATOM    167  H   BDP d1180       6.910 -14.912  18.919  0.00  0.00     0.094 H 
ATOM    168  H   BDP d1180       7.065 -13.342  21.425  0.00  0.00     0.092 H 
ENDROOT
TORSDOF 43
ENDMDL
MODEL 79
REMARK VINA RESULT:      -4.8      7.141      9.567
REMARK  0 active torsions:
REMARK  status: ('A' for Active; 'I' for Inactive)
REMARK       I    between atoms: C1_1  and  O3_15 
REMARK       I    between atoms: C1_2  and  O3_93 
REMARK       I    between atoms: C6_3  and  C5_89 
REMARK       I    between atoms: C6_3  and  O6_76 
REMARK       I    between atoms: O3_4  and  C3_22 
REMARK       I    between atoms: C6_5  and  C5_48 
REMARK       I    between atoms: C6_5  and  O6_31 
REMARK       I    between atoms: C4_6  and  O4_74 
REMARK       I    between atoms: C7_7  and  C8_62 
REMARK       I    between atoms: C7_7  and  N2_60 
REMARK       I    between atoms: C6_8  and  C5_52 
REMARK       I    between atoms: C3_9  and  O3_38 
REMARK       I    between atoms: C1_10  and  O4_75 
REMARK       I    between atoms: C6_12  and  C5_51 
REMARK       I    between atoms: O3_13  and  C3_42 
REMARK       I    between atoms: O4_14  and  C4_84 
REMARK       I    between atoms: O3_15  and  C3_86 
REMARK       I    between atoms: C6_16  and  C5_23 
REMARK       I    between atoms: C6_16  and  O6_58 
REMARK       I    between atoms: C1_17  and  O3_63 
REMARK       I    between atoms: C2_18  and  N2_60 
REMARK       I    between atoms: C2_19  and  N2_53 
REMARK       I    between atoms: O2_20  and  C2_66 
REMARK       I    between atoms: C3_25  and  O3_93 
REMARK       I    between atoms: C7_26  and  C8_32 
REMARK       I    between atoms: C7_26  and  N2_37 
REMARK       I    between atoms: C2_28  and  N2_44 
REMARK       I    between atoms: C7_29  and  C8_54 
REMARK       I    between atoms: C7_29  and  N2_53 
REMARK       I    between atoms: O1_33  and  C1_80 
REMARK       I    between atoms: O4_34  and  C4_40 
REMARK       I    between atoms: O4_34  and  C1_92 
REMARK       I    between atoms: C7_36  and  C8_81 
REMARK       I    between atoms: C7_36  and  N2_44 
REMARK       I    between atoms: N2_37  and  C2_83 
REMARK       I    between atoms: O3_39  and  C3_61 
REMARK       I    between atoms: C1_41  and  O4_46 
REMARK       I    between atoms: O2_43  and  C2_73 
REMARK       I    between atoms: C6_45  and  C5_87 
REMARK       I    between atoms: O4_46  and  C4_67 
REMARK       I    between atoms: C4_50  and  O4_65 
REMARK       I    between atoms: C2_55  and  O2_82 
REMARK       I    between atoms: O4_57  and  C4_71 
REMARK       I    between atoms: O3_63  and  C3_85 
REMARK       I    between atoms: O4_75  and  C4_91 
REMARK       I    between atoms: C5_77  and  C6_90 
REMARK       I    between atoms: O6_79  and  C6_90 
ROOT
ATOM      1  C1  BDP d1176      15.058 -16.242  13.831  0.00  0.00     0.160 C 
ATOM      2  O3  BDP d1176      13.348 -19.402  12.706  0.00  0.00    -0.390 OA
ATOM      3  O5  BDP d1176      14.629 -15.610  12.658  0.00  0.00    -0.340 OA
ATOM      4  O6A BDP d1176      13.563 -14.878  10.276  0.00  0.00    -0.646 OA
ATOM      5  C3  BDP d1176      14.367 -18.425  12.638  0.00  0.00     0.092 C 
ATOM      6  O4  BDP d1176      14.625 -18.327  10.266  0.00  0.00    -0.348 OA
ATOM      7  C4  BDP d1176      14.172 -17.586  11.383  0.00  0.00     0.103 C 
ATOM      8  C6  BDP d1176      14.710 -15.361  10.337  0.00  0.00     0.206 C 
ATOM      9  C2  BDP d1176      14.413 -17.629  13.940  0.00  0.00     0.110 C 
ATOM     10  O6B BDP d1176      15.643 -15.137   9.538  0.00  0.00    -0.646 OA
ATOM     11  O2  BDP d1176      15.166 -18.405  14.840  0.00  0.00    -0.388 OA
ATOM     12  C5  BDP d1176      14.979 -16.300  11.493  0.00  0.00     0.152 C 
ATOM     13  H   BDP d1176      16.120 -16.374  13.821  0.00  0.00     0.133 H 
ATOM     14  H   BDP d1176      13.468 -19.939  13.505  0.00  0.00     0.210 HD
ATOM     15  H   BDP d1176      15.334 -18.874  12.547  0.00  0.00     0.091 H 
ATOM     16  H   BDP d1176      13.136 -17.343  11.269  0.00  0.00     0.092 H 
ATOM     17  H   BDP d1176      13.405 -17.446  14.250  0.00  0.00     0.094 H 
ATOM     18  H   BDP d1176      16.062 -18.526  14.490  0.00  0.00     0.210 HD
ATOM     19  H   BDP d1176      16.010 -16.589  11.497  0.00  0.00     0.104 H 
ATOM     20  C1  BDP d1178      13.225 -19.845   4.845  0.00  0.00     0.160 C 
ATOM     21  C6  BDP d1178      10.059 -19.784   2.878  0.00  0.00     0.206 C 
ATOM     22  O6B BDP d1178       9.417 -18.866   2.314  0.00  0.00    -0.646 OA
ATOM     23  O6A BDP d1178       9.604 -20.932   3.105  0.00  0.00    -0.646 OA
ATOM     24  O3  BDP d1178      14.680 -20.204   1.431  0.00  0.00    -0.390 OA
ATOM     25  O2  BDP d1178      15.486 -20.259   4.116  0.00  0.00    -0.388 OA
ATOM     26  C5  BDP d1178      11.497 -19.449   3.280  0.00  0.00     0.152 C 
ATOM     27  C3  BDP d1178      13.884 -19.677   2.468  0.00  0.00     0.092 C 
ATOM     28  C2  BDP d1178      14.135 -20.413   3.761  0.00  0.00     0.110 C 
ATOM     29  O4  BDP d1178      12.196 -18.806   1.119  0.00  0.00    -0.348 OA
ATOM     30  O5  BDP d1178      11.883 -20.091   4.490  0.00  0.00    -0.340 OA
ATOM     31  C4  BDP d1178      12.412 -19.775   2.104  0.00  0.00     0.103 C 
ATOM     32  H   BDP d1178      13.318 -18.784   4.951  0.00  0.00     0.133 H 
ATOM     33  H   BDP d1178      15.616 -20.135   1.675  0.00  0.00     0.210 HD
ATOM     34  H   BDP d1178      15.657 -20.729   4.947  0.00  0.00     0.210 HD
ATOM     35  H   BDP d1178      11.579 -18.405   3.496  0.00  0.00     0.104 H 
ATOM     36  H   BDP d1178      14.147 -18.649   2.600  0.00  0.00     0.091 H 
ATOM     37  H   BDP d1178      13.922 -21.455   3.646  0.00  0.00     0.094 H 
ATOM     38  H   BDP d1178      12.192 -20.773   1.788  0.00  0.00     0.092 H 
ATOM     39  C6  NAG d1177      10.922 -21.313  10.109  0.00  0.00     0.043 C 
ATOM     40  O4  NAG d1177      11.167 -21.287   7.133  0.00  0.00    -0.390 OA
ATOM     41  C2  NAG d1177      14.138 -19.246   8.096  0.00  0.00     0.087 C 
ATOM     42  C3  NAG d1177      13.042 -19.838   7.220  0.00  0.00     0.093 C 
ATOM     43  C7  NAG d1177      16.049 -17.997   7.170  0.00  0.00     0.214 C 
ATOM     44  N2  NAG d1177      14.742 -18.131   7.381  0.00  0.00    -0.349 N 
ATOM     45  C8  NAG d1177      16.483 -16.622   6.758  0.00  0.00    -0.003 C 
ATOM     46  O7  NAG d1177      16.874 -18.910   7.275  0.00  0.00    -0.274 OA
ATOM     47  O6  NAG d1177      11.695 -21.786  11.198  0.00  0.00    -0.398 OA
ATOM     48  C4  NAG d1177      12.232 -20.884   7.971  0.00  0.00     0.089 C 
ATOM     49  O5  NAG d1177      12.812 -19.835  10.058  0.00  0.00    -0.349 OA
ATOM     50  C5  NAG d1177      11.723 -20.302   9.290  0.00  0.00     0.089 C 
ATOM     51  C1  NAG d1177      13.552 -18.797   9.436  0.00  0.00     0.154 C 
ATOM     52  O3  NAG d1177      13.615 -20.452   6.088  0.00  0.00    -0.348 OA
ATOM     53  H   NAG d1177      10.650 -22.137   9.485  0.00  0.00     0.078 H 
ATOM     54  H   NAG d1177      10.043 -20.834  10.490  0.00  0.00     0.078 H 
ATOM     55  H   NAG d1177      11.526 -21.651   6.308  0.00  0.00     0.210 HD
ATOM     56  H   NAG d1177      14.888 -19.979   8.305  0.00  0.00     0.084 H 
ATOM     57  H   NAG d1177      12.395 -19.037   6.929  0.00  0.00     0.091 H 
ATOM     58  H   NAG d1177      14.145 -17.431   7.032  0.00  0.00     0.163 HD
ATOM     59  H   NAG d1177      15.632 -15.974   6.724  0.00  0.00     0.040 H 
ATOM     60  H   NAG d1177      16.937 -16.666   5.790  0.00  0.00     0.040 H 
ATOM     61  H   NAG d1177      17.190 -16.244   7.467  0.00  0.00     0.040 H 
ATOM     62  H   NAG d1177      12.494 -22.221  10.862  0.00  0.00     0.209 HD
ATOM     63  H   NAG d1177      12.834 -21.734   8.215  0.00  0.00     0.091 H 
ATOM     64  H   NAG d1177      11.065 -19.496   9.043  0.00  0.00     0.090 H 
ATOM     65  H   NAG d1177      12.858 -17.999   9.275  0.00  0.00     0.132 H 
ATOM     66  C6  NAG d1175      15.714 -10.608  15.014  0.00  0.00     0.043 C 
ATOM     67  O3  NAG d1175      14.687 -15.410  14.952  0.00  0.00    -0.348 OA
ATOM     68  C2  NAG d1175      15.746 -14.470  16.884  0.00  0.00     0.087 C 
ATOM     69  O6  NAG d1175      16.557  -9.623  15.567  0.00  0.00    -0.398 OA
ATOM     70  O1  NAG d1175      16.497 -13.255  18.843  0.00  0.00    -0.369 OA
ATOM     71  C7  NAG d1175      15.772 -16.375  18.417  0.00  0.00     0.214 C 
ATOM     72  N2  NAG d1175      16.291 -15.735  17.367  0.00  0.00    -0.349 N 
ATOM     73  C5  NAG d1175      16.190 -11.970  15.507  0.00  0.00     0.089 C 
ATOM     74  O5  NAG d1175      15.984 -12.079  16.907  0.00  0.00    -0.349 OA
ATOM     75  C4  NAG d1175      15.477 -13.084  14.738  0.00  0.00     0.089 C 
ATOM     76  O4  NAG d1175      15.936 -13.030  13.400  0.00  0.00    -0.390 OA
ATOM     77  O7  NAG d1175      14.580 -16.698  18.485  0.00  0.00    -0.274 OA
ATOM     78  C1  NAG d1175      16.539 -13.275  17.429  0.00  0.00     0.151 C 
ATOM     79  C8  NAG d1175      16.733 -16.702  19.527  0.00  0.00    -0.003 C 
ATOM     80  C3  NAG d1175      15.697 -14.482  15.347  0.00  0.00     0.093 C 
ATOM     81  H   NAG d1175      14.705 -10.441  15.330  0.00  0.00     0.078 H 
ATOM     82  H   NAG d1175      15.748 -10.569  13.946  0.00  0.00     0.078 H 
ATOM     83  H   NAG d1175      14.746 -14.359  17.249  0.00  0.00     0.084 H 
ATOM     84  H   NAG d1175      16.518  -9.670  16.535  0.00  0.00     0.209 HD
ATOM     85  H   NAG d1175      16.879 -14.077  19.189  0.00  0.00     0.212 HD
ATOM     86  H   NAG d1175      17.066 -16.128  16.904  0.00  0.00     0.163 HD
ATOM     87  H   NAG d1175      17.239 -12.070  15.324  0.00  0.00     0.090 H 
ATOM     88  H   NAG d1175      14.420 -12.925  14.792  0.00  0.00     0.091 H 
ATOM     89  H   NAG d1175      16.895 -13.178  13.381  0.00  0.00     0.210 HD
ATOM     90  H   NAG d1175      17.563 -13.361  17.128  0.00  0.00     0.132 H 
ATOM     91  H   NAG d1175      17.708 -16.340  19.274  0.00  0.00     0.040 H 
ATOM     92  H   NAG d1175      16.772 -17.763  19.663  0.00  0.00     0.040 H 
ATOM     93  H   NAG d1175      16.403 -16.238  20.432  0.00  0.00     0.040 H 
ATOM     94  H   NAG d1175      16.649 -14.790  14.966  0.00  0.00     0.091 H 
ATOM     95  C4  NAG d1181       4.221 -12.952  -8.399  0.00  0.00     0.089 C 
ATOM     96  C3  NAG d1181       3.824 -14.421  -8.577  0.00  0.00     0.086 C 
ATOM     97  C6  NAG d1181       5.888 -11.335  -7.394  0.00  0.00     0.043 C 
ATOM     98  C5  NAG d1181       5.615 -12.792  -7.776  0.00  0.00     0.089 C 
ATOM     99  C7  NAG d1181       2.969 -17.326  -6.953  0.00  0.00     0.214 C 
ATOM    100  C8  NAG d1181       3.029 -17.469  -5.456  0.00  0.00    -0.003 C 
ATOM    101  N2  NAG d1181       3.959 -16.651  -7.536  0.00  0.00    -0.349 N 
ATOM    102  O3  NAG d1181       2.442 -14.527  -8.884  0.00  0.00    -0.391 OA
ATOM    103  C1  NAG d1181       5.570 -14.963  -6.830  0.00  0.00     0.154 C 
ATOM    104  O6  NAG d1181       7.277 -11.124  -7.250  0.00  0.00    -0.398 OA
ATOM    105  O5  NAG d1181       5.751 -13.585  -6.609  0.00  0.00    -0.349 OA
ATOM    106  O7  NAG d1181       2.038 -17.814  -7.600  0.00  0.00    -0.274 OA
ATOM    107  O4  NAG d1181       4.187 -12.308  -9.653  0.00  0.00    -0.390 OA
ATOM    108  C2  NAG d1181       4.145 -15.225  -7.314  0.00  0.00     0.087 C 
ATOM    109  H   NAG d1181       3.519 -12.507  -7.726  0.00  0.00     0.091 H 
ATOM    110  H   NAG d1181       4.390 -14.824  -9.390  0.00  0.00     0.090 H 
ATOM    111  H   NAG d1181       5.398 -11.113  -6.469  0.00  0.00     0.078 H 
ATOM    112  H   NAG d1181       5.514 -10.695  -8.166  0.00  0.00     0.078 H 
ATOM    113  H   NAG d1181       6.319 -13.112  -8.516  0.00  0.00     0.090 H 
ATOM    114  H   NAG d1181       3.906 -16.981  -5.087  0.00  0.00     0.040 H 
ATOM    115  H   NAG d1181       3.062 -18.507  -5.198  0.00  0.00     0.040 H 
ATOM    116  H   NAG d1181       2.161 -17.020  -5.020  0.00  0.00     0.040 H 
ATOM    117  H   NAG d1181       4.581 -17.129  -8.131  0.00  0.00     0.163 HD
ATOM    118  H   NAG d1181       1.919 -14.163  -8.151  0.00  0.00     0.210 HD
ATOM    119  H   NAG d1181       6.288 -15.265  -7.564  0.00  0.00     0.132 H 
ATOM    120  H   NAG d1181       7.621 -11.702  -6.552  0.00  0.00     0.209 HD
ATOM    121  H   NAG d1181       4.830 -12.725 -10.248  0.00  0.00     0.210 HD
ATOM    122  H   NAG d1181       3.462 -14.899  -6.556  0.00  0.00     0.084 H 
ATOM    123  C7  NAG d1179      10.285 -16.153   0.609  0.00  0.00     0.214 C 
ATOM    124  C1  NAG d1179      11.536 -19.282  -0.066  0.00  0.00     0.154 C 
ATOM    125  C2  NAG d1179      11.005 -18.026  -0.744  0.00  0.00     0.087 C 
ATOM    126  O5  NAG d1179      12.409 -19.967  -0.938  0.00  0.00    -0.349 OA
ATOM    127  O7  NAG d1179      10.961 -15.310   0.022  0.00  0.00    -0.274 OA
ATOM    128  O4  NAG d1179      10.807 -19.484  -4.185  0.00  0.00    -0.390 OA
ATOM    129  N2  NAG d1179      10.030 -17.358   0.104  0.00  0.00    -0.349 N 
ATOM    130  C8  NAG d1179       9.711 -15.832   1.955  0.00  0.00    -0.003 C 
ATOM    131  O3  NAG d1179      10.295 -17.011  -2.784  0.00  0.00    -0.348 OA
ATOM    132  C4  NAG d1179      11.406 -19.128  -2.956  0.00  0.00     0.089 C 
ATOM    133  C5  NAG d1179      11.796 -20.369  -2.151  0.00  0.00     0.089 C 
ATOM    134  O6  NAG d1179      13.926 -20.585  -3.291  0.00  0.00    -0.398 OA
ATOM    135  C3  NAG d1179      10.446 -18.265  -2.144  0.00  0.00     0.093 C 
ATOM    136  C6  NAG d1179      12.753 -21.285  -2.915  0.00  0.00     0.043 C 
ATOM    137  H   NAG d1179      10.771 -19.987   0.184  0.00  0.00     0.132 H 
ATOM    138  H   NAG d1179      11.850 -17.384  -0.881  0.00  0.00     0.084 H 
ATOM    139  H   NAG d1179      10.571 -18.680  -4.674  0.00  0.00     0.210 HD
ATOM    140  H   NAG d1179       9.175 -17.801   0.307  0.00  0.00     0.163 HD
ATOM    141  H   NAG d1179       9.157 -16.673   2.316  0.00  0.00     0.040 H 
ATOM    142  H   NAG d1179       9.062 -14.985   1.873  0.00  0.00     0.040 H 
ATOM    143  H   NAG d1179      10.504 -15.609   2.637  0.00  0.00     0.040 H 
ATOM    144  H   NAG d1179      12.297 -18.573  -3.167  0.00  0.00     0.091 H 
ATOM    145  H   NAG d1179      10.900 -20.923  -1.960  0.00  0.00     0.090 H 
ATOM    146  H   NAG d1179      14.518 -21.182  -3.773  0.00  0.00     0.209 HD
ATOM    147  H   NAG d1179       9.505 -18.770  -2.074  0.00  0.00     0.091 H 
ATOM    148  H   NAG d1179      12.264 -21.647  -3.796  0.00  0.00     0.078 H 
ATOM    149  H   NAG d1179      13.028 -22.101  -2.280  0.00  0.00     0.078 H 
ATOM    150  C6  BDP d1180       7.078 -18.305  -5.996  0.00  0.00     0.206 C 
ATOM    151  O3  BDP d1180       7.633 -13.586  -4.645  0.00  0.00    -0.390 OA
ATOM    152  C1  BDP d1180       8.952 -16.783  -3.234  0.00  0.00     0.160 C 
ATOM    153  O2  BDP d1180       8.564 -14.777  -2.024  0.00  0.00    -0.388 OA
ATOM    154  C3  BDP d1180       7.455 -14.891  -4.134  0.00  0.00     0.092 C 
ATOM    155  O4  BDP d1180       5.772 -15.722  -5.627  0.00  0.00    -0.348 OA
ATOM    156  O5  BDP d1180       8.736 -17.412  -4.478  0.00  0.00    -0.340 OA
ATOM    157  C5  BDP d1180       7.389 -17.297  -4.887  0.00  0.00     0.152 C 
ATOM    158  O6B BDP d1180       7.834 -18.339  -6.998  0.00  0.00    -0.646 OA
ATOM    159  O6A BDP d1180       6.087 -19.056  -5.833  0.00  0.00    -0.646 OA
ATOM    160  C2  BDP d1180       8.708 -15.277  -3.336  0.00  0.00     0.110 C 
ATOM    161  C4  BDP d1180       7.135 -15.846  -5.288  0.00  0.00     0.103 C 
ATOM    162  H   BDP d1180       7.836 -12.978  -3.917  0.00  0.00     0.210 HD
ATOM    163  H   BDP d1180       8.262 -17.203  -2.531  0.00  0.00     0.133 H 
ATOM    164  H   BDP d1180       9.347 -15.011  -1.501  0.00  0.00     0.210 HD
ATOM    165  H   BDP d1180       6.625 -14.945  -3.460  0.00  0.00     0.091 H 
ATOM    166  H   BDP d1180       6.720 -17.539  -4.089  0.00  0.00     0.104 H 
ATOM    167  H   BDP d1180       9.542 -14.861  -3.861  0.00  0.00     0.094 H 
ATOM    168  H   BDP d1180       7.766 -15.591  -6.114  0.00  0.00     0.092 H 
ENDROOT
TORSDOF 43
ENDMDL
