REMARK  0 active torsions:
REMARK  status: ('A' for Active; 'I' for Inactive)
REMARK       I    between atoms: C1_1  and  O3_15 
REMARK       I    between atoms: C1_2  and  O3_93 
REMARK       I    between atoms: C6_3  and  C5_89 
REMARK       I    between atoms: C6_3  and  O6_76 
REMARK       I    between atoms: O3_4  and  C3_22 
REMARK       I    between atoms: C6_5  and  C5_48 
REMARK       I    between atoms: C6_5  and  O6_31 
REMARK       I    between atoms: C4_6  and  O4_74 
REMARK       I    between atoms: C7_7  and  C8_62 
REMARK       I    between atoms: C7_7  and  N2_60 
REMARK       I    between atoms: C6_8  and  C5_52 
REMARK       I    between atoms: C3_9  and  O3_38 
REMARK       I    between atoms: C1_10  and  O4_75 
REMARK       I    between atoms: C6_12  and  C5_51 
REMARK       I    between atoms: O3_13  and  C3_42 
REMARK       I    between atoms: O4_14  and  C4_84 
REMARK       I    between atoms: O3_15  and  C3_86 
REMARK       I    between atoms: C6_16  and  C5_23 
REMARK       I    between atoms: C6_16  and  O6_58 
REMARK       I    between atoms: C1_17  and  O3_63 
REMARK       I    between atoms: C2_18  and  N2_60 
REMARK       I    between atoms: C2_19  and  N2_53 
REMARK       I    between atoms: O2_20  and  C2_66 
REMARK       I    between atoms: C3_25  and  O3_93 
REMARK       I    between atoms: C7_26  and  C8_32 
REMARK       I    between atoms: C7_26  and  N2_37 
REMARK       I    between atoms: C2_28  and  N2_44 
REMARK       I    between atoms: C7_29  and  C8_54 
REMARK       I    between atoms: C7_29  and  N2_53 
REMARK       I    between atoms: O1_33  and  C1_80 
REMARK       I    between atoms: O4_34  and  C4_40 
REMARK       I    between atoms: O4_34  and  C1_92 
REMARK       I    between atoms: C7_36  and  C8_81 
REMARK       I    between atoms: C7_36  and  N2_44 
REMARK       I    between atoms: N2_37  and  C2_83 
REMARK       I    between atoms: O3_39  and  C3_61 
REMARK       I    between atoms: C1_41  and  O4_46 
REMARK       I    between atoms: O2_43  and  C2_73 
REMARK       I    between atoms: C6_45  and  C5_87 
REMARK       I    between atoms: O4_46  and  C4_67 
REMARK       I    between atoms: C4_50  and  O4_65 
REMARK       I    between atoms: C2_55  and  O2_82 
REMARK       I    between atoms: O4_57  and  C4_71 
REMARK       I    between atoms: O3_63  and  C3_85 
REMARK       I    between atoms: O4_75  and  C4_91 
REMARK       I    between atoms: C5_77  and  C6_90 
REMARK       I    between atoms: O6_79  and  C6_90 
ROOT
ATOM      1  C1  BDP d1176       4.958 -14.208  16.735  0.00  0.00     0.160 C 
ATOM      2  O3  BDP d1176       8.670 -13.862  16.210  0.00  0.00    -0.390 OA
ATOM      3  O5  BDP d1176       4.818 -14.577  15.392  0.00  0.00    -0.340 OA
ATOM      4  O6A BDP d1176       5.098 -15.227  12.776  0.00  0.00    -0.646 OA
ATOM      5  C3  BDP d1176       7.328 -13.452  16.044  0.00  0.00     0.092 C 
ATOM      6  O4  BDP d1176       7.454 -12.686  13.786  0.00  0.00    -0.348 OA
ATOM      7  C4  BDP d1176       6.904 -13.701  14.604  0.00  0.00     0.103 C 
ATOM      8  C6  BDP d1176       4.901 -14.045  13.119  0.00  0.00     0.206 C 
ATOM      9  C2  BDP d1176       6.446 -14.119  17.097  0.00  0.00     0.110 C 
ATOM     10  O6B BDP d1176       4.343 -13.165  12.431  0.00  0.00    -0.646 OA
ATOM     11  O2  BDP d1176       6.579 -13.340  18.261  0.00  0.00    -0.388 OA
ATOM     12  C5  BDP d1176       5.385 -13.661  14.501  0.00  0.00     0.152 C 
ATOM     13  H   BDP d1176       4.520 -13.248  16.910  0.00  0.00     0.133 H 
ATOM     14  H   BDP d1176       8.945 -13.705  17.127  0.00  0.00     0.210 HD
ATOM     15  H   BDP d1176       7.218 -12.400  16.208  0.00  0.00     0.091 H 
ATOM     16  H   BDP d1176       7.253 -14.661  14.286  0.00  0.00     0.092 H 
ATOM     17  H   BDP d1176       6.770 -15.133  17.204  0.00  0.00     0.094 H 
ATOM     18  H   BDP d1176       6.266 -12.439  18.084  0.00  0.00     0.210 HD
ATOM     19  H   BDP d1176       5.093 -12.656  14.724  0.00  0.00     0.104 H 
ATOM     20  C1  BDP d1178      10.241 -11.783   8.779  0.00  0.00     0.160 C 
ATOM     21  C6  BDP d1178      12.117 -13.987   6.430  0.00  0.00     0.206 C 
ATOM     22  O6B BDP d1178      11.759 -14.824   5.567  0.00  0.00    -0.646 OA
ATOM     23  O6A BDP d1178      13.288 -13.880   6.871  0.00  0.00    -0.646 OA
ATOM     24  O3  BDP d1178      10.281  -9.530   5.809  0.00  0.00    -0.390 OA
ATOM     25  O2  BDP d1178       9.522  -9.498   8.508  0.00  0.00    -0.388 OA
ATOM     26  C5  BDP d1178      11.031 -13.035   6.935  0.00  0.00     0.152 C 
ATOM     27  C3  BDP d1178      10.101 -10.712   6.556  0.00  0.00     0.092 C 
ATOM     28  C2  BDP d1178      10.404 -10.474   8.014  0.00  0.00     0.110 C 
ATOM     29  O4  BDP d1178      10.438 -12.211   4.804  0.00  0.00    -0.348 OA
ATOM     30  O5  BDP d1178      11.197 -12.708   8.310  0.00  0.00    -0.340 OA
ATOM     31  C4  BDP d1178      11.000 -11.814   6.022  0.00  0.00     0.103 C 
ATOM     32  H   BDP d1178       9.284 -12.237   8.627  0.00  0.00     0.133 H 
ATOM     33  H   BDP d1178       9.702  -8.835   6.159  0.00  0.00     0.210 HD
ATOM     34  H   BDP d1178       9.709  -9.338   9.446  0.00  0.00     0.210 HD
ATOM     35  H   BDP d1178      10.077 -13.518   6.891  0.00  0.00     0.104 H 
ATOM     36  H   BDP d1178       9.079 -11.013   6.461  0.00  0.00     0.091 H 
ATOM     37  H   BDP d1178      11.409 -10.128   8.136  0.00  0.00     0.094 H 
ATOM     38  H   BDP d1178      12.001 -11.445   5.940  0.00  0.00     0.092 H 
ATOM     39  C6  NAG d1177      11.914 -14.345  13.860  0.00  0.00     0.043 C 
ATOM     40  O4  NAG d1177      12.195 -13.404  11.039  0.00  0.00    -0.390 OA
ATOM     41  C2  NAG d1177       8.794 -12.115  11.871  0.00  0.00     0.087 C 
ATOM     42  C3  NAG d1177       9.988 -12.536  11.025  0.00  0.00     0.093 C 
ATOM     43  C7  NAG d1177       6.883 -10.867  10.942  0.00  0.00     0.214 C 
ATOM     44  N2  NAG d1177       7.644 -11.957  10.992  0.00  0.00    -0.349 N 
ATOM     45  C8  NAG d1177       5.559 -11.053  10.264  0.00  0.00    -0.003 C 
ATOM     46  O7  NAG d1177       7.209  -9.763  11.390  0.00  0.00    -0.274 OA
ATOM     47  O6  NAG d1177      11.755 -13.741  15.131  0.00  0.00    -0.398 OA
ATOM     48  C4  NAG d1177      11.181 -12.909  11.892  0.00  0.00     0.089 C 
ATOM     49  O5  NAG d1177       9.695 -13.443  13.708  0.00  0.00    -0.349 OA
ATOM     50  C5  NAG d1177      10.765 -13.946  12.935  0.00  0.00     0.089 C 
ATOM     51  C1  NAG d1177       8.526 -13.158  12.957  0.00  0.00     0.154 C 
ATOM     52  O3  NAG d1177      10.371 -11.477  10.178  0.00  0.00    -0.348 OA
ATOM     53  H   NAG d1177      12.840 -14.025  13.431  0.00  0.00     0.078 H 
ATOM     54  H   NAG d1177      11.912 -15.409  13.978  0.00  0.00     0.078 H 
ATOM     55  H   NAG d1177      12.434 -12.722  10.392  0.00  0.00     0.210 HD
ATOM     56  H   NAG d1177       8.992 -11.185  12.362  0.00  0.00     0.084 H 
ATOM     57  H   NAG d1177       9.691 -13.390  10.453  0.00  0.00     0.091 H 
ATOM     58  H   NAG d1177       7.415 -12.706  10.396  0.00  0.00     0.163 HD
ATOM     59  H   NAG d1177       5.460 -12.070   9.947  0.00  0.00     0.040 H 
ATOM     60  H   NAG d1177       5.500 -10.407   9.413  0.00  0.00     0.040 H 
ATOM     61  H   NAG d1177       4.771 -10.815  10.948  0.00  0.00     0.040 H 
ATOM     62  H   NAG d1177      11.755 -12.776  15.033  0.00  0.00     0.209 HD
ATOM     63  H   NAG d1177      11.550 -12.058  12.425  0.00  0.00     0.091 H 
ATOM     64  H   NAG d1177      10.463 -14.823  12.402  0.00  0.00     0.090 H 
ATOM     65  H   NAG d1177       8.238 -14.083  12.503  0.00  0.00     0.132 H 
ATOM     66  C6  NAG d1175      -0.299 -16.636  16.543  0.00  0.00     0.043 C 
ATOM     67  O3  NAG d1175       4.288 -15.199  17.546  0.00  0.00    -0.348 OA
ATOM     68  C2  NAG d1175       2.668 -15.238  19.310  0.00  0.00     0.087 C 
ATOM     69  O6  NAG d1175      -1.646 -16.533  16.944  0.00  0.00    -0.398 OA
ATOM     70  O1  NAG d1175       0.972 -15.675  20.986  0.00  0.00    -0.369 OA
ATOM     71  C7  NAG d1175       4.038 -14.693  21.260  0.00  0.00     0.214 C 
ATOM     72  N2  NAG d1175       3.381 -14.297  20.168  0.00  0.00    -0.349 N 
ATOM     73  C5  NAG d1175       0.530 -15.710  17.425  0.00  0.00     0.089 C 
ATOM     74  O5  NAG d1175       0.527 -16.183  18.764  0.00  0.00    -0.349 OA
ATOM     75  C4  NAG d1175       1.950 -15.587  16.868  0.00  0.00     0.089 C 
ATOM     76  O4  NAG d1175       1.859 -14.890  15.639  0.00  0.00    -0.390 OA
ATOM     77  O7  NAG d1175       4.919 -15.561  21.237  0.00  0.00    -0.274 OA
ATOM     78  C1  NAG d1175       1.171 -15.276  19.644  0.00  0.00     0.151 C 
ATOM     79  C8  NAG d1175       3.655 -14.006  22.542  0.00  0.00    -0.003 C 
ATOM     80  C3  NAG d1175       2.925 -14.888  17.834  0.00  0.00     0.093 C 
ATOM     81  H   NAG d1175       0.038 -17.645  16.659  0.00  0.00     0.078 H 
ATOM     82  H   NAG d1175      -0.196 -16.358  15.515  0.00  0.00     0.078 H 
ATOM     83  H   NAG d1175       3.041 -16.225  19.489  0.00  0.00     0.084 H 
ATOM     84  H   NAG d1175      -1.726 -16.787  17.877  0.00  0.00     0.209 HD
ATOM     85  H   NAG d1175       1.416 -15.049  21.579  0.00  0.00     0.212 HD
ATOM     86  H   NAG d1175       3.377 -13.341  19.934  0.00  0.00     0.163 HD
ATOM     87  H   NAG d1175       0.096 -14.732  17.425  0.00  0.00     0.090 H 
ATOM     88  H   NAG d1175       2.357 -16.567  16.729  0.00  0.00     0.091 H 
ATOM     89  H   NAG d1175       1.488 -14.007  15.795  0.00  0.00     0.210 HD
ATOM     90  H   NAG d1175       0.755 -14.297  19.523  0.00  0.00     0.132 H 
ATOM     91  H   NAG d1175       2.880 -13.294  22.348  0.00  0.00     0.040 H 
ATOM     92  H   NAG d1175       4.508 -13.502  22.945  0.00  0.00     0.040 H 
ATOM     93  H   NAG d1175       3.304 -14.732  23.245  0.00  0.00     0.040 H 
ATOM     94  H   NAG d1175       2.745 -13.844  17.683  0.00  0.00     0.091 H 
ATOM     95  C4  NAG d1181      11.020 -19.333  -6.917  0.00  0.00     0.089 C 
ATOM     96  C3  NAG d1181      12.489 -18.923  -6.774  0.00  0.00     0.086 C 
ATOM     97  C6  NAG d1181       8.647 -18.951  -6.125  0.00  0.00     0.043 C 
ATOM     98  C5  NAG d1181      10.071 -18.391  -6.162  0.00  0.00     0.089 C 
ATOM     99  C7  NAG d1181      15.146 -18.667  -4.610  0.00  0.00     0.214 C 
ATOM    100  C8  NAG d1181      15.019 -18.924  -3.133  0.00  0.00    -0.003 C 
ATOM    101  N2  NAG d1181      14.147 -18.008  -5.197  0.00  0.00    -0.349 N 
ATOM    102  O3  NAG d1181      13.340 -19.961  -7.238  0.00  0.00    -0.391 OA
ATOM    103  C1  NAG d1181      11.787 -17.632  -4.717  0.00  0.00     0.154 C 
ATOM    104  O6  NAG d1181       7.727 -17.917  -5.842  0.00  0.00    -0.398 OA
ATOM    105  O5  NAG d1181      10.500 -18.191  -4.826  0.00  0.00    -0.349 OA
ATOM    106  O7  NAG d1181      16.133 -19.057  -5.239  0.00  0.00    -0.274 OA
ATOM    107  O4  NAG d1181      10.675 -19.354  -8.284  0.00  0.00    -0.390 OA
ATOM    108  C2  NAG d1181      12.817 -18.587  -5.317  0.00  0.00     0.087 C 
ATOM    109  H   NAG d1181      10.912 -20.306  -6.485  0.00  0.00     0.091 H 
ATOM    110  H   NAG d1181      12.652 -18.050  -7.370  0.00  0.00     0.090 H 
ATOM    111  H   NAG d1181       8.581 -19.701  -5.365  0.00  0.00     0.078 H 
ATOM    112  H   NAG d1181       8.413 -19.377  -7.078  0.00  0.00     0.078 H 
ATOM    113  H   NAG d1181      10.082 -17.460  -6.690  0.00  0.00     0.090 H 
ATOM    114  H   NAG d1181      14.099 -18.510  -2.777  0.00  0.00     0.040 H 
ATOM    115  H   NAG d1181      15.839 -18.466  -2.620  0.00  0.00     0.040 H 
ATOM    116  H   NAG d1181      15.029 -19.979  -2.952  0.00  0.00     0.040 H 
ATOM    117  H   NAG d1181      14.313 -17.107  -5.558  0.00  0.00     0.163 HD
ATOM    118  H   NAG d1181      13.199 -20.758  -6.703  0.00  0.00     0.210 HD
ATOM    119  H   NAG d1181      11.775 -16.699  -5.241  0.00  0.00     0.132 H 
ATOM    120  H   NAG d1181       7.935 -17.527  -4.979  0.00  0.00     0.209 HD
ATOM    121  H   NAG d1181      10.779 -18.465  -8.657  0.00  0.00     0.210 HD
ATOM    122  H   NAG d1181      12.788 -19.507  -4.771  0.00  0.00     0.084 H 
ATOM    123  C7  NAG d1179       9.268 -14.957   3.376  0.00  0.00     0.214 C 
ATOM    124  C1  NAG d1179      11.353 -12.243   3.696  0.00  0.00     0.154 C 
ATOM    125  C2  NAG d1179      10.668 -13.119   2.655  0.00  0.00     0.087 C 
ATOM    126  O5  NAG d1179      11.602 -10.962   3.158  0.00  0.00    -0.349 OA
ATOM    127  O7  NAG d1179       8.292 -14.642   2.698  0.00  0.00    -0.274 OA
ATOM    128  O4  NAG d1179      12.495 -11.728  -0.300  0.00  0.00    -0.390 OA
ATOM    129  N2  NAG d1179      10.489 -14.471   3.160  0.00  0.00    -0.349 N 
ATOM    130  C8  NAG d1179       9.102 -15.931   4.502  0.00  0.00    -0.003 C 
ATOM    131  O3  NAG d1179      10.476 -13.689   0.346  0.00  0.00    -0.348 OA
ATOM    132  C4  NAG d1179      11.707 -11.701   0.872  0.00  0.00     0.089 C 
ATOM    133  C5  NAG d1179      12.434 -10.983   2.011  0.00  0.00     0.089 C 
ATOM    134  O6  NAG d1179      11.675  -8.800   1.278  0.00  0.00    -0.398 OA
ATOM    135  C3  NAG d1179      11.362 -13.125   1.295  0.00  0.00     0.093 C 
ATOM    136  C6  NAG d1179      12.819  -9.549   1.646  0.00  0.00     0.043 C 
ATOM    137  H   NAG d1179      12.308 -12.615   4.004  0.00  0.00     0.132 H 
ATOM    138  H   NAG d1179       9.708 -12.678   2.483  0.00  0.00     0.084 H 
ATOM    139  H   NAG d1179      12.011 -12.188  -1.004  0.00  0.00     0.210 HD
ATOM    140  H   NAG d1179      11.277 -15.032   3.344  0.00  0.00     0.163 HD
ATOM    141  H   NAG d1179      10.046 -16.088   4.980  0.00  0.00     0.040 H 
ATOM    142  H   NAG d1179       8.737 -16.861   4.118  0.00  0.00     0.040 H 
ATOM    143  H   NAG d1179       8.404 -15.540   5.212  0.00  0.00     0.040 H 
ATOM    144  H   NAG d1179      10.808 -11.162   0.658  0.00  0.00     0.091 H 
ATOM    145  H   NAG d1179      13.338 -11.522   2.205  0.00  0.00     0.090 H 
ATOM    146  H   NAG d1179      11.940  -7.895   1.051  0.00  0.00     0.209 HD
ATOM    147  H   NAG d1179      12.265 -13.695   1.355  0.00  0.00     0.091 H 
ATOM    148  H   NAG d1179      13.505  -9.568   0.825  0.00  0.00     0.078 H 
ATOM    149  H   NAG d1179      13.272  -9.088   2.499  0.00  0.00     0.078 H 
ATOM    150  C6  BDP d1180      13.699 -14.978  -2.862  0.00  0.00     0.206 C 
ATOM    151  O3  BDP d1180       9.241 -17.097  -2.678  0.00  0.00    -0.390 OA
ATOM    152  C1  BDP d1180      11.046 -14.817  -0.334  0.00  0.00     0.160 C 
ATOM    153  O2  BDP d1180       9.383 -16.403   0.264  0.00  0.00    -0.388 OA
ATOM    154  C3  BDP d1180      10.359 -16.754  -1.885  0.00  0.00     0.092 C 
ATOM    155  O4  BDP d1180      12.148 -17.402  -3.345  0.00  0.00    -0.348 OA
ATOM    156  O5  BDP d1180      11.867 -14.387  -1.397  0.00  0.00    -0.340 OA
ATOM    157  C5  BDP d1180      12.529 -15.474  -2.010  0.00  0.00     0.152 C 
ATOM    158  O6B BDP d1180      13.480 -14.074  -3.705  0.00  0.00    -0.646 OA
ATOM    159  O6A BDP d1180      14.823 -15.497  -2.658  0.00  0.00    -0.646 OA
ATOM    160  C2  BDP d1180       9.919 -15.714  -0.846  0.00  0.00     0.110 C 
ATOM    161  C4  BDP d1180      11.496 -16.279  -2.795  0.00  0.00     0.103 C 
ATOM    162  H   BDP d1180       8.518 -17.398  -2.105  0.00  0.00     0.210 HD
ATOM    163  H   BDP d1180      11.656 -15.374   0.346  0.00  0.00     0.133 H 
ATOM    164  H   BDP d1180       9.098 -15.763   0.935  0.00  0.00     0.210 HD
ATOM    165  H   BDP d1180      10.738 -17.596  -1.345  0.00  0.00     0.091 H 
ATOM    166  H   BDP d1180      12.965 -16.123  -1.280  0.00  0.00     0.104 H 
ATOM    167  H   BDP d1180       9.211 -15.078  -1.334  0.00  0.00     0.094 H 
ATOM    168  H   BDP d1180      11.073 -15.662  -3.560  0.00  0.00     0.092 H 
ENDROOT
TORSDOF 43
