MODEL 1
REMARK VINA RESULT:     -13.2      0.000      0.000
REMARK  0 active torsions:
REMARK  status: ('A' for Active; 'I' for Inactive)
REMARK       I    between atoms: N14_1  and  C8_29 
REMARK       I    between atoms: N14_1  and  S20_20 
REMARK       I    between atoms: O3_3  and  C1_12 
REMARK       I    between atoms: O3_3  and  C7_30 
REMARK       I    between atoms: O28_4  and  S20_20 
REMARK       I    between atoms: O25_5  and  C17_28 
REMARK       I    between atoms: O9_6  and  C4_31 
REMARK       I    between atoms: S26_7  and  O18_32 
REMARK       I    between atoms: C6_14  and  C2_18 
REMARK       I    between atoms: C6_14  and  O11_26 
REMARK       I    between atoms: O30_15  and  S20_20 
REMARK       I    between atoms: C12_16  and  O18_32 
REMARK       I    between atoms: C19_17  and  C27_23 
REMARK       I    between atoms: S16_19  and  O11_26 
REMARK       I    between atoms: S20_20  and  O29_34 
REMARK       I    between atoms: O15_24  and  C10_25 
ROOT
ATOM      1  N14 H1S d 173     -18.319 -22.065 -19.531  0.00  0.00    -0.210 NA
ATOM      2  O32 H1S d 173     -16.216 -21.210 -28.001  0.00  0.00    -0.572 OA
ATOM      3  O3  H1S d 173     -16.608 -19.330 -23.163  0.00  0.00    -0.348 OA
ATOM      4  O28 H1S d 173     -16.191 -20.797 -19.065  0.00  0.00    -0.296 OA
ATOM      5  O25 H1S d 173     -13.775 -17.716 -25.642  0.00  0.00    -0.393 OA
ATOM      6  O9  H1S d 173     -16.258 -21.910 -21.795  0.00  0.00    -0.391 OA
ATOM      7  S26 H1S d 173     -16.801 -19.901 -27.602  0.00  0.00     0.252 S 
ATOM      8  O5  H1S d 173     -19.964 -20.642 -22.541  0.00  0.00    -0.350 OA
ATOM      9  O23 H1S d 173     -19.969 -16.282 -25.461  0.00  0.00    -0.572 OA
ATOM     10  O21 H1S d 173     -22.190 -17.358 -25.526  0.00  0.00    -0.572 OA
ATOM     11  O34 H1S d 173     -12.469 -22.295 -23.874  0.00  0.00    -0.646 OA
ATOM     12  C1  H1S d 173     -17.639 -20.264 -22.826  0.00  0.00     0.095 C 
ATOM     13  O35 H1S d 173     -11.803 -21.830 -25.879  0.00  0.00    -0.646 OA
ATOM     14  C6  H1S d 173     -19.376 -18.825 -24.044  0.00  0.00     0.067 C 
ATOM     15  O30 H1S d 173     -16.022 -23.149 -19.578  0.00  0.00    -0.296 OA
ATOM     16  C12 H1S d 173     -15.922 -18.767 -25.431  0.00  0.00     0.132 C 
ATOM     17  C19 H1S d 173     -13.692 -20.631 -25.081  0.00  0.00     0.127 C 
ATOM     18  C2  H1S d 173     -19.008 -19.602 -22.772  0.00  0.00     0.091 C 
ATOM     19  S16 H1S d 173     -21.080 -16.857 -24.640  0.00  0.00     0.251 S 
ATOM     20  S20 H1S d 173     -16.844 -22.113 -18.868  0.00  0.00     0.156 S 
ATOM     21  O22 H1S d 173     -21.586 -15.734 -23.796  0.00  0.00    -0.572 OA
ATOM     22  O31 H1S d 173     -16.102 -18.857 -28.404  0.00  0.00    -0.572 OA
ATOM     23  C27 H1S d 173     -12.605 -21.636 -24.936  0.00  0.00     0.203 C 
ATOM     24  O15 H1S d 173     -20.199 -20.142 -20.215  0.00  0.00    -0.369 OA
ATOM     25  C10 H1S d 173     -19.889 -21.157 -21.198  0.00  0.00     0.147 C 
ATOM     26  O11 H1S d 173     -20.527 -17.998 -23.702  0.00  0.00    -0.254 OA
ATOM     27  O13 H1S d 173     -14.514 -20.156 -23.958  0.00  0.00    -0.343 OA
ATOM     28  C17 H1S d 173     -14.630 -18.704 -26.235  0.00  0.00     0.069 C 
ATOM     29  C8  H1S d 173     -18.499 -21.761 -20.944  0.00  0.00     0.081 C 
ATOM     30  C7  H1S d 173     -15.867 -19.802 -24.306  0.00  0.00     0.161 C 
ATOM     31  C4  H1S d 173     -17.312 -20.966 -21.512  0.00  0.00     0.083 C 
ATOM     32  O18 H1S d 173     -17.018 -19.057 -26.316  0.00  0.00    -0.244 OA
ATOM     33  C24 H1S d 173     -13.963 -20.068 -26.260  0.00  0.00    -0.005 C 
ATOM     34  O29 H1S d 173     -16.926 -22.310 -17.393  0.00  0.00    -0.296 OA
ATOM     35  O33 H1S d 173     -18.243 -19.808 -27.922  0.00  0.00    -0.572 OA
ATOM     36  H   H1S d 173     -18.735 -22.984 -19.377  0.00  0.00     0.140 HD
ATOM     37  H   H1S d 173     -16.110 -20.614 -20.015  0.00  0.00     0.231 HD
ATOM     38  H   H1S d 173     -14.227 -16.858 -25.639  0.00  0.00     0.210 HD
ATOM     39  H   H1S d 173     -15.490 -21.440 -22.157  0.00  0.00     0.210 HD
ATOM     40  H   H1S d 173     -17.681 -20.999 -23.602  0.00  0.00     0.091 H 
ATOM     41  H   H1S d 173     -19.628 -19.503 -24.833  0.00  0.00     0.080 H 
ATOM     42  H   H1S d 173     -18.556 -18.228 -24.385  0.00  0.00     0.080 H 
ATOM     43  H   H1S d 173     -16.013 -22.959 -20.528  0.00  0.00     0.231 HD
ATOM     44  H   H1S d 173     -16.061 -17.813 -24.968  0.00  0.00     0.097 H 
ATOM     45  H   H1S d 173     -13.263 -21.561 -24.773  0.00  0.00     0.100 H 
ATOM     46  H   H1S d 173     -19.000 -18.873 -21.989  0.00  0.00     0.090 H 
ATOM     47  H   H1S d 173     -21.080 -19.776 -20.395  0.00  0.00     0.212 HD
ATOM     48  H   H1S d 173     -20.625 -21.927 -21.097  0.00  0.00     0.131 H 
ATOM     49  H   H1S d 173     -14.836 -18.430 -27.248  0.00  0.00     0.087 H 
ATOM     50  H   H1S d 173     -18.487 -22.670 -21.508  0.00  0.00     0.076 H 
ATOM     51  H   H1S d 173     -16.328 -20.700 -24.660  0.00  0.00     0.133 H 
ATOM     52  H   H1S d 173     -17.043 -20.222 -20.792  0.00  0.00     0.089 H 
ATOM     53  H   H1S d 173     -14.609 -20.734 -26.794  0.00  0.00     0.041 H 
ATOM     54  H   H1S d 173     -13.009 -19.902 -26.715  0.00  0.00     0.041 H 
ATOM     55  H   H1S d 173     -17.470 -21.608 -17.003  0.00  0.00     0.231 HD
ENDROOT
TORSDOF 16
ENDMDL
MODEL 2
REMARK VINA RESULT:     -12.3      2.507      7.401
REMARK  0 active torsions:
REMARK  status: ('A' for Active; 'I' for Inactive)
REMARK       I    between atoms: N14_1  and  C8_29 
REMARK       I    between atoms: N14_1  and  S20_20 
REMARK       I    between atoms: O3_3  and  C1_12 
REMARK       I    between atoms: O3_3  and  C7_30 
REMARK       I    between atoms: O28_4  and  S20_20 
REMARK       I    between atoms: O25_5  and  C17_28 
REMARK       I    between atoms: O9_6  and  C4_31 
REMARK       I    between atoms: S26_7  and  O18_32 
REMARK       I    between atoms: C6_14  and  C2_18 
REMARK       I    between atoms: C6_14  and  O11_26 
REMARK       I    between atoms: O30_15  and  S20_20 
REMARK       I    between atoms: C12_16  and  O18_32 
REMARK       I    between atoms: C19_17  and  C27_23 
REMARK       I    between atoms: S16_19  and  O11_26 
REMARK       I    between atoms: S20_20  and  O29_34 
REMARK       I    between atoms: O15_24  and  C10_25 
ROOT
ATOM      1  N14 H1S d 173     -13.191 -21.661 -24.785  0.00  0.00    -0.210 NA
ATOM      2  O32 H1S d 173     -21.606 -21.425 -22.330  0.00  0.00    -0.572 OA
ATOM      3  O3  H1S d 173     -16.764 -19.514 -22.289  0.00  0.00    -0.348 OA
ATOM      4  O28 H1S d 173     -13.389 -19.162 -25.046  0.00  0.00    -0.296 OA
ATOM      5  O25 H1S d 173     -19.870 -16.924 -21.647  0.00  0.00    -0.393 OA
ATOM      6  O9  H1S d 173     -16.019 -20.492 -24.962  0.00  0.00    -0.391 OA
ATOM      7  S26 H1S d 173     -20.831 -20.997 -21.134  0.00  0.00     0.252 S 
ATOM      8  O5  H1S d 173     -15.113 -22.740 -21.795  0.00  0.00    -0.350 OA
ATOM      9  O23 H1S d 173     -17.149 -20.774 -17.376  0.00  0.00    -0.572 OA
ATOM     10  O21 H1S d 173     -16.522 -23.139 -17.051  0.00  0.00    -0.572 OA
ATOM     11  O34 H1S d 173     -19.412 -18.281 -26.520  0.00  0.00    -0.646 OA
ATOM     12  C1  H1S d 173     -16.200 -20.792 -22.604  0.00  0.00     0.095 C 
ATOM     13  O35 H1S d 173     -21.430 -17.938 -25.819  0.00  0.00    -0.646 OA
ATOM     14  C6  H1S d 173     -16.447 -21.531 -20.162  0.00  0.00     0.067 C 
ATOM     15  O30 H1S d 173     -14.261 -20.562 -26.808  0.00  0.00    -0.296 OA
ATOM     16  C12 H1S d 173     -19.016 -19.156 -21.433  0.00  0.00     0.132 C 
ATOM     17  C19 H1S d 173     -19.811 -18.488 -24.170  0.00  0.00     0.127 C 
ATOM     18  C2  H1S d 173     -15.536 -21.433 -21.394  0.00  0.00     0.091 C 
ATOM     19  S16 H1S d 173     -16.060 -21.788 -17.532  0.00  0.00     0.251 S 
ATOM     20  S20 H1S d 173     -13.152 -20.411 -25.810  0.00  0.00     0.156 S 
ATOM     21  O22 H1S d 173     -14.935 -21.313 -16.674  0.00  0.00    -0.572 OA
ATOM     22  O31 H1S d 173     -21.677 -20.012 -20.404  0.00  0.00    -0.572 OA
ATOM     23  C27 H1S d 173     -20.236 -18.226 -25.571  0.00  0.00     0.203 C 
ATOM     24  O15 H1S d 173     -12.825 -22.100 -22.069  0.00  0.00    -0.369 OA
ATOM     25  C10 H1S d 173     -13.988 -22.692 -22.694  0.00  0.00     0.147 C 
ATOM     26  O11 H1S d 173     -15.578 -21.841 -19.032  0.00  0.00    -0.254 OA
ATOM     27  O13 H1S d 173     -18.404 -18.582 -23.752  0.00  0.00    -0.343 OA
ATOM     28  C17 H1S d 173     -20.231 -18.307 -21.780  0.00  0.00     0.069 C 
ATOM     29  C8  H1S d 173     -14.370 -21.932 -23.974  0.00  0.00     0.081 C 
ATOM     30  C7  H1S d 173     -18.158 -19.485 -22.656  0.00  0.00     0.161 C 
ATOM     31  C4  H1S d 173     -15.225 -20.670 -23.770  0.00  0.00     0.083 C 
ATOM     32  O18 H1S d 173     -19.450 -20.369 -20.794  0.00  0.00    -0.244 OA
ATOM     33  C24 H1S d 173     -20.704 -18.621 -23.188  0.00  0.00    -0.005 C 
ATOM     34  O29 H1S d 173     -11.801 -20.263 -26.422  0.00  0.00    -0.296 OA
ATOM     35  O33 H1S d 173     -20.562 -22.119 -20.206  0.00  0.00    -0.572 OA
ATOM     36  H   H1S d 173     -13.025 -22.499 -25.343  0.00  0.00     0.140 HD
ATOM     37  H   H1S d 173     -14.261 -19.203 -24.623  0.00  0.00     0.231 HD
ATOM     38  H   H1S d 173     -19.572 -16.754 -20.739  0.00  0.00     0.210 HD
ATOM     39  H   H1S d 173     -16.573 -19.702 -24.867  0.00  0.00     0.210 HD
ATOM     40  H   H1S d 173     -17.000 -21.440 -22.897  0.00  0.00     0.091 H 
ATOM     41  H   H1S d 173     -17.169 -22.308 -20.296  0.00  0.00     0.080 H 
ATOM     42  H   H1S d 173     -16.983 -20.619 -20.001  0.00  0.00     0.080 H 
ATOM     43  H   H1S d 173     -15.106 -20.653 -26.341  0.00  0.00     0.231 HD
ATOM     44  H   H1S d 173     -18.401 -18.586 -20.769  0.00  0.00     0.097 H 
ATOM     45  H   H1S d 173     -19.827 -18.649 -25.227  0.00  0.00     0.100 H 
ATOM     46  H   H1S d 173     -14.718 -20.813 -21.091  0.00  0.00     0.090 H 
ATOM     47  H   H1S d 173     -12.603 -22.596 -21.265  0.00  0.00     0.212 HD
ATOM     48  H   H1S d 173     -13.728 -23.697 -22.953  0.00  0.00     0.131 H 
ATOM     49  H   H1S d 173     -21.040 -18.525 -21.114  0.00  0.00     0.087 H 
ATOM     50  H   H1S d 173     -15.022 -22.595 -24.502  0.00  0.00     0.076 H 
ATOM     51  H   H1S d 173     -18.436 -20.458 -23.004  0.00  0.00     0.133 H 
ATOM     52  H   H1S d 173     -14.561 -19.856 -23.569  0.00  0.00     0.089 H 
ATOM     53  H   H1S d 173     -21.044 -19.636 -23.196  0.00  0.00     0.041 H 
ATOM     54  H   H1S d 173     -21.457 -17.891 -23.396  0.00  0.00     0.041 H 
ATOM     55  H   H1S d 173     -11.137 -20.171 -25.721  0.00  0.00     0.231 HD
ENDROOT
TORSDOF 16
ENDMDL
MODEL 3
REMARK VINA RESULT:     -10.8      2.813      6.789
REMARK  0 active torsions:
REMARK  status: ('A' for Active; 'I' for Inactive)
REMARK       I    between atoms: N14_1  and  C8_29 
REMARK       I    between atoms: N14_1  and  S20_20 
REMARK       I    between atoms: O3_3  and  C1_12 
REMARK       I    between atoms: O3_3  and  C7_30 
REMARK       I    between atoms: O28_4  and  S20_20 
REMARK       I    between atoms: O25_5  and  C17_28 
REMARK       I    between atoms: O9_6  and  C4_31 
REMARK       I    between atoms: S26_7  and  O18_32 
REMARK       I    between atoms: C6_14  and  C2_18 
REMARK       I    between atoms: C6_14  and  O11_26 
REMARK       I    between atoms: O30_15  and  S20_20 
REMARK       I    between atoms: C12_16  and  O18_32 
REMARK       I    between atoms: C19_17  and  C27_23 
REMARK       I    between atoms: S16_19  and  O11_26 
REMARK       I    between atoms: S20_20  and  O29_34 
REMARK       I    between atoms: O15_24  and  C10_25 
ROOT
ATOM      1  N14 H1S d 173     -12.216 -22.544 -24.872  0.00  0.00    -0.210 NA
ATOM      2  O32 H1S d 173     -20.223 -19.048 -24.119  0.00  0.00    -0.572 OA
ATOM      3  O3  H1S d 173     -15.287 -19.579 -22.552  0.00  0.00    -0.348 OA
ATOM      4  O28 H1S d 173     -11.359 -20.229 -24.359  0.00  0.00    -0.296 OA
ATOM      5  O25 H1S d 173     -17.211 -16.060 -21.724  0.00  0.00    -0.393 OA
ATOM      6  O9  H1S d 173     -14.184 -20.217 -25.204  0.00  0.00    -0.391 OA
ATOM      7  S26 H1S d 173     -19.753 -19.271 -22.725  0.00  0.00     0.252 S 
ATOM      8  O5  H1S d 173     -15.224 -23.227 -22.803  0.00  0.00    -0.350 OA
ATOM      9  O23 H1S d 173     -17.617 -21.506 -18.462  0.00  0.00    -0.572 OA
ATOM     10  O21 H1S d 173     -18.069 -23.910 -18.792  0.00  0.00    -0.572 OA
ATOM     11  O34 H1S d 173     -15.823 -16.448 -26.595  0.00  0.00    -0.646 OA
ATOM     12  C1  H1S d 173     -15.183 -20.879 -23.143  0.00  0.00     0.095 C 
ATOM     13  O35 H1S d 173     -17.668 -15.383 -26.219  0.00  0.00    -0.646 OA
ATOM     14  C6  H1S d 173     -16.433 -21.910 -21.156  0.00  0.00     0.067 C 
ATOM     15  O30 H1S d 173     -12.107 -20.691 -26.606  0.00  0.00    -0.296 OA
ATOM     16  C12 H1S d 173     -17.379 -18.428 -22.072  0.00  0.00     0.132 C 
ATOM     17  C19 H1S d 173     -16.974 -16.929 -24.554  0.00  0.00     0.127 C 
ATOM     18  C2  H1S d 173     -15.220 -21.983 -22.096  0.00  0.00     0.091 C 
ATOM     19  S16 H1S d 173     -17.005 -22.846 -18.722  0.00  0.00     0.251 S 
ATOM     20  S20 H1S d 173     -11.390 -21.265 -25.420  0.00  0.00     0.156 S 
ATOM     21  O22 H1S d 173     -16.108 -23.116 -17.560  0.00  0.00    -0.572 OA
ATOM     22  O31 H1S d 173     -20.343 -18.183 -21.895  0.00  0.00    -0.572 OA
ATOM     23  C27 H1S d 173     -16.813 -16.222 -25.853  0.00  0.00     0.203 C 
ATOM     24  O15 H1S d 173     -12.902 -23.646 -22.419  0.00  0.00    -0.369 OA
ATOM     25  C10 H1S d 173     -13.947 -23.508 -23.409  0.00  0.00     0.147 C 
ATOM     26  O11 H1S d 173     -16.141 -22.802 -20.041  0.00  0.00    -0.254 OA
ATOM     27  O13 H1S d 173     -15.912 -17.730 -23.928  0.00  0.00    -0.343 OA
ATOM     28  C17 H1S d 173     -18.009 -17.072 -22.356  0.00  0.00     0.069 C 
ATOM     29  C8  H1S d 173     -13.597 -22.413 -24.429  0.00  0.00     0.081 C 
ATOM     30  C7  H1S d 173     -16.378 -18.850 -23.149  0.00  0.00     0.161 C 
ATOM     31  C4  H1S d 173     -13.926 -20.974 -24.002  0.00  0.00     0.083 C 
ATOM     32  O18 H1S d 173     -18.416 -19.417 -21.947  0.00  0.00    -0.244 OA
ATOM     33  C24 H1S d 173     -18.106 -16.843 -23.854  0.00  0.00    -0.005 C 
ATOM     34  O29 H1S d 173      -9.967 -21.620 -25.684  0.00  0.00    -0.296 OA
ATOM     35  O33 H1S d 173     -20.231 -20.557 -22.168  0.00  0.00    -0.572 OA
ATOM     36  H   H1S d 173     -12.217 -23.232 -25.625  0.00  0.00     0.140 HD
ATOM     37  H   H1S d 173     -12.265 -19.958 -24.144  0.00  0.00     0.231 HD
ATOM     38  H   H1S d 173     -17.167 -16.232 -20.770  0.00  0.00     0.210 HD
ATOM     39  H   H1S d 173     -14.396 -19.300 -24.969  0.00  0.00     0.210 HD
ATOM     40  H   H1S d 173     -16.036 -21.021 -23.773  0.00  0.00     0.091 H 
ATOM     41  H   H1S d 173     -17.316 -22.232 -21.666  0.00  0.00     0.080 H 
ATOM     42  H   H1S d 173     -16.603 -20.909 -20.820  0.00  0.00     0.080 H 
ATOM     43  H   H1S d 173     -13.022 -20.486 -26.362  0.00  0.00     0.231 HD
ATOM     44  H   H1S d 173     -16.832 -18.346 -21.157  0.00  0.00     0.097 H 
ATOM     45  H   H1S d 173     -16.723 -16.845 -25.590  0.00  0.00     0.100 H 
ATOM     46  H   H1S d 173     -14.366 -21.875 -21.462  0.00  0.00     0.090 H 
ATOM     47  H   H1S d 173     -13.144 -24.342 -21.787  0.00  0.00     0.212 HD
ATOM     48  H   H1S d 173     -14.022 -24.446 -23.919  0.00  0.00     0.131 H 
ATOM     49  H   H1S d 173     -19.003 -17.033 -21.961  0.00  0.00     0.087 H 
ATOM     50  H   H1S d 173     -14.254 -22.588 -25.255  0.00  0.00     0.076 H 
ATOM     51  H   H1S d 173     -16.883 -19.499 -23.834  0.00  0.00     0.133 H 
ATOM     52  H   H1S d 173     -13.101 -20.607 -23.430  0.00  0.00     0.089 H 
ATOM     53  H   H1S d 173     -18.785 -17.570 -24.248  0.00  0.00     0.041 H 
ATOM     54  H   H1S d 173     -18.422 -15.826 -23.959  0.00  0.00     0.041 H 
ATOM     55  H   H1S d 173      -9.569 -21.983 -24.877  0.00  0.00     0.231 HD
ENDROOT
TORSDOF 16
ENDMDL
MODEL 4
REMARK VINA RESULT:      -8.5      3.202      4.745
REMARK  0 active torsions:
REMARK  status: ('A' for Active; 'I' for Inactive)
REMARK       I    between atoms: N14_1  and  C8_29 
REMARK       I    between atoms: N14_1  and  S20_20 
REMARK       I    between atoms: O3_3  and  C1_12 
REMARK       I    between atoms: O3_3  and  C7_30 
REMARK       I    between atoms: O28_4  and  S20_20 
REMARK       I    between atoms: O25_5  and  C17_28 
REMARK       I    between atoms: O9_6  and  C4_31 
REMARK       I    between atoms: S26_7  and  O18_32 
REMARK       I    between atoms: C6_14  and  C2_18 
REMARK       I    between atoms: C6_14  and  O11_26 
REMARK       I    between atoms: O30_15  and  S20_20 
REMARK       I    between atoms: C12_16  and  O18_32 
REMARK       I    between atoms: C19_17  and  C27_23 
REMARK       I    between atoms: S16_19  and  O11_26 
REMARK       I    between atoms: S20_20  and  O29_34 
REMARK       I    between atoms: O15_24  and  C10_25 
ROOT
ATOM      1  N14 H1S d 173     -23.360 -21.644 -24.818  0.00  0.00    -0.210 NA
ATOM      2  O32 H1S d 173     -15.418 -18.073 -25.859  0.00  0.00    -0.572 OA
ATOM      3  O3  H1S d 173     -19.559 -19.270 -22.940  0.00  0.00    -0.348 OA
ATOM      4  O28 H1S d 173     -22.480 -22.509 -22.620  0.00  0.00    -0.296 OA
ATOM      5  O25 H1S d 173     -15.937 -18.850 -21.078  0.00  0.00    -0.393 OA
ATOM      6  O9  H1S d 173     -20.317 -21.681 -24.446  0.00  0.00    -0.391 OA
ATOM      7  S26 H1S d 173     -16.146 -17.162 -24.935  0.00  0.00     0.252 S 
ATOM      8  O5  H1S d 173     -22.048 -18.219 -25.405  0.00  0.00    -0.350 OA
ATOM      9  O23 H1S d 173     -19.929 -14.200 -22.780  0.00  0.00    -0.572 OA
ATOM     10  O21 H1S d 173     -21.191 -13.375 -24.735  0.00  0.00    -0.572 OA
ATOM     11  O34 H1S d 173     -16.341 -23.218 -23.638  0.00  0.00    -0.646 OA
ATOM     12  C1  H1S d 173     -20.417 -19.327 -24.085  0.00  0.00     0.095 C 
ATOM     13  O35 H1S d 173     -14.369 -22.329 -23.589  0.00  0.00    -0.646 OA
ATOM     14  C6  H1S d 173     -20.578 -16.769 -24.124  0.00  0.00     0.067 C 
ATOM     15  O30 H1S d 173     -21.873 -23.694 -24.632  0.00  0.00    -0.296 OA
ATOM     16  C12 H1S d 173     -17.372 -18.201 -22.888  0.00  0.00     0.132 C 
ATOM     17  C19 H1S d 173     -16.206 -20.863 -23.244  0.00  0.00     0.127 C 
ATOM     18  C2  H1S d 173     -21.325 -18.110 -24.175  0.00  0.00     0.091 C 
ATOM     19  S16 H1S d 173     -21.233 -14.254 -23.512  0.00  0.00     0.251 S 
ATOM     20  S20 H1S d 173     -22.979 -22.951 -23.944  0.00  0.00     0.156 S 
ATOM     21  O22 H1S d 173     -22.256 -13.731 -22.559  0.00  0.00    -0.572 OA
ATOM     22  O31 H1S d 173     -15.130 -16.590 -24.008  0.00  0.00    -0.572 OA
ATOM     23  C27 H1S d 173     -15.613 -22.202 -23.505  0.00  0.00     0.203 C 
ATOM     24  O15 H1S d 173     -24.051 -18.996 -24.355  0.00  0.00    -0.369 OA
ATOM     25  C10 H1S d 173     -23.042 -19.262 -25.357  0.00  0.00     0.147 C 
ATOM     26  O11 H1S d 173     -21.587 -15.745 -23.881  0.00  0.00    -0.254 OA
ATOM     27  O13 H1S d 173     -17.615 -20.655 -22.882  0.00  0.00    -0.343 OA
ATOM     28  C17 H1S d 173     -15.950 -18.565 -22.484  0.00  0.00     0.069 C 
ATOM     29  C8  H1S d 173     -22.367 -20.620 -25.111  0.00  0.00     0.081 C 
ATOM     30  C7  H1S d 173     -18.184 -19.414 -23.345  0.00  0.00     0.161 C 
ATOM     31  C4  H1S d 173     -21.225 -20.621 -24.081  0.00  0.00     0.083 C 
ATOM     32  O18 H1S d 173     -17.331 -17.212 -23.931  0.00  0.00    -0.244 OA
ATOM     33  C24 H1S d 173     -15.464 -19.755 -23.293  0.00  0.00    -0.005 C 
ATOM     34  O29 H1S d 173     -24.187 -23.780 -23.667  0.00  0.00    -0.296 OA
ATOM     35  O33 H1S d 173     -16.780 -16.028 -25.645  0.00  0.00    -0.572 OA
ATOM     36  H   H1S d 173     -23.698 -21.985 -25.718  0.00  0.00     0.140 HD
ATOM     37  H   H1S d 173     -21.688 -21.961 -22.739  0.00  0.00     0.231 HD
ATOM     38  H   H1S d 173     -16.251 -18.074 -20.588  0.00  0.00     0.210 HD
ATOM     39  H   H1S d 173     -19.582 -21.710 -23.814  0.00  0.00     0.210 HD
ATOM     40  H   H1S d 173     -19.798 -19.317 -24.958  0.00  0.00     0.091 H 
ATOM     41  H   H1S d 173     -20.081 -16.586 -25.053  0.00  0.00     0.080 H 
ATOM     42  H   H1S d 173     -19.832 -16.769 -23.356  0.00  0.00     0.080 H 
ATOM     43  H   H1S d 173     -21.124 -23.096 -24.780  0.00  0.00     0.231 HD
ATOM     44  H   H1S d 173     -17.863 -17.809 -22.022  0.00  0.00     0.097 H 
ATOM     45  H   H1S d 173     -16.147 -21.827 -23.704  0.00  0.00     0.100 H 
ATOM     46  H   H1S d 173     -21.969 -18.106 -23.321  0.00  0.00     0.090 H 
ATOM     47  H   H1S d 173     -24.463 -18.135 -24.531  0.00  0.00     0.212 HD
ATOM     48  H   H1S d 173     -23.539 -19.289 -26.304  0.00  0.00     0.131 H 
ATOM     49  H   H1S d 173     -15.286 -17.750 -22.684  0.00  0.00     0.087 H 
ATOM     50  H   H1S d 173     -21.876 -20.853 -26.032  0.00  0.00     0.076 H 
ATOM     51  H   H1S d 173     -18.148 -19.452 -24.414  0.00  0.00     0.133 H 
ATOM     52  H   H1S d 173     -21.661 -20.740 -23.112  0.00  0.00     0.089 H 
ATOM     53  H   H1S d 173     -15.409 -19.448 -24.317  0.00  0.00     0.041 H 
ATOM     54  H   H1S d 173     -14.528 -20.027 -22.852  0.00  0.00     0.041 H 
ATOM     55  H   H1S d 173     -24.857 -23.237 -23.224  0.00  0.00     0.231 HD
ENDROOT
TORSDOF 16
ENDMDL
MODEL 5
REMARK VINA RESULT:      -6.2      2.750      6.131
REMARK  0 active torsions:
REMARK  status: ('A' for Active; 'I' for Inactive)
REMARK       I    between atoms: N14_1  and  C8_29 
REMARK       I    between atoms: N14_1  and  S20_20 
REMARK       I    between atoms: O3_3  and  C1_12 
REMARK       I    between atoms: O3_3  and  C7_30 
REMARK       I    between atoms: O28_4  and  S20_20 
REMARK       I    between atoms: O25_5  and  C17_28 
REMARK       I    between atoms: O9_6  and  C4_31 
REMARK       I    between atoms: S26_7  and  O18_32 
REMARK       I    between atoms: C6_14  and  C2_18 
REMARK       I    between atoms: C6_14  and  O11_26 
REMARK       I    between atoms: O30_15  and  S20_20 
REMARK       I    between atoms: C12_16  and  O18_32 
REMARK       I    between atoms: C19_17  and  C27_23 
REMARK       I    between atoms: S16_19  and  O11_26 
REMARK       I    between atoms: S20_20  and  O29_34 
REMARK       I    between atoms: O15_24  and  C10_25 
ROOT
ATOM      1  N14 H1S d 173     -17.376 -15.312 -24.996  0.00  0.00    -0.210 NA
ATOM      2  O32 H1S d 173     -14.886 -21.557 -19.366  0.00  0.00    -0.572 OA
ATOM      3  O3  H1S d 173     -17.203 -20.008 -23.763  0.00  0.00    -0.348 OA
ATOM      4  O28 H1S d 173     -16.659 -16.915 -26.805  0.00  0.00    -0.296 OA
ATOM      5  O25 H1S d 173     -15.670 -23.803 -23.618  0.00  0.00    -0.393 OA
ATOM      6  O9  H1S d 173     -15.534 -17.620 -24.171  0.00  0.00    -0.391 OA
ATOM      7  S26 H1S d 173     -16.226 -21.977 -19.859  0.00  0.00     0.252 S 
ATOM      8  O5  H1S d 173     -19.004 -17.208 -22.249  0.00  0.00    -0.350 OA
ATOM      9  O23 H1S d 173     -21.278 -21.849 -21.338  0.00  0.00    -0.572 OA
ATOM     10  O21 H1S d 173     -22.256 -20.116 -19.878  0.00  0.00    -0.572 OA
ATOM     11  O34 H1S d 173     -12.080 -20.246 -24.126  0.00  0.00    -0.646 OA
ATOM     12  C1  H1S d 173     -17.445 -18.698 -23.237  0.00  0.00     0.095 C 
ATOM     13  O35 H1S d 173     -11.531 -21.984 -22.962  0.00  0.00    -0.646 OA
ATOM     14  C6  H1S d 173     -19.458 -19.572 -21.913  0.00  0.00     0.067 C 
ATOM     15  O30 H1S d 173     -14.950 -15.642 -25.672  0.00  0.00    -0.296 OA
ATOM     16  C12 H1S d 173     -16.656 -21.969 -22.426  0.00  0.00     0.132 C 
ATOM     17  C19 H1S d 173     -13.852 -21.506 -23.130  0.00  0.00     0.127 C 
ATOM     18  C2  H1S d 173     -18.905 -18.498 -22.861  0.00  0.00     0.091 C 
ATOM     19  S16 H1S d 173     -21.890 -20.484 -21.292  0.00  0.00     0.251 S 
ATOM     20  S20 H1S d 173     -16.348 -15.591 -26.214  0.00  0.00     0.156 S 
ATOM     21  O22 H1S d 173     -23.128 -20.565 -22.122  0.00  0.00    -0.572 OA
ATOM     22  O31 H1S d 173     -16.225 -23.467 -19.887  0.00  0.00    -0.572 OA
ATOM     23  C27 H1S d 173     -12.420 -21.229 -23.419  0.00  0.00     0.203 C 
ATOM     24  O15 H1S d 173     -19.897 -16.161 -24.204  0.00  0.00    -0.369 OA
ATOM     25  C10 H1S d 173     -18.850 -16.142 -23.206  0.00  0.00     0.147 C 
ATOM     26  O11 H1S d 173     -20.909 -19.428 -21.931  0.00  0.00    -0.254 OA
ATOM     27  O13 H1S d 173     -14.965 -20.837 -23.820  0.00  0.00    -0.343 OA
ATOM     28  C17 H1S d 173     -15.585 -23.051 -22.399  0.00  0.00     0.069 C 
ATOM     29  C8  H1S d 173     -17.463 -16.222 -23.862  0.00  0.00     0.081 C 
ATOM     30  C7  H1S d 173     -16.150 -20.653 -23.020  0.00  0.00     0.161 C 
ATOM     31  C4  H1S d 173     -16.977 -17.634 -24.225  0.00  0.00     0.083 C 
ATOM     32  O18 H1S d 173     -17.146 -21.752 -21.091  0.00  0.00    -0.244 OA
ATOM     33  C24 H1S d 173     -14.212 -22.424 -22.231  0.00  0.00    -0.005 C 
ATOM     34  O29 H1S d 173     -16.537 -14.601 -27.312  0.00  0.00    -0.296 OA
ATOM     35  O33 H1S d 173     -17.317 -21.555 -18.952  0.00  0.00    -0.572 OA
ATOM     36  H   H1S d 173     -17.133 -14.397 -24.615  0.00  0.00     0.140 HD
ATOM     37  H   H1S d 173     -16.551 -17.604 -26.130  0.00  0.00     0.231 HD
ATOM     38  H   H1S d 173     -16.556 -24.190 -23.698  0.00  0.00     0.210 HD
ATOM     39  H   H1S d 173     -15.193 -18.500 -24.396  0.00  0.00     0.210 HD
ATOM     40  H   H1S d 173     -16.876 -18.598 -22.336  0.00  0.00     0.091 H 
ATOM     41  H   H1S d 173     -19.083 -19.421 -20.923  0.00  0.00     0.080 H 
ATOM     42  H   H1S d 173     -19.162 -20.553 -22.223  0.00  0.00     0.080 H 
ATOM     43  H   H1S d 173     -14.901 -16.304 -24.965  0.00  0.00     0.231 HD
ATOM     44  H   H1S d 173     -17.446 -22.311 -23.060  0.00  0.00     0.097 H 
ATOM     45  H   H1S d 173     -12.991 -20.887 -23.268  0.00  0.00     0.100 H 
ATOM     46  H   H1S d 173     -19.496 -18.575 -23.750  0.00  0.00     0.090 H 
ATOM     47  H   H1S d 173     -20.762 -16.109 -23.767  0.00  0.00     0.212 HD
ATOM     48  H   H1S d 173     -18.933 -15.213 -22.682  0.00  0.00     0.131 H 
ATOM     49  H   H1S d 173     -15.741 -23.707 -21.569  0.00  0.00     0.087 H 
ATOM     50  H   H1S d 173     -16.781 -15.908 -23.101  0.00  0.00     0.076 H 
ATOM     51  H   H1S d 173     -15.866 -20.012 -22.211  0.00  0.00     0.133 H 
ATOM     52  H   H1S d 173     -17.370 -17.877 -25.190  0.00  0.00     0.089 H 
ATOM     53  H   H1S d 173     -14.185 -21.960 -21.267  0.00  0.00     0.041 H 
ATOM     54  H   H1S d 173     -13.522 -23.230 -22.365  0.00  0.00     0.041 H 
ATOM     55  H   H1S d 173     -17.459 -14.623 -27.611  0.00  0.00     0.231 HD
ENDROOT
TORSDOF 16
ENDMDL
MODEL 6
REMARK VINA RESULT:      -6.1      3.694      6.822
REMARK  0 active torsions:
REMARK  status: ('A' for Active; 'I' for Inactive)
REMARK       I    between atoms: N14_1  and  C8_29 
REMARK       I    between atoms: N14_1  and  S20_20 
REMARK       I    between atoms: O3_3  and  C1_12 
REMARK       I    between atoms: O3_3  and  C7_30 
REMARK       I    between atoms: O28_4  and  S20_20 
REMARK       I    between atoms: O25_5  and  C17_28 
REMARK       I    between atoms: O9_6  and  C4_31 
REMARK       I    between atoms: S26_7  and  O18_32 
REMARK       I    between atoms: C6_14  and  C2_18 
REMARK       I    between atoms: C6_14  and  O11_26 
REMARK       I    between atoms: O30_15  and  S20_20 
REMARK       I    between atoms: C12_16  and  O18_32 
REMARK       I    between atoms: C19_17  and  C27_23 
REMARK       I    between atoms: S16_19  and  O11_26 
REMARK       I    between atoms: S20_20  and  O29_34 
REMARK       I    between atoms: O15_24  and  C10_25 
ROOT
ATOM      1  N14 H1S d 173     -21.940 -22.274 -23.313  0.00  0.00    -0.210 NA
ATOM      2  O32 H1S d 173     -16.241 -15.613 -23.043  0.00  0.00    -0.572 OA
ATOM      3  O3  H1S d 173     -19.962 -18.369 -25.422  0.00  0.00    -0.348 OA
ATOM      4  O28 H1S d 173     -23.548 -20.614 -24.319  0.00  0.00    -0.296 OA
ATOM      5  O25 H1S d 173     -19.575 -14.408 -26.384  0.00  0.00    -0.393 OA
ATOM      6  O9  H1S d 173     -21.283 -19.300 -22.964  0.00  0.00    -0.391 OA
ATOM      7  S26 H1S d 173     -16.228 -16.091 -24.452  0.00  0.00     0.252 S 
ATOM      8  O5  H1S d 173     -18.531 -21.644 -24.647  0.00  0.00    -0.350 OA
ATOM      9  O23 H1S d 173     -16.141 -19.254 -28.661  0.00  0.00    -0.572 OA
ATOM     10  O21 H1S d 173     -14.806 -21.184 -27.897  0.00  0.00    -0.572 OA
ATOM     11  O34 H1S d 173     -21.776 -15.131 -21.864  0.00  0.00    -0.646 OA
ATOM     12  C1  H1S d 173     -19.642 -19.548 -24.675  0.00  0.00     0.095 C 
ATOM     13  O35 H1S d 173     -20.524 -13.375 -22.037  0.00  0.00    -0.646 OA
ATOM     14  C6  H1S d 173     -17.642 -20.010 -26.211  0.00  0.00     0.067 C 
ATOM     15  O30 H1S d 173     -23.229 -20.581 -21.927  0.00  0.00    -0.296 OA
ATOM     16  C12 H1S d 173     -18.507 -16.431 -25.662  0.00  0.00     0.132 C 
ATOM     17  C19 H1S d 173     -20.083 -15.149 -23.555  0.00  0.00     0.127 C 
ATOM     18  C2  H1S d 173     -18.894 -20.569 -25.519  0.00  0.00     0.091 C 
ATOM     19  S16 H1S d 173     -16.170 -20.712 -28.326  0.00  0.00     0.251 S 
ATOM     20  S20 H1S d 173     -23.333 -21.472 -23.129  0.00  0.00     0.156 S 
ATOM     21  O22 H1S d 173     -16.566 -21.411 -29.584  0.00  0.00    -0.572 OA
ATOM     22  O31 H1S d 173     -15.977 -14.898 -25.307  0.00  0.00    -0.572 OA
ATOM     23  C27 H1S d 173     -20.830 -14.525 -22.430  0.00  0.00     0.203 C 
ATOM     24  O15 H1S d 173     -20.293 -23.075 -25.399  0.00  0.00    -0.369 OA
ATOM     25  C10 H1S d 173     -19.671 -22.435 -24.259  0.00  0.00     0.147 C 
ATOM     26  O11 H1S d 173     -17.256 -20.992 -27.217  0.00  0.00    -0.254 OA
ATOM     27  O13 H1S d 173     -20.524 -16.370 -24.244  0.00  0.00    -0.343 OA
ATOM     28  C17 H1S d 173     -18.597 -14.924 -25.469  0.00  0.00     0.069 C 
ATOM     29  C8  H1S d 173     -20.682 -21.562 -23.500  0.00  0.00     0.081 C 
ATOM     30  C7  H1S d 173     -19.458 -17.201 -24.744  0.00  0.00     0.161 C 
ATOM     31  C4  H1S d 173     -20.904 -20.151 -24.066  0.00  0.00     0.083 C 
ATOM     32  O18 H1S d 173     -17.152 -16.858 -25.439  0.00  0.00    -0.244 OA
ATOM     33  C24 H1S d 173     -18.964 -14.601 -24.031  0.00  0.00    -0.005 C 
ATOM     34  O29 H1S d 173     -24.489 -22.412 -23.090  0.00  0.00    -0.296 OA
ATOM     35  O33 H1S d 173     -15.133 -17.055 -24.710  0.00  0.00    -0.572 OA
ATOM     36  H   H1S d 173     -21.825 -22.850 -22.479  0.00  0.00     0.140 HD
ATOM     37  H   H1S d 173     -22.820 -19.978 -24.395  0.00  0.00     0.231 HD
ATOM     38  H   H1S d 173     -19.315 -14.629 -27.293  0.00  0.00     0.210 HD
ATOM     39  H   H1S d 173     -21.431 -18.397 -23.287  0.00  0.00     0.210 HD
ATOM     40  H   H1S d 173     -18.984 -19.262 -23.880  0.00  0.00     0.091 H 
ATOM     41  H   H1S d 173     -16.854 -19.878 -25.501  0.00  0.00     0.080 H 
ATOM     42  H   H1S d 173     -17.838 -19.056 -26.655  0.00  0.00     0.080 H 
ATOM     43  H   H1S d 173     -22.459 -20.000 -22.020  0.00  0.00     0.231 HD
ATOM     44  H   H1S d 173     -18.804 -16.647 -26.667  0.00  0.00     0.097 H 
ATOM     45  H   H1S d 173     -20.583 -15.135 -22.609  0.00  0.00     0.100 H 
ATOM     46  H   H1S d 173     -19.537 -20.886 -26.313  0.00  0.00     0.090 H 
ATOM     47  H   H1S d 173     -19.637 -23.619 -25.862  0.00  0.00     0.212 HD
ATOM     48  H   H1S d 173     -19.329 -23.214 -23.611  0.00  0.00     0.131 H 
ATOM     49  H   H1S d 173     -17.652 -14.465 -25.669  0.00  0.00     0.087 H 
ATOM     50  H   H1S d 173     -20.229 -21.384 -22.547  0.00  0.00     0.076 H 
ATOM     51  H   H1S d 173     -18.904 -17.521 -23.887  0.00  0.00     0.133 H 
ATOM     52  H   H1S d 173     -21.646 -20.220 -24.833  0.00  0.00     0.089 H 
ATOM     53  H   H1S d 173     -18.155 -14.928 -23.411  0.00  0.00     0.041 H 
ATOM     54  H   H1S d 173     -19.143 -13.547 -24.021  0.00  0.00     0.041 H 
ATOM     55  H   H1S d 173     -24.493 -22.953 -23.894  0.00  0.00     0.231 HD
ENDROOT
TORSDOF 16
ENDMDL
MODEL 7
REMARK VINA RESULT:      -6.0      2.426      6.110
REMARK  0 active torsions:
REMARK  status: ('A' for Active; 'I' for Inactive)
REMARK       I    between atoms: N14_1  and  C8_29 
REMARK       I    between atoms: N14_1  and  S20_20 
REMARK       I    between atoms: O3_3  and  C1_12 
REMARK       I    between atoms: O3_3  and  C7_30 
REMARK       I    between atoms: O28_4  and  S20_20 
REMARK       I    between atoms: O25_5  and  C17_28 
REMARK       I    between atoms: O9_6  and  C4_31 
REMARK       I    between atoms: S26_7  and  O18_32 
REMARK       I    between atoms: C6_14  and  C2_18 
REMARK       I    between atoms: C6_14  and  O11_26 
REMARK       I    between atoms: O30_15  and  S20_20 
REMARK       I    between atoms: C12_16  and  O18_32 
REMARK       I    between atoms: C19_17  and  C27_23 
REMARK       I    between atoms: S16_19  and  O11_26 
REMARK       I    between atoms: S20_20  and  O29_34 
REMARK       I    between atoms: O15_24  and  C10_25 
ROOT
ATOM      1  N14 H1S d 173     -16.077 -22.783 -19.738  0.00  0.00    -0.210 NA
ATOM      2  O32 H1S d 173     -16.273 -14.923 -23.622  0.00  0.00    -0.572 OA
ATOM      3  O3  H1S d 173     -17.398 -20.004 -23.498  0.00  0.00    -0.348 OA
ATOM      4  O28 H1S d 173     -18.462 -23.023 -20.519  0.00  0.00    -0.296 OA
ATOM      5  O25 H1S d 173     -19.835 -17.536 -25.674  0.00  0.00    -0.393 OA
ATOM      6  O9  H1S d 173     -17.542 -20.222 -20.568  0.00  0.00    -0.391 OA
ATOM      7  S26 H1S d 173     -16.067 -15.905 -24.721  0.00  0.00     0.252 S 
ATOM      8  O5  H1S d 173     -14.089 -21.075 -22.370  0.00  0.00    -0.350 OA
ATOM      9  O23 H1S d 173     -14.262 -19.995 -27.502  0.00  0.00    -0.572 OA
ATOM     10  O21 H1S d 173     -11.919 -20.207 -26.750  0.00  0.00    -0.572 OA
ATOM     11  O34 H1S d 173     -20.589 -17.134 -20.667  0.00  0.00    -0.646 OA
ATOM     12  C1  H1S d 173     -16.310 -20.278 -22.608  0.00  0.00     0.095 C 
ATOM     13  O35 H1S d 173     -20.848 -15.317 -21.812  0.00  0.00    -0.646 OA
ATOM     14  C6  H1S d 173     -14.656 -20.199 -24.565  0.00  0.00     0.067 C 
ATOM     15  O30 H1S d 173     -18.039 -21.697 -18.547  0.00  0.00    -0.296 OA
ATOM     16  C12 H1S d 173     -17.633 -17.980 -24.832  0.00  0.00     0.132 C 
ATOM     17  C19 H1S d 173     -19.472 -16.995 -22.778  0.00  0.00     0.127 C 
ATOM     18  C2  H1S d 173     -15.150 -20.955 -23.322  0.00  0.00     0.091 C 
ATOM     19  S16 H1S d 173     -13.282 -20.849 -26.760  0.00  0.00     0.251 S 
ATOM     20  S20 H1S d 173     -17.626 -22.929 -19.297  0.00  0.00     0.156 S 
ATOM     21  O22 H1S d 173     -13.219 -22.140 -27.508  0.00  0.00    -0.572 OA
ATOM     22  O31 H1S d 173     -16.751 -15.352 -25.923  0.00  0.00    -0.572 OA
ATOM     23  C27 H1S d 173     -20.342 -16.457 -21.698  0.00  0.00     0.203 C 
ATOM     24  O15 H1S d 173     -14.505 -23.391 -21.944  0.00  0.00    -0.369 OA
ATOM     25  C10 H1S d 173     -14.372 -22.070 -21.367  0.00  0.00     0.147 C 
ATOM     26  O11 H1S d 173     -13.802 -21.126 -25.297  0.00  0.00    -0.254 OA
ATOM     27  O13 H1S d 173     -19.044 -18.399 -22.853  0.00  0.00    -0.343 OA
ATOM     28  C17 H1S d 173     -18.688 -16.911 -25.080  0.00  0.00     0.069 C 
ATOM     29  C8  H1S d 173     -15.636 -21.683 -20.584  0.00  0.00     0.081 C 
ATOM     30  C7  H1S d 173     -17.744 -18.606 -23.441  0.00  0.00     0.161 C 
ATOM     31  C4  H1S d 173     -16.790 -21.109 -21.422  0.00  0.00     0.083 C 
ATOM     32  O18 H1S d 173     -16.326 -17.409 -25.014  0.00  0.00    -0.244 OA
ATOM     33  C24 H1S d 173     -19.049 -16.219 -23.778  0.00  0.00    -0.005 C 
ATOM     34  O29 H1S d 173     -17.853 -24.199 -18.551  0.00  0.00    -0.296 OA
ATOM     35  O33 H1S d 173     -14.637 -16.072 -25.067  0.00  0.00    -0.572 OA
ATOM     36  H   H1S d 173     -15.535 -22.721 -18.877  0.00  0.00     0.140 HD
ATOM     37  H   H1S d 173     -18.353 -22.217 -21.048  0.00  0.00     0.231 HD
ATOM     38  H   H1S d 173     -19.575 -17.969 -26.503  0.00  0.00     0.210 HD
ATOM     39  H   H1S d 173     -18.281 -19.840 -21.067  0.00  0.00     0.210 HD
ATOM     40  H   H1S d 173     -15.945 -19.342 -22.241  0.00  0.00     0.091 H 
ATOM     41  H   H1S d 173     -14.099 -19.333 -24.274  0.00  0.00     0.080 H 
ATOM     42  H   H1S d 173     -15.475 -19.865 -25.167  0.00  0.00     0.080 H 
ATOM     43  H   H1S d 173     -17.864 -20.914 -19.091  0.00  0.00     0.231 HD
ATOM     44  H   H1S d 173     -17.797 -18.766 -25.539  0.00  0.00     0.097 H 
ATOM     45  H   H1S d 173     -19.768 -16.820 -21.765  0.00  0.00     0.100 H 
ATOM     46  H   H1S d 173     -15.484 -21.904 -23.684  0.00  0.00     0.090 H 
ATOM     47  H   H1S d 173     -13.697 -23.614 -22.432  0.00  0.00     0.212 HD
ATOM     48  H   H1S d 173     -13.543 -22.106 -20.692  0.00  0.00     0.131 H 
ATOM     49  H   H1S d 173     -18.311 -16.163 -25.746  0.00  0.00     0.087 H 
ATOM     50  H   H1S d 173     -15.336 -20.860 -19.970  0.00  0.00     0.076 H 
ATOM     51  H   H1S d 173     -17.046 -18.111 -22.799  0.00  0.00     0.133 H 
ATOM     52  H   H1S d 173     -17.360 -21.932 -21.798  0.00  0.00     0.089 H 
ATOM     53  H   H1S d 173     -18.179 -15.698 -23.437  0.00  0.00     0.041 H 
ATOM     54  H   H1S d 173     -19.884 -15.595 -24.017  0.00  0.00     0.041 H 
ATOM     55  H   H1S d 173     -17.565 -24.949 -19.093  0.00  0.00     0.231 HD
ENDROOT
TORSDOF 16
ENDMDL
MODEL 8
REMARK VINA RESULT:      -5.0      2.729      6.549
REMARK  0 active torsions:
REMARK  status: ('A' for Active; 'I' for Inactive)
REMARK       I    between atoms: N14_1  and  C8_29 
REMARK       I    between atoms: N14_1  and  S20_20 
REMARK       I    between atoms: O3_3  and  C1_12 
REMARK       I    between atoms: O3_3  and  C7_30 
REMARK       I    between atoms: O28_4  and  S20_20 
REMARK       I    between atoms: O25_5  and  C17_28 
REMARK       I    between atoms: O9_6  and  C4_31 
REMARK       I    between atoms: S26_7  and  O18_32 
REMARK       I    between atoms: C6_14  and  C2_18 
REMARK       I    between atoms: C6_14  and  O11_26 
REMARK       I    between atoms: O30_15  and  S20_20 
REMARK       I    between atoms: C12_16  and  O18_32 
REMARK       I    between atoms: C19_17  and  C27_23 
REMARK       I    between atoms: S16_19  and  O11_26 
REMARK       I    between atoms: S20_20  and  O29_34 
REMARK       I    between atoms: O15_24  and  C10_25 
ROOT
ATOM      1  N14 H1S d 173     -13.687 -18.268 -25.882  0.00  0.00    -0.210 NA
ATOM      2  O32 H1S d 173     -19.617 -18.063 -19.425  0.00  0.00    -0.572 OA
ATOM      3  O3  H1S d 173     -18.191 -19.178 -24.306  0.00  0.00    -0.348 OA
ATOM      4  O28 H1S d 173     -14.613 -20.551 -26.410  0.00  0.00    -0.296 OA
ATOM      5  O25 H1S d 173     -21.214 -21.371 -22.625  0.00  0.00    -0.393 OA
ATOM      6  O9  H1S d 173     -15.349 -19.642 -23.704  0.00  0.00    -0.391 OA
ATOM      7  S26 H1S d 173     -20.368 -17.734 -20.666  0.00  0.00     0.252 S 
ATOM      8  O5  H1S d 173     -16.470 -16.008 -24.907  0.00  0.00    -0.350 OA
ATOM      9  O23 H1S d 173     -21.687 -15.622 -25.306  0.00  0.00    -0.572 OA
ATOM     10  O21 H1S d 173     -20.667 -13.376 -25.220  0.00  0.00    -0.572 OA
ATOM     11  O34 H1S d 173     -16.628 -22.670 -20.871  0.00  0.00    -0.646 OA
ATOM     12  C1  H1S d 173     -17.152 -18.194 -24.284  0.00  0.00     0.095 C 
ATOM     13  O35 H1S d 173     -18.256 -22.807 -19.454  0.00  0.00    -0.646 OA
ATOM     14  C6  H1S d 173     -18.869 -16.335 -24.696  0.00  0.00     0.067 C 
ATOM     15  O30 H1S d 173     -13.059 -20.352 -24.574  0.00  0.00    -0.296 OA
ATOM     16  C12 H1S d 173     -20.056 -19.273 -22.742  0.00  0.00     0.132 C 
ATOM     17  C19 H1S d 173     -18.564 -21.328 -21.287  0.00  0.00     0.127 C 
ATOM     18  C2  H1S d 173     -17.522 -16.959 -25.093  0.00  0.00     0.091 C 
ATOM     19  S16 H1S d 173     -20.638 -14.727 -25.885  0.00  0.00     0.251 S 
ATOM     20  S20 H1S d 173     -13.387 -19.856 -25.952  0.00  0.00     0.156 S 
ATOM     21  O22 H1S d 173     -20.983 -14.578 -27.330  0.00  0.00    -0.572 OA
ATOM     22  O31 H1S d 173     -21.742 -18.285 -20.494  0.00  0.00    -0.572 OA
ATOM     23  C27 H1S d 173     -17.775 -22.314 -20.500  0.00  0.00     0.203 C 
ATOM     24  O15 H1S d 173     -15.457 -16.462 -27.026  0.00  0.00    -0.369 OA
ATOM     25  C10 H1S d 173     -15.263 -16.397 -25.594  0.00  0.00     0.147 C 
ATOM     26  O11 H1S d 173     -19.219 -15.403 -25.762  0.00  0.00    -0.254 OA
ATOM     27  O13 H1S d 173     -18.197 -20.890 -22.642  0.00  0.00    -0.343 OA
ATOM     28  C17 H1S d 173     -20.703 -20.297 -21.821  0.00  0.00     0.069 C 
ATOM     29  C8  H1S d 173     -14.757 -17.740 -25.046  0.00  0.00     0.081 C 
ATOM     30  C7  H1S d 173     -18.565 -19.533 -22.959  0.00  0.00     0.161 C 
ATOM     31  C4  H1S d 173     -15.837 -18.798 -24.768  0.00  0.00     0.083 C 
ATOM     32  O18 H1S d 173     -20.253 -17.955 -22.200  0.00  0.00    -0.244 OA
ATOM     33  C24 H1S d 173     -19.692 -20.801 -20.807  0.00  0.00    -0.005 C 
ATOM     34  O29 H1S d 173     -12.342 -20.159 -26.970  0.00  0.00    -0.296 OA
ATOM     35  O33 H1S d 173     -20.503 -16.275 -20.874  0.00  0.00    -0.572 OA
ATOM     36  H   H1S d 173     -12.825 -17.823 -25.564  0.00  0.00     0.140 HD
ATOM     37  H   H1S d 173     -15.333 -20.388 -25.780  0.00  0.00     0.231 HD
ATOM     38  H   H1S d 173     -21.856 -21.019 -23.262  0.00  0.00     0.210 HD
ATOM     39  H   H1S d 173     -16.010 -20.323 -23.502  0.00  0.00     0.210 HD
ATOM     40  H   H1S d 173     -17.026 -17.873 -23.271  0.00  0.00     0.091 H 
ATOM     41  H   H1S d 173     -18.776 -15.816 -23.766  0.00  0.00     0.080 H 
ATOM     42  H   H1S d 173     -19.622 -17.084 -24.572  0.00  0.00     0.080 H 
ATOM     43  H   H1S d 173     -13.779 -20.120 -23.968  0.00  0.00     0.231 HD
ATOM     44  H   H1S d 173     -20.527 -19.355 -23.699  0.00  0.00     0.097 H 
ATOM     45  H   H1S d 173     -17.677 -21.735 -20.847  0.00  0.00     0.100 H 
ATOM     46  H   H1S d 173     -17.637 -17.249 -26.116  0.00  0.00     0.090 H 
ATOM     47  H   H1S d 173     -15.777 -15.604 -27.348  0.00  0.00     0.212 HD
ATOM     48  H   H1S d 173     -14.523 -15.647 -25.411  0.00  0.00     0.131 H 
ATOM     49  H   H1S d 173     -21.508 -19.852 -21.275  0.00  0.00     0.087 H 
ATOM     50  H   H1S d 173     -14.370 -17.512 -24.075  0.00  0.00     0.076 H 
ATOM     51  H   H1S d 173     -18.018 -18.911 -22.282  0.00  0.00     0.133 H 
ATOM     52  H   H1S d 173     -16.025 -19.320 -25.682  0.00  0.00     0.089 H 
ATOM     53  H   H1S d 173     -19.421 -19.975 -20.182  0.00  0.00     0.041 H 
ATOM     54  H   H1S d 173     -20.182 -21.607 -20.302  0.00  0.00     0.041 H 
ATOM     55  H   H1S d 173     -12.619 -19.810 -27.831  0.00  0.00     0.231 HD
ENDROOT
TORSDOF 16
ENDMDL
MODEL 9
REMARK VINA RESULT:      -4.6      3.694      7.482
REMARK  0 active torsions:
REMARK  status: ('A' for Active; 'I' for Inactive)
REMARK       I    between atoms: N14_1  and  C8_29 
REMARK       I    between atoms: N14_1  and  S20_20 
REMARK       I    between atoms: O3_3  and  C1_12 
REMARK       I    between atoms: O3_3  and  C7_30 
REMARK       I    between atoms: O28_4  and  S20_20 
REMARK       I    between atoms: O25_5  and  C17_28 
REMARK       I    between atoms: O9_6  and  C4_31 
REMARK       I    between atoms: S26_7  and  O18_32 
REMARK       I    between atoms: C6_14  and  C2_18 
REMARK       I    between atoms: C6_14  and  O11_26 
REMARK       I    between atoms: O30_15  and  S20_20 
REMARK       I    between atoms: C12_16  and  O18_32 
REMARK       I    between atoms: C19_17  and  C27_23 
REMARK       I    between atoms: S16_19  and  O11_26 
REMARK       I    between atoms: S20_20  and  O29_34 
REMARK       I    between atoms: O15_24  and  C10_25 
ROOT
ATOM      1  N14 H1S d 173     -15.763 -19.675 -27.641  0.00  0.00    -0.210 NA
ATOM      2  O32 H1S d 173     -21.225 -21.506 -21.029  0.00  0.00    -0.572 OA
ATOM      3  O3  H1S d 173     -20.150 -19.250 -25.596  0.00  0.00    -0.348 OA
ATOM      4  O28 H1S d 173     -17.741 -20.093 -29.146  0.00  0.00    -0.296 OA
ATOM      5  O25 H1S d 173     -24.040 -20.253 -24.803  0.00  0.00    -0.393 OA
ATOM      6  O9  H1S d 173     -18.130 -21.213 -26.446  0.00  0.00    -0.391 OA
ATOM      7  S26 H1S d 173     -21.529 -20.103 -21.419  0.00  0.00     0.252 S 
ATOM      8  O5  H1S d 173     -16.903 -17.912 -24.576  0.00  0.00    -0.350 OA
ATOM      9  O23 H1S d 173     -20.944 -15.061 -22.822  0.00  0.00    -0.572 OA
ATOM     10  O21 H1S d 173     -18.862 -14.389 -21.678  0.00  0.00    -0.572 OA
ATOM     11  O34 H1S d 173     -21.172 -24.274 -25.988  0.00  0.00    -0.646 OA
ATOM     12  C1  H1S d 173     -18.748 -19.212 -25.307  0.00  0.00     0.095 C 
ATOM     13  O35 H1S d 173     -22.742 -24.625 -24.542  0.00  0.00    -0.646 OA
ATOM     14  C6  H1S d 173     -19.084 -17.152 -23.819  0.00  0.00     0.067 C 
ATOM     15  O30 H1S d 173     -16.546 -22.004 -28.283  0.00  0.00    -0.296 OA
ATOM     16  C12 H1S d 173     -21.906 -19.576 -23.940  0.00  0.00     0.132 C 
ATOM     17  C19 H1S d 173     -21.976 -22.386 -24.757  0.00  0.00     0.127 C 
ATOM     18  C2  H1S d 173     -18.280 -17.809 -24.951  0.00  0.00     0.091 C 
ATOM     19  S16 H1S d 173     -19.519 -14.645 -23.010  0.00  0.00     0.251 S 
ATOM     20  S20 H1S d 173     -16.392 -20.605 -28.804  0.00  0.00     0.156 S 
ATOM     21  O22 H1S d 173     -19.566 -13.375 -23.793  0.00  0.00    -0.572 OA
ATOM     22  O31 H1S d 173     -22.986 -19.898 -21.183  0.00  0.00    -0.572 OA
ATOM     23  C27 H1S d 173     -21.959 -23.831 -25.113  0.00  0.00     0.203 C 
ATOM     24  O15 H1S d 173     -16.094 -17.095 -26.673  0.00  0.00    -0.369 OA
ATOM     25  C10 H1S d 173     -16.052 -18.173 -25.709  0.00  0.00     0.147 C 
ATOM     26  O11 H1S d 173     -18.739 -15.735 -23.840  0.00  0.00    -0.254 OA
ATOM     27  O13 H1S d 173     -21.286 -21.350 -25.538  0.00  0.00    -0.343 OA
ATOM     28  C17 H1S d 173     -23.108 -20.488 -23.738  0.00  0.00     0.069 C 
ATOM     29  C8  H1S d 173     -16.441 -19.509 -26.362  0.00  0.00     0.081 C 
ATOM     30  C7  H1S d 173     -20.799 -20.234 -24.766  0.00  0.00     0.161 C 
ATOM     31  C4  H1S d 173     -17.949 -19.782 -26.475  0.00  0.00     0.083 C 
ATOM     32  O18 H1S d 173     -21.393 -19.174 -22.658  0.00  0.00    -0.244 OA
ATOM     33  C24 H1S d 173     -22.663 -21.940 -23.705  0.00  0.00    -0.005 C 
ATOM     34  O29 H1S d 173     -15.591 -20.510 -30.057  0.00  0.00    -0.296 OA
ATOM     35  O33 H1S d 173     -20.806 -19.116 -20.585  0.00  0.00    -0.572 OA
ATOM     36  H   H1S d 173     -14.840 -20.056 -27.432  0.00  0.00     0.140 HD
ATOM     37  H   H1S d 173     -18.310 -20.131 -28.361  0.00  0.00     0.231 HD
ATOM     38  H   H1S d 173     -24.305 -19.319 -24.799  0.00  0.00     0.210 HD
ATOM     39  H   H1S d 173     -19.075 -21.421 -26.516  0.00  0.00     0.210 HD
ATOM     40  H   H1S d 173     -18.574 -19.824 -24.447  0.00  0.00     0.091 H 
ATOM     41  H   H1S d 173     -18.818 -17.583 -22.878  0.00  0.00     0.080 H 
ATOM     42  H   H1S d 173     -20.135 -17.299 -23.955  0.00  0.00     0.080 H 
ATOM     43  H   H1S d 173     -17.075 -21.989 -27.470  0.00  0.00     0.231 HD
ATOM     44  H   H1S d 173     -22.237 -18.722 -24.492  0.00  0.00     0.097 H 
ATOM     45  H   H1S d 173     -21.519 -23.319 -25.016  0.00  0.00     0.100 H 
ATOM     46  H   H1S d 173     -18.425 -17.178 -25.803  0.00  0.00     0.090 H 
ATOM     47  H   H1S d 173     -15.846 -16.263 -26.239  0.00  0.00     0.212 HD
ATOM     48  H   H1S d 173     -15.043 -18.240 -25.358  0.00  0.00     0.131 H 
ATOM     49  H   H1S d 173     -23.582 -20.277 -22.802  0.00  0.00     0.087 H 
ATOM     50  H   H1S d 173     -16.099 -20.257 -25.678  0.00  0.00     0.076 H 
ATOM     51  H   H1S d 173     -20.075 -20.635 -24.088  0.00  0.00     0.133 H 
ATOM     52  H   H1S d 173     -18.297 -19.321 -27.375  0.00  0.00     0.089 H 
ATOM     53  H   H1S d 173     -22.048 -22.069 -22.839  0.00  0.00     0.041 H 
ATOM     54  H   H1S d 173     -23.570 -22.508 -23.703  0.00  0.00     0.041 H 
ATOM     55  H   H1S d 173     -15.533 -19.583 -30.334  0.00  0.00     0.231 HD
ENDROOT
TORSDOF 16
ENDMDL
MODEL 10
REMARK VINA RESULT:      -3.7      3.180      6.406
REMARK  0 active torsions:
REMARK  status: ('A' for Active; 'I' for Inactive)
REMARK       I    between atoms: N14_1  and  C8_29 
REMARK       I    between atoms: N14_1  and  S20_20 
REMARK       I    between atoms: O3_3  and  C1_12 
REMARK       I    between atoms: O3_3  and  C7_30 
REMARK       I    between atoms: O28_4  and  S20_20 
REMARK       I    between atoms: O25_5  and  C17_28 
REMARK       I    between atoms: O9_6  and  C4_31 
REMARK       I    between atoms: S26_7  and  O18_32 
REMARK       I    between atoms: C6_14  and  C2_18 
REMARK       I    between atoms: C6_14  and  O11_26 
REMARK       I    between atoms: O30_15  and  S20_20 
REMARK       I    between atoms: C12_16  and  O18_32 
REMARK       I    between atoms: C19_17  and  C27_23 
REMARK       I    between atoms: S16_19  and  O11_26 
REMARK       I    between atoms: S20_20  and  O29_34 
REMARK       I    between atoms: O15_24  and  C10_25 
ROOT
ATOM      1  N14 H1S d 173     -22.077 -15.350 -25.066  0.00  0.00    -0.210 NA
ATOM      2  O32 H1S d 173     -15.347 -20.355 -22.504  0.00  0.00    -0.572 OA
ATOM      3  O3  H1S d 173     -18.881 -18.881 -26.030  0.00  0.00    -0.348 OA
ATOM      4  O28 H1S d 173     -20.881 -15.199 -27.279  0.00  0.00    -0.296 OA
ATOM      5  O25 H1S d 173     -15.373 -20.511 -27.373  0.00  0.00    -0.393 OA
ATOM      6  O9  H1S d 173     -19.104 -16.097 -25.105  0.00  0.00    -0.391 OA
ATOM      7  S26 H1S d 173     -16.222 -21.248 -23.310  0.00  0.00     0.252 S 
ATOM      8  O5  H1S d 173     -21.694 -18.781 -23.695  0.00  0.00    -0.350 OA
ATOM      9  O23 H1S d 173     -20.488 -23.644 -25.256  0.00  0.00    -0.572 OA
ATOM     10  O21 H1S d 173     -22.029 -23.721 -23.328  0.00  0.00    -0.572 OA
ATOM     11  O34 H1S d 173     -14.830 -15.728 -25.755  0.00  0.00    -0.646 OA
ATOM     12  C1  H1S d 173     -19.764 -18.386 -25.017  0.00  0.00     0.095 C 
ATOM     13  O35 H1S d 173     -13.141 -17.037 -25.418  0.00  0.00    -0.646 OA
ATOM     14  C6  H1S d 173     -20.557 -20.770 -24.508  0.00  0.00     0.067 C 
ATOM     15  O30 H1S d 173     -20.119 -13.787 -25.477  0.00  0.00    -0.296 OA
ATOM     16  C12 H1S d 173     -17.028 -20.412 -25.639  0.00  0.00     0.132 C 
ATOM     17  C19 H1S d 173     -15.261 -18.079 -25.674  0.00  0.00     0.127 C 
ATOM     18  C2  H1S d 173     -20.950 -19.313 -24.795  0.00  0.00     0.091 C 
ATOM     19  S16 H1S d 173     -21.779 -23.136 -24.694  0.00  0.00     0.251 S 
ATOM     20  S20 H1S d 173     -21.333 -14.383 -26.127  0.00  0.00     0.156 S 
ATOM     21  O22 H1S d 173     -22.842 -23.599 -25.635  0.00  0.00    -0.572 OA
ATOM     22  O31 H1S d 173     -15.327 -22.222 -23.995  0.00  0.00    -0.572 OA
ATOM     23  C27 H1S d 173     -14.370 -16.889 -25.611  0.00  0.00     0.203 C 
ATOM     24  O15 H1S d 173     -23.376 -17.803 -25.085  0.00  0.00    -0.369 OA
ATOM     25  C10 H1S d 173     -22.393 -17.572 -24.049  0.00  0.00     0.147 C 
ATOM     26  O11 H1S d 173     -21.773 -21.560 -24.657  0.00  0.00    -0.254 OA
ATOM     27  O13 H1S d 173     -16.654 -18.027 -26.141  0.00  0.00    -0.343 OA
ATOM     28  C17 H1S d 173     -15.540 -20.481 -25.948  0.00  0.00     0.069 C 
ATOM     29  C8  H1S d 173     -21.388 -16.490 -24.476  0.00  0.00     0.081 C 
ATOM     30  C7  H1S d 173     -17.539 -18.976 -25.513  0.00  0.00     0.161 C 
ATOM     31  C4  H1S d 173     -20.224 -16.971 -25.357  0.00  0.00     0.083 C 
ATOM     32  O18 H1S d 173     -17.297 -21.140 -24.428  0.00  0.00    -0.244 OA
ATOM     33  C24 H1S d 173     -14.822 -19.292 -25.334  0.00  0.00    -0.005 C 
ATOM     34  O29 H1S d 173     -22.278 -13.375 -26.687  0.00  0.00    -0.296 OA
ATOM     35  O33 H1S d 173     -17.159 -22.028 -22.469  0.00  0.00    -0.572 OA
ATOM     36  H   H1S d 173     -22.372 -14.757 -24.290  0.00  0.00     0.140 HD
ATOM     37  H   H1S d 173     -20.259 -15.877 -26.972  0.00  0.00     0.231 HD
ATOM     38  H   H1S d 173     -15.841 -21.280 -27.737  0.00  0.00     0.210 HD
ATOM     39  H   H1S d 173     -18.349 -16.374 -25.647  0.00  0.00     0.210 HD
ATOM     40  H   H1S d 173     -19.220 -18.354 -24.096  0.00  0.00     0.091 H 
ATOM     41  H   H1S d 173     -20.177 -20.861 -23.512  0.00  0.00     0.080 H 
ATOM     42  H   H1S d 173     -19.791 -21.104 -25.176  0.00  0.00     0.080 H 
ATOM     43  H   H1S d 173     -19.552 -14.496 -25.138  0.00  0.00     0.231 HD
ATOM     44  H   H1S d 173     -17.551 -20.855 -26.461  0.00  0.00     0.097 H 
ATOM     45  H   H1S d 173     -14.992 -17.079 -25.404  0.00  0.00     0.100 H 
ATOM     46  H   H1S d 173     -21.523 -19.349 -25.698  0.00  0.00     0.090 H 
ATOM     47  H   H1S d 173     -23.998 -18.488 -24.794  0.00  0.00     0.212 HD
ATOM     48  H   H1S d 173     -22.923 -17.231 -23.185  0.00  0.00     0.131 H 
ATOM     49  H   H1S d 173     -15.112 -21.366 -25.525  0.00  0.00     0.087 H 
ATOM     50  H   H1S d 173     -20.910 -16.187 -23.569  0.00  0.00     0.076 H 
ATOM     51  H   H1S d 173     -17.559 -18.722 -24.474  0.00  0.00     0.133 H 
ATOM     52  H   H1S d 173     -20.558 -16.963 -26.372  0.00  0.00     0.089 H 
ATOM     53  H   H1S d 173     -14.906 -19.379 -24.270  0.00  0.00     0.041 H 
ATOM     54  H   H1S d 173     -13.824 -19.344 -25.714  0.00  0.00     0.041 H 
ATOM     55  H   H1S d 173     -23.034 -13.830 -27.088  0.00  0.00     0.231 HD
ENDROOT
TORSDOF 16
ENDMDL
MODEL 11
REMARK VINA RESULT:      -3.6      3.087      6.920
REMARK  0 active torsions:
REMARK  status: ('A' for Active; 'I' for Inactive)
REMARK       I    between atoms: N14_1  and  C8_29 
REMARK       I    between atoms: N14_1  and  S20_20 
REMARK       I    between atoms: O3_3  and  C1_12 
REMARK       I    between atoms: O3_3  and  C7_30 
REMARK       I    between atoms: O28_4  and  S20_20 
REMARK       I    between atoms: O25_5  and  C17_28 
REMARK       I    between atoms: O9_6  and  C4_31 
REMARK       I    between atoms: S26_7  and  O18_32 
REMARK       I    between atoms: C6_14  and  C2_18 
REMARK       I    between atoms: C6_14  and  O11_26 
REMARK       I    between atoms: O30_15  and  S20_20 
REMARK       I    between atoms: C12_16  and  O18_32 
REMARK       I    between atoms: C19_17  and  C27_23 
REMARK       I    between atoms: S16_19  and  O11_26 
REMARK       I    between atoms: S20_20  and  O29_34 
REMARK       I    between atoms: O15_24  and  C10_25 
ROOT
ATOM      1  N14 H1S d 173     -22.712 -21.626 -23.487  0.00  0.00    -0.210 NA
ATOM      2  O32 H1S d 173     -17.189 -14.939 -22.186  0.00  0.00    -0.572 OA
ATOM      3  O3  H1S d 173     -18.706 -19.194 -24.772  0.00  0.00    -0.348 OA
ATOM      4  O28 H1S d 173     -22.454 -21.119 -25.942  0.00  0.00    -0.296 OA
ATOM      5  O25 H1S d 173     -16.488 -16.399 -26.780  0.00  0.00    -0.393 OA
ATOM      6  O9  H1S d 173     -21.582 -18.877 -24.238  0.00  0.00    -0.391 OA
ATOM      7  S26 H1S d 173     -16.334 -16.091 -22.579  0.00  0.00     0.252 S 
ATOM      8  O5  H1S d 173     -19.437 -21.182 -21.790  0.00  0.00    -0.350 OA
ATOM      9  O23 H1S d 173     -14.313 -20.943 -22.898  0.00  0.00    -0.572 OA
ATOM     10  O21 H1S d 173     -14.657 -21.855 -20.629  0.00  0.00    -0.572 OA
ATOM     11  O34 H1S d 173     -21.312 -14.963 -26.091  0.00  0.00    -0.646 OA
ATOM     12  C1  H1S d 173     -19.424 -19.694 -23.638  0.00  0.00     0.095 C 
ATOM     13  O35 H1S d 173     -19.838 -13.380 -26.048  0.00  0.00    -0.646 OA
ATOM     14  C6  H1S d 173     -17.238 -20.522 -22.587  0.00  0.00     0.067 C 
ATOM     15  O30 H1S d 173     -23.948 -19.736 -24.648  0.00  0.00    -0.296 OA
ATOM     16  C12 H1S d 173     -16.999 -17.460 -24.690  0.00  0.00     0.132 C 
ATOM     17  C19 H1S d 173     -19.061 -15.570 -25.552  0.00  0.00     0.127 C 
ATOM     18  C2  H1S d 173     -18.691 -20.844 -22.964  0.00  0.00     0.091 C 
ATOM     19  S16 H1S d 173     -15.046 -21.961 -22.081  0.00  0.00     0.251 S 
ATOM     20  S20 H1S d 173     -23.447 -21.137 -24.842  0.00  0.00     0.156 S 
ATOM     21  O22 H1S d 173     -14.624 -23.290 -22.613  0.00  0.00    -0.572 OA
ATOM     22  O31 H1S d 173     -15.179 -15.530 -23.335  0.00  0.00    -0.572 OA
ATOM     23  C27 H1S d 173     -20.123 -14.592 -25.912  0.00  0.00     0.203 C 
ATOM     24  O15 H1S d 173     -20.464 -23.097 -22.789  0.00  0.00    -0.369 OA
ATOM     25  C10 H1S d 173     -20.680 -21.838 -22.110  0.00  0.00     0.147 C 
ATOM     26  O11 H1S d 173     -16.602 -21.797 -22.277  0.00  0.00    -0.254 OA
ATOM     27  O13 H1S d 173     -19.243 -17.027 -25.618  0.00  0.00    -0.343 OA
ATOM     28  C17 H1S d 173     -16.701 -16.139 -25.385  0.00  0.00     0.069 C 
ATOM     29  C8  H1S d 173     -21.565 -20.905 -22.951  0.00  0.00     0.081 C 
ATOM     30  C7  H1S d 173     -18.495 -17.775 -24.638  0.00  0.00     0.161 C 
ATOM     31  C4  H1S d 173     -20.839 -20.098 -24.039  0.00  0.00     0.083 C 
ATOM     32  O18 H1S d 173     -16.455 -17.430 -23.359  0.00  0.00    -0.244 OA
ATOM     33  C24 H1S d 173     -17.847 -15.166 -25.174  0.00  0.00    -0.005 C 
ATOM     34  O29 H1S d 173     -24.500 -22.106 -25.259  0.00  0.00    -0.296 OA
ATOM     35  O33 H1S d 173     -15.783 -16.810 -21.407  0.00  0.00    -0.572 OA
ATOM     36  H   H1S d 173     -23.422 -21.625 -22.755  0.00  0.00     0.140 HD
ATOM     37  H   H1S d 173     -21.739 -20.501 -25.724  0.00  0.00     0.231 HD
ATOM     38  H   H1S d 173     -15.752 -17.022 -26.884  0.00  0.00     0.210 HD
ATOM     39  H   H1S d 173     -21.149 -18.342 -24.921  0.00  0.00     0.210 HD
ATOM     40  H   H1S d 173     -19.488 -18.904 -22.918  0.00  0.00     0.091 H 
ATOM     41  H   H1S d 173     -17.210 -19.878 -21.733  0.00  0.00     0.080 H 
ATOM     42  H   H1S d 173     -16.732 -20.019 -23.384  0.00  0.00     0.080 H 
ATOM     43  H   H1S d 173     -23.213 -19.164 -24.378  0.00  0.00     0.231 HD
ATOM     44  H   H1S d 173     -16.539 -18.238 -25.262  0.00  0.00     0.097 H 
ATOM     45  H   H1S d 173     -20.041 -15.141 -25.516  0.00  0.00     0.100 H 
ATOM     46  H   H1S d 173     -18.629 -21.656 -23.657  0.00  0.00     0.090 H 
ATOM     47  H   H1S d 173     -19.903 -23.669 -22.240  0.00  0.00     0.212 HD
ATOM     48  H   H1S d 173     -21.183 -22.059 -21.192  0.00  0.00     0.131 H 
ATOM     49  H   H1S d 173     -15.821 -15.691 -24.972  0.00  0.00     0.087 H 
ATOM     50  H   H1S d 173     -21.903 -20.157 -22.266  0.00  0.00     0.076 H 
ATOM     51  H   H1S d 173     -18.865 -17.467 -23.683  0.00  0.00     0.133 H 
ATOM     52  H   H1S d 173     -20.776 -20.712 -24.913  0.00  0.00     0.089 H 
ATOM     53  H   H1S d 173     -17.893 -14.943 -24.128  0.00  0.00     0.041 H 
ATOM     54  H   H1S d 173     -17.623 -14.331 -25.804  0.00  0.00     0.041 H 
ATOM     55  H   H1S d 173     -24.106 -22.985 -25.364  0.00  0.00     0.231 HD
ENDROOT
TORSDOF 16
ENDMDL
MODEL 12
REMARK VINA RESULT:      -3.3      2.948      6.647
REMARK  0 active torsions:
REMARK  status: ('A' for Active; 'I' for Inactive)
REMARK       I    between atoms: N14_1  and  C8_29 
REMARK       I    between atoms: N14_1  and  S20_20 
REMARK       I    between atoms: O3_3  and  C1_12 
REMARK       I    between atoms: O3_3  and  C7_30 
REMARK       I    between atoms: O28_4  and  S20_20 
REMARK       I    between atoms: O25_5  and  C17_28 
REMARK       I    between atoms: O9_6  and  C4_31 
REMARK       I    between atoms: S26_7  and  O18_32 
REMARK       I    between atoms: C6_14  and  C2_18 
REMARK       I    between atoms: C6_14  and  O11_26 
REMARK       I    between atoms: O30_15  and  S20_20 
REMARK       I    between atoms: C12_16  and  O18_32 
REMARK       I    between atoms: C19_17  and  C27_23 
REMARK       I    between atoms: S16_19  and  O11_26 
REMARK       I    between atoms: S20_20  and  O29_34 
REMARK       I    between atoms: O15_24  and  C10_25 
ROOT
ATOM      1  N14 H1S d 173     -22.341 -21.800 -21.555  0.00  0.00    -0.210 NA
ATOM      2  O32 H1S d 173     -16.879 -15.027 -22.650  0.00  0.00    -0.572 OA
ATOM      3  O3  H1S d 173     -18.860 -19.605 -24.138  0.00  0.00    -0.348 OA
ATOM      4  O28 H1S d 173     -22.719 -21.659 -24.043  0.00  0.00    -0.296 OA
ATOM      5  O25 H1S d 173     -17.300 -17.146 -27.016  0.00  0.00    -0.393 OA
ATOM      6  O9  H1S d 173     -21.520 -19.196 -22.950  0.00  0.00    -0.391 OA
ATOM      7  S26 H1S d 173     -16.113 -16.229 -23.076  0.00  0.00     0.252 S 
ATOM      8  O5  H1S d 173     -18.762 -21.132 -20.816  0.00  0.00    -0.350 OA
ATOM      9  O23 H1S d 173     -14.086 -21.088 -23.196  0.00  0.00    -0.572 OA
ATOM     10  O21 H1S d 173     -13.826 -21.656 -20.808  0.00  0.00    -0.572 OA
ATOM     11  O34 H1S d 173     -21.842 -15.597 -25.351  0.00  0.00    -0.646 OA
ATOM     12  C1  H1S d 173     -19.256 -19.929 -22.801  0.00  0.00     0.095 C 
ATOM     13  O35 H1S d 173     -20.454 -14.033 -25.905  0.00  0.00    -0.646 OA
ATOM     14  C6  H1S d 173     -16.852 -20.608 -22.225  0.00  0.00     0.067 C 
ATOM     15  O30 H1S d 173     -23.886 -20.092 -22.626  0.00  0.00    -0.296 OA
ATOM     16  C12 H1S d 173     -17.240 -17.887 -24.735  0.00  0.00     0.132 C 
ATOM     17  C19 H1S d 173     -19.510 -16.131 -25.313  0.00  0.00     0.127 C 
ATOM     18  C2  H1S d 173     -18.344 -20.973 -22.175  0.00  0.00     0.091 C 
ATOM     19  S16 H1S d 173     -14.560 -21.970 -22.085  0.00  0.00     0.251 S 
ATOM     20  S20 H1S d 173     -23.406 -21.509 -22.738  0.00  0.00     0.156 S 
ATOM     21  O22 H1S d 173     -14.243 -23.366 -22.511  0.00  0.00    -0.572 OA
ATOM     22  O31 H1S d 173     -15.201 -15.791 -24.170  0.00  0.00    -0.572 OA
ATOM     23  C27 H1S d 173     -20.658 -15.211 -25.531  0.00  0.00     0.203 C 
ATOM     24  O15 H1S d 173     -19.946 -23.166 -21.241  0.00  0.00    -0.369 OA
ATOM     25  C10 H1S d 173     -20.025 -21.820 -20.717  0.00  0.00     0.147 C 
ATOM     26  O11 H1S d 173     -16.120 -21.828 -21.906  0.00  0.00    -0.254 OA
ATOM     27  O13 H1S d 173     -19.657 -17.582 -25.123  0.00  0.00    -0.343 OA
ATOM     28  C17 H1S d 173     -17.166 -16.684 -25.664  0.00  0.00     0.069 C 
ATOM     29  C8  H1S d 173     -21.120 -21.015 -21.433  0.00  0.00     0.081 C 
ATOM     30  C7  H1S d 173     -18.666 -18.183 -24.266  0.00  0.00     0.161 C 
ATOM     31  C4  H1S d 173     -20.713 -20.380 -22.773  0.00  0.00     0.083 C 
ATOM     32  O18 H1S d 173     -16.383 -17.666 -23.602  0.00  0.00    -0.244 OA
ATOM     33  C24 H1S d 173     -18.253 -15.684 -25.313  0.00  0.00    -0.005 C 
ATOM     34  O29 H1S d 173     -24.499 -22.523 -22.735  0.00  0.00    -0.296 OA
ATOM     35  O33 H1S d 173     -15.266 -16.773 -21.990  0.00  0.00    -0.572 OA
ATOM     36  H   H1S d 173     -22.846 -21.688 -20.676  0.00  0.00     0.140 HD
ATOM     37  H   H1S d 173     -21.992 -21.019 -24.102  0.00  0.00     0.231 HD
ATOM     38  H   H1S d 173     -16.594 -17.782 -27.212  0.00  0.00     0.210 HD
ATOM     39  H   H1S d 173     -21.288 -18.769 -23.789  0.00  0.00     0.210 HD
ATOM     40  H   H1S d 173     -19.164 -19.043 -22.209  0.00  0.00     0.091 H 
ATOM     41  H   H1S d 173     -16.633 -19.847 -21.506  0.00  0.00     0.080 H 
ATOM     42  H   H1S d 173     -16.577 -20.230 -23.187  0.00  0.00     0.080 H 
ATOM     43  H   H1S d 173     -23.125 -19.492 -22.634  0.00  0.00     0.231 HD
ATOM     44  H   H1S d 173     -16.913 -18.743 -25.288  0.00  0.00     0.097 H 
ATOM     45  H   H1S d 173     -20.463 -15.697 -25.094  0.00  0.00     0.100 H 
ATOM     46  H   H1S d 173     -18.431 -21.879 -22.739  0.00  0.00     0.090 H 
ATOM     47  H   H1S d 173     -19.249 -23.655 -20.775  0.00  0.00     0.212 HD
ATOM     48  H   H1S d 173     -20.277 -21.902 -19.680  0.00  0.00     0.131 H 
ATOM     49  H   H1S d 173     -16.226 -16.186 -25.554  0.00  0.00     0.087 H 
ATOM     50  H   H1S d 173     -21.300 -20.173 -20.799  0.00  0.00     0.076 H 
ATOM     51  H   H1S d 173     -18.796 -17.736 -23.302  0.00  0.00     0.133 H 
ATOM     52  H   H1S d 173     -20.851 -21.115 -23.537  0.00  0.00     0.089 H 
ATOM     53  H   H1S d 173     -18.044 -15.310 -24.332  0.00  0.00     0.041 H 
ATOM     54  H   H1S d 173     -18.219 -14.951 -26.092  0.00  0.00     0.041 H 
ATOM     55  H   H1S d 173     -24.116 -23.411 -22.809  0.00  0.00     0.231 HD
ENDROOT
TORSDOF 16
ENDMDL
MODEL 13
REMARK VINA RESULT:      -3.3      2.643      6.409
REMARK  0 active torsions:
REMARK  status: ('A' for Active; 'I' for Inactive)
REMARK       I    between atoms: N14_1  and  C8_29 
REMARK       I    between atoms: N14_1  and  S20_20 
REMARK       I    between atoms: O3_3  and  C1_12 
REMARK       I    between atoms: O3_3  and  C7_30 
REMARK       I    between atoms: O28_4  and  S20_20 
REMARK       I    between atoms: O25_5  and  C17_28 
REMARK       I    between atoms: O9_6  and  C4_31 
REMARK       I    between atoms: S26_7  and  O18_32 
REMARK       I    between atoms: C6_14  and  C2_18 
REMARK       I    between atoms: C6_14  and  O11_26 
REMARK       I    between atoms: O30_15  and  S20_20 
REMARK       I    between atoms: C12_16  and  O18_32 
REMARK       I    between atoms: C19_17  and  C27_23 
REMARK       I    between atoms: S16_19  and  O11_26 
REMARK       I    between atoms: S20_20  and  O29_34 
REMARK       I    between atoms: O15_24  and  C10_25 
ROOT
ATOM      1  N14 H1S d 173     -11.455 -22.207 -24.249  0.00  0.00    -0.210 NA
ATOM      2  O32 H1S d 173     -20.146 -22.071 -25.409  0.00  0.00    -0.572 OA
ATOM      3  O3  H1S d 173     -15.682 -19.831 -23.944  0.00  0.00    -0.348 OA
ATOM      4  O28 H1S d 173     -11.482 -19.858 -25.161  0.00  0.00    -0.296 OA
ATOM      5  O25 H1S d 173     -18.735 -17.413 -25.210  0.00  0.00    -0.393 OA
ATOM      6  O9  H1S d 173     -13.956 -21.334 -25.792  0.00  0.00    -0.391 OA
ATOM      7  S26 H1S d 173     -19.902 -21.322 -24.147  0.00  0.00     0.252 S 
ATOM      8  O5  H1S d 173     -14.429 -22.718 -22.082  0.00  0.00    -0.350 OA
ATOM      9  O23 H1S d 173     -18.013 -19.957 -19.425  0.00  0.00    -0.572 OA
ATOM     10  O21 H1S d 173     -17.615 -22.129 -18.321  0.00  0.00    -0.572 OA
ATOM     11  O34 H1S d 173     -16.405 -19.811 -29.034  0.00  0.00    -0.646 OA
ATOM     12  C1  H1S d 173     -15.065 -21.099 -23.695  0.00  0.00     0.095 C 
ATOM     13  O35 H1S d 173     -18.527 -19.474 -29.282  0.00  0.00    -0.646 OA
ATOM     14  C6  H1S d 173     -16.277 -21.276 -21.443  0.00  0.00     0.067 C 
ATOM     15  O30 H1S d 173     -11.610 -21.688 -26.730  0.00  0.00    -0.296 OA
ATOM     16  C12 H1S d 173     -18.081 -19.463 -24.149  0.00  0.00     0.132 C 
ATOM     17  C19 H1S d 173     -17.708 -19.504 -27.052  0.00  0.00     0.127 C 
ATOM     18  C2  H1S d 173     -14.949 -21.391 -22.206  0.00  0.00     0.091 C 
ATOM     19  S16 H1S d 173     -16.973 -20.892 -18.894  0.00  0.00     0.251 S 
ATOM     20  S20 H1S d 173     -10.986 -21.226 -25.446  0.00  0.00     0.156 S 
ATOM     21  O22 H1S d 173     -16.272 -20.146 -17.807  0.00  0.00    -0.572 OA
ATOM     22  O31 H1S d 173     -20.948 -20.265 -24.066  0.00  0.00    -0.572 OA
ATOM     23  C27 H1S d 173     -17.536 -19.604 -28.526  0.00  0.00     0.203 C 
ATOM     24  O15 H1S d 173     -12.208 -21.982 -21.587  0.00  0.00    -0.369 OA
ATOM     25  C10 H1S d 173     -13.038 -22.790 -22.454  0.00  0.00     0.147 C 
ATOM     26  O11 H1S d 173     -15.935 -21.250 -20.026  0.00  0.00    -0.254 OA
ATOM     27  O13 H1S d 173     -16.586 -19.390 -26.109  0.00  0.00    -0.343 OA
ATOM     28  C17 H1S d 173     -19.040 -18.813 -25.136  0.00  0.00     0.069 C 
ATOM     29  C8  H1S d 173     -12.865 -22.376 -23.923  0.00  0.00     0.081 C 
ATOM     30  C7  H1S d 173     -16.814 -19.995 -24.821  0.00  0.00     0.161 C 
ATOM     31  C4  H1S d 173     -13.704 -21.172 -24.380  0.00  0.00     0.083 C 
ATOM     32  O18 H1S d 173     -18.758 -20.527 -23.458  0.00  0.00    -0.244 OA
ATOM     33  C24 H1S d 173     -18.921 -19.477 -26.496  0.00  0.00    -0.005 C 
ATOM     34  O29 H1S d 173      -9.500 -21.117 -25.498  0.00  0.00    -0.296 OA
ATOM     35  O33 H1S d 173     -20.047 -22.177 -22.947  0.00  0.00    -0.572 OA
ATOM     36  H   H1S d 173     -11.098 -23.135 -24.478  0.00  0.00     0.140 HD
ATOM     37  H   H1S d 173     -12.452 -19.868 -25.116  0.00  0.00     0.231 HD
ATOM     38  H   H1S d 173     -18.819 -17.017 -24.329  0.00  0.00     0.210 HD
ATOM     39  H   H1S d 173     -14.486 -20.589 -26.114  0.00  0.00     0.210 HD
ATOM     40  H   H1S d 173     -15.695 -21.857 -24.111  0.00  0.00     0.091 H 
ATOM     41  H   H1S d 173     -16.902 -22.117 -21.658  0.00  0.00     0.080 H 
ATOM     42  H   H1S d 173     -16.814 -20.396 -21.730  0.00  0.00     0.080 H 
ATOM     43  H   H1S d 173     -12.573 -21.735 -26.623  0.00  0.00     0.231 HD
ATOM     44  H   H1S d 173     -17.769 -18.709 -23.456  0.00  0.00     0.097 H 
ATOM     45  H   H1S d 173     -17.306 -19.904 -27.959  0.00  0.00     0.100 H 
ATOM     46  H   H1S d 173     -14.307 -20.657 -21.767  0.00  0.00     0.090 H 
ATOM     47  H   H1S d 173     -12.334 -22.262 -20.666  0.00  0.00     0.212 HD
ATOM     48  H   H1S d 173     -12.717 -23.804 -22.339  0.00  0.00     0.131 H 
ATOM     49  H   H1S d 173     -20.051 -18.936 -24.808  0.00  0.00     0.087 H 
ATOM     50  H   H1S d 173     -13.266 -23.192 -24.487  0.00  0.00     0.076 H 
ATOM     51  H   H1S d 173     -16.951 -21.040 -25.004  0.00  0.00     0.133 H 
ATOM     52  H   H1S d 173     -13.159 -20.284 -24.139  0.00  0.00     0.089 H 
ATOM     53  H   H1S d 173     -19.250 -20.490 -26.391  0.00  0.00     0.041 H 
ATOM     54  H   H1S d 173     -19.514 -18.875 -27.151  0.00  0.00     0.041 H 
ATOM     55  H   H1S d 173      -9.168 -20.816 -24.639  0.00  0.00     0.231 HD
ENDROOT
TORSDOF 16
ENDMDL
MODEL 14
REMARK VINA RESULT:      -2.5      2.970      5.877
REMARK  0 active torsions:
REMARK  status: ('A' for Active; 'I' for Inactive)
REMARK       I    between atoms: N14_1  and  C8_29 
REMARK       I    between atoms: N14_1  and  S20_20 
REMARK       I    between atoms: O3_3  and  C1_12 
REMARK       I    between atoms: O3_3  and  C7_30 
REMARK       I    between atoms: O28_4  and  S20_20 
REMARK       I    between atoms: O25_5  and  C17_28 
REMARK       I    between atoms: O9_6  and  C4_31 
REMARK       I    between atoms: S26_7  and  O18_32 
REMARK       I    between atoms: C6_14  and  C2_18 
REMARK       I    between atoms: C6_14  and  O11_26 
REMARK       I    between atoms: O30_15  and  S20_20 
REMARK       I    between atoms: C12_16  and  O18_32 
REMARK       I    between atoms: C19_17  and  C27_23 
REMARK       I    between atoms: S16_19  and  O11_26 
REMARK       I    between atoms: S20_20  and  O29_34 
REMARK       I    between atoms: O15_24  and  C10_25 
ROOT
ATOM      1  N14 H1S d 173     -22.834 -22.451 -24.171  0.00  0.00    -0.210 NA
ATOM      2  O32 H1S d 173     -16.308 -16.627 -24.802  0.00  0.00    -0.572 OA
ATOM      3  O3  H1S d 173     -18.071 -21.493 -24.239  0.00  0.00    -0.348 OA
ATOM      4  O28 H1S d 173     -21.422 -23.917 -25.658  0.00  0.00    -0.296 OA
ATOM      5  O25 H1S d 173     -14.368 -20.958 -25.904  0.00  0.00    -0.393 OA
ATOM      6  O9  H1S d 173     -20.574 -21.094 -25.734  0.00  0.00    -0.391 OA
ATOM      7  S26 H1S d 173     -15.856 -17.625 -23.795  0.00  0.00     0.252 S 
ATOM      8  O5  H1S d 173     -20.637 -20.659 -21.771  0.00  0.00    -0.350 OA
ATOM      9  O23 H1S d 173     -15.820 -20.948 -19.711  0.00  0.00    -0.572 OA
ATOM     10  O21 H1S d 173     -17.375 -19.897 -18.107  0.00  0.00    -0.572 OA
ATOM     11  O34 H1S d 173     -18.148 -19.842 -29.107  0.00  0.00    -0.646 OA
ATOM     12  C1  H1S d 173     -19.320 -21.036 -23.707  0.00  0.00     0.095 C 
ATOM     13  O35 H1S d 173     -16.356 -18.647 -29.306  0.00  0.00    -0.646 OA
ATOM     14  C6  H1S d 173     -18.233 -20.649 -21.418  0.00  0.00     0.067 C 
ATOM     15  O30 H1S d 173     -22.694 -22.143 -26.687  0.00  0.00    -0.296 OA
ATOM     16  C12 H1S d 173     -16.044 -20.152 -24.388  0.00  0.00     0.132 C 
ATOM     17  C19 H1S d 173     -16.716 -19.682 -27.198  0.00  0.00     0.127 C 
ATOM     18  C2  H1S d 173     -19.408 -21.250 -22.204  0.00  0.00     0.091 C 
ATOM     19  S16 H1S d 173     -17.141 -21.073 -19.019  0.00  0.00     0.251 S 
ATOM     20  S20 H1S d 173     -22.710 -23.184 -25.607  0.00  0.00     0.156 S 
ATOM     21  O22 H1S d 173     -17.058 -22.323 -18.207  0.00  0.00    -0.572 OA
ATOM     22  O31 H1S d 173     -14.375 -17.727 -23.928  0.00  0.00    -0.572 OA
ATOM     23  C27 H1S d 173     -17.095 -19.375 -28.604  0.00  0.00     0.203 C 
ATOM     24  O15 H1S d 173     -21.786 -22.750 -21.618  0.00  0.00    -0.369 OA
ATOM     25  C10 H1S d 173     -21.783 -21.423 -22.194  0.00  0.00     0.147 C 
ATOM     26  O11 H1S d 173     -18.298 -21.223 -20.080  0.00  0.00    -0.254 OA
ATOM     27  O13 H1S d 173     -17.375 -20.715 -26.386  0.00  0.00    -0.343 OA
ATOM     28  C17 H1S d 173     -15.025 -19.765 -25.450  0.00  0.00     0.069 C 
ATOM     29  C8  H1S d 173     -21.833 -21.490 -23.728  0.00  0.00     0.081 C 
ATOM     30  C7  H1S d 173     -17.429 -20.432 -24.974  0.00  0.00     0.161 C 
ATOM     31  C4  H1S d 173     -20.483 -21.707 -24.431  0.00  0.00     0.083 C 
ATOM     32  O18 H1S d 173     -16.127 -19.105 -23.406  0.00  0.00    -0.244 OA
ATOM     33  C24 H1S d 173     -15.711 -19.044 -26.596  0.00  0.00    -0.005 C 
ATOM     34  O29 H1S d 173     -23.773 -24.216 -25.775  0.00  0.00    -0.296 OA
ATOM     35  O33 H1S d 173     -16.143 -17.194 -22.408  0.00  0.00    -0.572 OA
ATOM     36  H   H1S d 173     -23.727 -21.959 -24.172  0.00  0.00     0.140 HD
ATOM     37  H   H1S d 173     -20.689 -23.290 -25.553  0.00  0.00     0.231 HD
ATOM     38  H   H1S d 173     -13.940 -21.397 -25.152  0.00  0.00     0.210 HD
ATOM     39  H   H1S d 173     -19.735 -21.213 -26.206  0.00  0.00     0.210 HD
ATOM     40  H   H1S d 173     -19.380 -19.981 -23.874  0.00  0.00     0.091 H 
ATOM     41  H   H1S d 173     -18.325 -19.585 -21.369  0.00  0.00     0.080 H 
ATOM     42  H   H1S d 173     -17.298 -20.869 -21.891  0.00  0.00     0.080 H 
ATOM     43  H   H1S d 173     -21.982 -21.509 -26.514  0.00  0.00     0.231 HD
ATOM     44  H   H1S d 173     -15.710 -21.061 -23.934  0.00  0.00     0.097 H 
ATOM     45  H   H1S d 173     -17.391 -19.441 -27.993  0.00  0.00     0.100 H 
ATOM     46  H   H1S d 173     -19.370 -22.301 -22.009  0.00  0.00     0.090 H 
ATOM     47  H   H1S d 173     -21.755 -22.683 -20.650  0.00  0.00     0.212 HD
ATOM     48  H   H1S d 173     -22.662 -20.926 -21.840  0.00  0.00     0.131 H 
ATOM     49  H   H1S d 173     -14.296 -19.097 -25.041  0.00  0.00     0.087 H 
ATOM     50  H   H1S d 173     -22.123 -20.507 -24.036  0.00  0.00     0.076 H 
ATOM     51  H   H1S d 173     -18.018 -19.545 -24.871  0.00  0.00     0.133 H 
ATOM     52  H   H1S d 173     -20.297 -22.759 -24.461  0.00  0.00     0.089 H 
ATOM     53  H   H1S d 173     -16.098 -18.122 -26.213  0.00  0.00     0.041 H 
ATOM     54  H   H1S d 173     -14.958 -18.939 -27.349  0.00  0.00     0.041 H 
ATOM     55  H   H1S d 173     -23.723 -24.852 -25.044  0.00  0.00     0.231 HD
ENDROOT
TORSDOF 16
ENDMDL
MODEL 15
REMARK VINA RESULT:      -1.2      2.723      5.848
REMARK  0 active torsions:
REMARK  status: ('A' for Active; 'I' for Inactive)
REMARK       I    between atoms: N14_1  and  C8_29 
REMARK       I    between atoms: N14_1  and  S20_20 
REMARK       I    between atoms: O3_3  and  C1_12 
REMARK       I    between atoms: O3_3  and  C7_30 
REMARK       I    between atoms: O28_4  and  S20_20 
REMARK       I    between atoms: O25_5  and  C17_28 
REMARK       I    between atoms: O9_6  and  C4_31 
REMARK       I    between atoms: S26_7  and  O18_32 
REMARK       I    between atoms: C6_14  and  C2_18 
REMARK       I    between atoms: C6_14  and  O11_26 
REMARK       I    between atoms: O30_15  and  S20_20 
REMARK       I    between atoms: C12_16  and  O18_32 
REMARK       I    between atoms: C19_17  and  C27_23 
REMARK       I    between atoms: S16_19  and  O11_26 
REMARK       I    between atoms: S20_20  and  O29_34 
REMARK       I    between atoms: O15_24  and  C10_25 
ROOT
ATOM      1  N14 H1S d 173     -22.440 -20.391 -24.109  0.00  0.00    -0.210 NA
ATOM      2  O32 H1S d 173     -14.382 -23.611 -22.845  0.00  0.00    -0.572 OA
ATOM      3  O3  H1S d 173     -18.017 -19.951 -22.146  0.00  0.00    -0.348 OA
ATOM      4  O28 H1S d 173     -22.359 -19.735 -21.677  0.00  0.00    -0.296 OA
ATOM      5  O25 H1S d 173     -15.116 -20.366 -19.286  0.00  0.00    -0.393 OA
ATOM      6  O9  H1S d 173     -20.328 -21.760 -22.360  0.00  0.00    -0.391 OA
ATOM      7  S26 H1S d 173     -14.204 -22.142 -22.999  0.00  0.00     0.252 S 
ATOM      8  O5  H1S d 173     -19.098 -19.852 -25.639  0.00  0.00    -0.350 OA
ATOM      9  O23 H1S d 173     -14.645 -17.210 -24.788  0.00  0.00    -0.572 OA
ATOM     10  O21 H1S d 173     -15.011 -17.512 -27.211  0.00  0.00    -0.572 OA
ATOM     11  O34 H1S d 173     -18.618 -24.039 -19.087  0.00  0.00    -0.646 OA
ATOM     12  C1  H1S d 173     -18.701 -20.325 -23.348  0.00  0.00     0.095 C 
ATOM     13  O35 H1S d 173     -16.604 -24.623 -18.555  0.00  0.00    -0.646 OA
ATOM     14  C6  H1S d 173     -16.986 -19.039 -24.754  0.00  0.00     0.067 C 
ATOM     15  O30 H1S d 173     -22.860 -22.033 -22.218  0.00  0.00    -0.296 OA
ATOM     16  C12 H1S d 173     -15.724 -20.560 -21.599  0.00  0.00     0.132 C 
ATOM     17  C19 H1S d 173     -16.825 -22.704 -19.939  0.00  0.00     0.127 C 
ATOM     18  C2  H1S d 173     -18.468 -19.322 -24.468  0.00  0.00     0.091 C 
ATOM     19  S16 H1S d 173     -15.622 -17.057 -25.912  0.00  0.00     0.251 S 
ATOM     20  S20 H1S d 173     -23.075 -20.609 -22.637  0.00  0.00     0.156 S 
ATOM     21  O22 H1S d 173     -15.926 -15.597 -25.990  0.00  0.00    -0.572 OA
ATOM     22  O31 H1S d 173     -13.050 -21.757 -22.139  0.00  0.00    -0.572 OA
ATOM     23  C27 H1S d 173     -17.378 -23.844 -19.159  0.00  0.00     0.203 C 
ATOM     24  O15 H1S d 173     -21.012 -18.430 -25.458  0.00  0.00    -0.369 OA
ATOM     25  C10 H1S d 173     -20.535 -19.793 -25.552  0.00  0.00     0.147 C 
ATOM     26  O11 H1S d 173     -16.950 -17.843 -25.587  0.00  0.00    -0.254 OA
ATOM     27  O13 H1S d 173     -17.648 -21.605 -20.464  0.00  0.00    -0.343 OA
ATOM     28  C17 H1S d 173     -14.975 -21.206 -20.441  0.00  0.00     0.069 C 
ATOM     29  C8  H1S d 173     -21.025 -20.630 -24.361  0.00  0.00     0.081 C 
ATOM     30  C7  H1S d 173     -17.175 -21.032 -21.700  0.00  0.00     0.161 C 
ATOM     31  C4  H1S d 173     -20.190 -20.515 -23.076  0.00  0.00     0.083 C 
ATOM     32  O18 H1S d 173     -15.028 -20.836 -22.827  0.00  0.00    -0.244 OA
ATOM     33  C24 H1S d 173     -15.517 -22.599 -20.180  0.00  0.00    -0.005 C 
ATOM     34  O29 H1S d 173     -24.500 -20.173 -22.600  0.00  0.00    -0.296 OA
ATOM     35  O33 H1S d 173     -13.863 -21.759 -24.388  0.00  0.00    -0.572 OA
ATOM     36  H   H1S d 173     -22.954 -21.005 -24.740  0.00  0.00     0.140 HD
ATOM     37  H   H1S d 173     -21.419 -19.975 -21.659  0.00  0.00     0.231 HD
ATOM     38  H   H1S d 173     -14.762 -19.484 -19.483  0.00  0.00     0.210 HD
ATOM     39  H   H1S d 173     -19.810 -21.721 -21.540  0.00  0.00     0.210 HD
ATOM     40  H   H1S d 173     -18.295 -21.258 -23.678  0.00  0.00     0.091 H 
ATOM     41  H   H1S d 173     -16.544 -19.864 -25.271  0.00  0.00     0.080 H 
ATOM     42  H   H1S d 173     -16.436 -18.897 -23.846  0.00  0.00     0.080 H 
ATOM     43  H   H1S d 173     -21.915 -22.245 -22.267  0.00  0.00     0.231 HD
ATOM     44  H   H1S d 173     -15.753 -19.506 -21.418  0.00  0.00     0.097 H 
ATOM     45  H   H1S d 173     -17.491 -23.520 -19.748  0.00  0.00     0.100 H 
ATOM     46  H   H1S d 173     -18.882 -18.382 -24.171  0.00  0.00     0.090 H 
ATOM     47  H   H1S d 173     -20.691 -17.921 -26.220  0.00  0.00     0.212 HD
ATOM     48  H   H1S d 173     -20.938 -20.204 -26.454  0.00  0.00     0.131 H 
ATOM     49  H   H1S d 173     -13.937 -21.306 -20.679  0.00  0.00     0.087 H 
ATOM     50  H   H1S d 173     -20.884 -21.646 -24.663  0.00  0.00     0.076 H 
ATOM     51  H   H1S d 173     -17.218 -21.817 -22.426  0.00  0.00     0.133 H 
ATOM     52  H   H1S d 173     -20.542 -19.664 -22.533  0.00  0.00     0.089 H 
ATOM     53  H   H1S d 173     -15.299 -23.198 -21.040  0.00  0.00     0.041 H 
ATOM     54  H   H1S d 173     -15.041 -22.917 -19.276  0.00  0.00     0.041 H 
ATOM     55  H   H1S d 173     -24.563 -19.248 -22.882  0.00  0.00     0.231 HD
ENDROOT
TORSDOF 16
ENDMDL
MODEL 16
REMARK VINA RESULT:      -1.2      2.052      6.381
REMARK  0 active torsions:
REMARK  status: ('A' for Active; 'I' for Inactive)
REMARK       I    between atoms: N14_1  and  C8_29 
REMARK       I    between atoms: N14_1  and  S20_20 
REMARK       I    between atoms: O3_3  and  C1_12 
REMARK       I    between atoms: O3_3  and  C7_30 
REMARK       I    between atoms: O28_4  and  S20_20 
REMARK       I    between atoms: O25_5  and  C17_28 
REMARK       I    between atoms: O9_6  and  C4_31 
REMARK       I    between atoms: S26_7  and  O18_32 
REMARK       I    between atoms: C6_14  and  C2_18 
REMARK       I    between atoms: C6_14  and  O11_26 
REMARK       I    between atoms: O30_15  and  S20_20 
REMARK       I    between atoms: C12_16  and  O18_32 
REMARK       I    between atoms: C19_17  and  C27_23 
REMARK       I    between atoms: S16_19  and  O11_26 
REMARK       I    between atoms: S20_20  and  O29_34 
REMARK       I    between atoms: O15_24  and  C10_25 
ROOT
ATOM      1  N14 H1S d 173     -15.618 -21.555 -19.781  0.00  0.00    -0.210 NA
ATOM      2  O32 H1S d 173     -21.865 -17.119 -24.047  0.00  0.00    -0.572 OA
ATOM      3  O3  H1S d 173     -18.993 -21.391 -23.273  0.00  0.00    -0.348 OA
ATOM      4  O28 H1S d 173     -17.187 -23.524 -19.910  0.00  0.00    -0.296 OA
ATOM      5  O25 H1S d 173     -22.711 -21.834 -24.931  0.00  0.00    -0.393 OA
ATOM      6  O9  H1S d 173     -18.562 -20.961 -20.394  0.00  0.00    -0.391 OA
ATOM      7  S26 H1S d 173     -21.162 -17.916 -25.088  0.00  0.00     0.252 S 
ATOM      8  O5  H1S d 173     -15.807 -19.624 -22.949  0.00  0.00    -0.350 OA
ATOM      9  O23 H1S d 173     -17.353 -20.180 -27.932  0.00  0.00    -0.572 OA
ATOM     10  O21 H1S d 173     -15.495 -18.561 -27.788  0.00  0.00    -0.572 OA
ATOM     11  O34 H1S d 173     -22.877 -20.907 -19.939  0.00  0.00    -0.646 OA
ATOM     12  C1  H1S d 173     -17.935 -20.636 -22.671  0.00  0.00     0.095 C 
ATOM     13  O35 H1S d 173     -24.500 -20.084 -21.109  0.00  0.00    -0.646 OA
ATOM     14  C6  H1S d 173     -17.104 -19.909 -24.985  0.00  0.00     0.067 C 
ATOM     15  O30 H1S d 173     -17.592 -21.857 -18.212  0.00  0.00    -0.296 OA
ATOM     16  C12 H1S d 173     -20.771 -20.451 -24.646  0.00  0.00     0.132 C 
ATOM     17  C19 H1S d 173     -22.478 -20.539 -22.269  0.00  0.00     0.127 C 
ATOM     18  C2  H1S d 173     -16.745 -20.482 -23.606  0.00  0.00     0.091 C 
ATOM     19  S16 H1S d 173     -15.974 -19.936 -27.404  0.00  0.00     0.251 S 
ATOM     20  S20 H1S d 173     -16.524 -22.608 -18.951  0.00  0.00     0.156 S 
ATOM     21  O22 H1S d 173     -15.104 -20.964 -28.048  0.00  0.00    -0.572 OA
ATOM     22  O31 H1S d 173     -22.182 -18.276 -26.114  0.00  0.00    -0.572 OA
ATOM     23  C27 H1S d 173     -23.323 -20.507 -21.045  0.00  0.00     0.203 C 
ATOM     24  O15 H1S d 173     -14.385 -21.420 -22.264  0.00  0.00    -0.369 OA
ATOM     25  C10 H1S d 173     -15.163 -20.277 -21.838  0.00  0.00     0.147 C 
ATOM     26  O11 H1S d 173     -15.948 -20.144 -25.841  0.00  0.00    -0.254 OA
ATOM     27  O13 H1S d 173     -21.189 -21.244 -22.348  0.00  0.00    -0.343 OA
ATOM     28  C17 H1S d 173     -22.292 -20.482 -24.695  0.00  0.00     0.069 C 
ATOM     29  C8  H1S d 173     -16.210 -20.686 -20.789  0.00  0.00     0.081 C 
ATOM     30  C7  H1S d 173     -20.223 -20.640 -23.231  0.00  0.00     0.161 C 
ATOM     31  C4  H1S d 173     -17.520 -21.265 -21.345  0.00  0.00     0.083 C 
ATOM     32  O18 H1S d 173     -20.303 -19.207 -25.195  0.00  0.00    -0.244 OA
ATOM     33  C24 H1S d 173     -22.869 -19.944 -23.397  0.00  0.00    -0.005 C 
ATOM     34  O29 H1S d 173     -15.677 -23.472 -18.081  0.00  0.00    -0.296 OA
ATOM     35  O33 H1S d 173     -20.104 -17.141 -25.774  0.00  0.00    -0.572 OA
ATOM     36  H   H1S d 173     -15.180 -20.943 -19.093  0.00  0.00     0.140 HD
ATOM     37  H   H1S d 173     -17.756 -23.012 -20.507  0.00  0.00     0.231 HD
ATOM     38  H   H1S d 173     -22.328 -22.150 -25.764  0.00  0.00     0.210 HD
ATOM     39  H   H1S d 173     -19.407 -21.314 -20.716  0.00  0.00     0.210 HD
ATOM     40  H   H1S d 173     -18.306 -19.650 -22.478  0.00  0.00     0.091 H 
ATOM     41  H   H1S d 173     -17.302 -18.860 -24.909  0.00  0.00     0.080 H 
ATOM     42  H   H1S d 173     -17.982 -20.373 -25.381  0.00  0.00     0.080 H 
ATOM     43  H   H1S d 173     -18.100 -21.319 -18.838  0.00  0.00     0.231 HD
ATOM     44  H   H1S d 173     -20.412 -21.273 -25.229  0.00  0.00     0.097 H 
ATOM     45  H   H1S d 173     -22.678 -20.385 -21.229  0.00  0.00     0.100 H 
ATOM     46  H   H1S d 173     -16.342 -21.454 -23.801  0.00  0.00     0.090 H 
ATOM     47  H   H1S d 173     -13.732 -21.139 -22.925  0.00  0.00     0.212 HD
ATOM     48  H   H1S d 173     -14.481 -19.582 -21.395  0.00  0.00     0.131 H 
ATOM     49  H   H1S d 173     -22.652 -19.859 -25.487  0.00  0.00     0.087 H 
ATOM     50  H   H1S d 173     -16.513 -19.767 -20.333  0.00  0.00     0.076 H 
ATOM     51  H   H1S d 173     -20.014 -19.672 -22.825  0.00  0.00     0.133 H 
ATOM     52  H   H1S d 173     -17.373 -22.312 -21.503  0.00  0.00     0.089 H 
ATOM     53  H   H1S d 173     -22.598 -18.911 -23.328  0.00  0.00     0.041 H 
ATOM     54  H   H1S d 173     -23.920 -20.133 -23.461  0.00  0.00     0.041 H 
ATOM     55  H   H1S d 173     -15.012 -23.924 -18.624  0.00  0.00     0.231 HD
ENDROOT
TORSDOF 16
ENDMDL
