REMARK  0 active torsions:
REMARK  status: ('A' for Active; 'I' for Inactive)
REMARK       I    between atoms: N14_1  and  C8_29 
REMARK       I    between atoms: N14_1  and  S20_20 
REMARK       I    between atoms: O3_3  and  C1_12 
REMARK       I    between atoms: O3_3  and  C7_30 
REMARK       I    between atoms: O28_4  and  S20_20 
REMARK       I    between atoms: O25_5  and  C17_28 
REMARK       I    between atoms: O9_6  and  C4_31 
REMARK       I    between atoms: S26_7  and  O18_32 
REMARK       I    between atoms: C6_14  and  C2_18 
REMARK       I    between atoms: C6_14  and  O11_26 
REMARK       I    between atoms: O30_15  and  S20_20 
REMARK       I    between atoms: C12_16  and  O18_32 
REMARK       I    between atoms: C19_17  and  C27_23 
REMARK       I    between atoms: S16_19  and  O11_26 
REMARK       I    between atoms: S20_20  and  O29_34 
REMARK       I    between atoms: O15_24  and  C10_25 
ROOT
ATOM      1  N14 H1S d 173     -18.466 -21.714 -19.628  0.00  0.00    -0.210 NA
ATOM      2  O32 H1S d 173     -15.994 -21.094 -28.019  0.00  0.00    -0.572 OA
ATOM      3  O3  H1S d 173     -16.815 -19.017 -23.317  0.00  0.00    -0.348 OA
ATOM      4  O28 H1S d 173     -16.490 -20.231 -19.129  0.00  0.00    -0.296 OA
ATOM      5  O25 H1S d 173     -14.010 -17.274 -25.738  0.00  0.00    -0.393 OA
ATOM      6  O9  H1S d 173     -16.308 -21.482 -21.793  0.00  0.00    -0.391 OA
ATOM      7  S26 H1S d 173     -16.715 -19.827 -27.722  0.00  0.00     0.252 S 
ATOM      8  O5  H1S d 173     -20.068 -20.603 -22.790  0.00  0.00    -0.350 OA
ATOM      9  O23 H1S d 173     -20.309 -16.415 -25.942  0.00  0.00    -0.572 OA
ATOM     10  O21 H1S d 173     -22.417 -17.695 -26.057  0.00  0.00    -0.572 OA
ATOM     11  O34 H1S d 173     -12.393 -21.617 -23.659  0.00  0.00    -0.646 OA
ATOM     12  C1  H1S d 173     -17.775 -20.025 -22.980  0.00  0.00     0.095 C 
ATOM     13  O35 H1S d 173     -11.664 -21.193 -25.651  0.00  0.00    -0.646 OA
ATOM     14  C6  H1S d 173     -19.566 -18.817 -24.360  0.00  0.00     0.067 C 
ATOM     15  O30 H1S d 173     -16.082 -22.580 -19.502  0.00  0.00    -0.296 OA
ATOM     16  C12 H1S d 173     -16.061 -18.508 -25.576  0.00  0.00     0.132 C 
ATOM     17  C19 H1S d 173     -13.694 -20.136 -25.014  0.00  0.00     0.127 C 
ATOM     18  C2  H1S d 173     -19.199 -19.492 -23.030  0.00  0.00     0.091 C 
ATOM     19  S16 H1S d 173     -21.406 -17.049 -25.146  0.00  0.00     0.251 S 
ATOM     20  S20 H1S d 173     -17.031 -21.591 -18.892  0.00  0.00     0.156 S 
ATOM     21  O22 H1S d 173     -22.056 -15.937 -24.391  0.00  0.00    -0.572 OA
ATOM     22  O31 H1S d 173     -16.071 -18.764 -28.544  0.00  0.00    -0.572 OA
ATOM     23  C27 H1S d 173     -12.530 -21.027 -24.761  0.00  0.00     0.203 C 
ATOM     24  O15 H1S d 173     -20.473 -20.011 -20.509  0.00  0.00    -0.369 OA
ATOM     25  C10 H1S d 173     -20.019 -21.041 -21.418  0.00  0.00     0.147 C 
ATOM     26  O11 H1S d 173     -20.804 -18.085 -24.121  0.00  0.00    -0.254 OA
ATOM     27  O13 H1S d 173     -14.615 -19.684 -23.961  0.00  0.00    -0.343 OA
ATOM     28  C17 H1S d 173     -14.739 -18.366 -26.317  0.00  0.00     0.069 C 
ATOM     29  C8  H1S d 173     -18.596 -21.499 -21.063  0.00  0.00     0.081 C 
ATOM     30  C7  H1S d 173     -15.974 -19.475 -24.394  0.00  0.00     0.161 C 
ATOM     31  C4  H1S d 173     -17.457 -20.627 -21.615  0.00  0.00     0.083 C 
ATOM     32  O18 H1S d 173     -17.077 -18.943 -26.496  0.00  0.00    -0.244 OA
ATOM     33  C24 H1S d 173     -13.951 -19.661 -26.234  0.00  0.00    -0.005 C 
ATOM     34  O29 H1S d 173     -17.175 -21.720 -17.414  0.00  0.00    -0.296 OA
ATOM     35  O33 H1S d 173     -18.141 -19.884 -28.117  0.00  0.00    -0.572 OA
ATOM     36  H   H1S d 173     -18.806 -22.658 -19.445  0.00  0.00     0.140 HD
ATOM     37  H   H1S d 173     -16.375 -20.090 -20.082  0.00  0.00     0.231 HD
ATOM     38  H   H1S d 173     -14.537 -16.462 -25.805  0.00  0.00     0.210 HD
ATOM     39  H   H1S d 173     -15.568 -20.961 -22.142  0.00  0.00     0.210 HD
ATOM     40  H   H1S d 173     -17.708 -20.799 -23.716  0.00  0.00     0.091 H 
ATOM     41  H   H1S d 173     -19.713 -19.554 -25.121  0.00  0.00     0.080 H 
ATOM     42  H   H1S d 173     -18.786 -18.164 -24.692  0.00  0.00     0.080 H 
ATOM     43  H   H1S d 173     -16.039 -22.438 -20.460  0.00  0.00     0.231 HD
ATOM     44  H   H1S d 173     -16.311 -17.549 -25.173  0.00  0.00     0.097 H 
ATOM     45  H   H1S d 173     -13.200 -21.006 -24.635  0.00  0.00     0.100 H 
ATOM     46  H   H1S d 173     -19.299 -18.727 -22.289  0.00  0.00     0.090 H 
ATOM     47  H   H1S d 173     -21.372 -19.738 -20.752  0.00  0.00     0.212 HD
ATOM     48  H   H1S d 173     -20.687 -21.870 -21.311  0.00  0.00     0.131 H 
ATOM     49  H   H1S d 173     -14.913 -18.163 -27.353  0.00  0.00     0.087 H 
ATOM     50  H   H1S d 173     -18.472 -22.430 -21.575  0.00  0.00     0.076 H 
ATOM     51  H   H1S d 173     -16.332 -20.429 -24.720  0.00  0.00     0.133 H 
ATOM     52  H   H1S d 173     -17.296 -19.826 -20.925  0.00  0.00     0.089 H 
ATOM     53  H   H1S d 173     -14.504 -20.410 -26.762  0.00  0.00     0.041 H 
ATOM     54  H   H1S d 173     -12.993 -19.430 -26.650  0.00  0.00     0.041 H 
ATOM     55  H   H1S d 173     -17.800 -21.053 -17.091  0.00  0.00     0.231 HD
ENDROOT
TORSDOF 16
