MODEL 1
REMARK VINA RESULT:     -11.2      0.000      0.000
REMARK  0 active torsions:
REMARK  status: ('A' for Active; 'I' for Inactive)
REMARK       I    between atoms: C4_5  and  O4_20 
REMARK       I    between atoms: C6_6  and  C5_15 
REMARK       I    between atoms: C6_6  and  O6_25 
REMARK       I    between atoms: S1_7  and  N_21 
REMARK       I    between atoms: S1_7  and  O1S_34 
REMARK       I    between atoms: S1_7  and  O2S_27 
REMARK       I    between atoms: S1_7  and  O3S_19 
REMARK       I    between atoms: C5_8  and  C6_35 
REMARK       I    between atoms: S2_9  and  O6_25 
REMARK       I    between atoms: C1_10  and  O4_20 
REMARK       I    between atoms: C3_14  and  O3_18 
REMARK       I    between atoms: C2_16  and  N_21 
REMARK       I    between atoms: C1_17  and  O1_26 
REMARK       I    between atoms: C2_22  and  O2_29 
REMARK       I    between atoms: S_23  and  O2_29 
REMARK       I    between atoms: C3_30  and  O3_31 
ROOT
ATOM      1  O3S IXD d 379      18.997  19.708  19.692  0.00  0.00    -0.572 OA
ATOM      2  O2S IXD d 379      19.630  20.034  17.376  0.00  0.00    -0.572 OA
ATOM      3  O5  IXD d 379      18.674  23.736  19.734  0.00  0.00    -0.343 OA
ATOM      4  O62 IXD d 379      17.931  26.440  20.493  0.00  0.00    -0.646 OA
ATOM      5  C5  IXD d 379      17.631  24.589  19.190  0.00  0.00     0.127 C 
ATOM      6  C1  IXD d 379      18.242  22.530  20.377  0.00  0.00     0.161 C 
ATOM      7  O1S IXD d 379      17.569  18.912  17.942  0.00  0.00    -0.572 OA
ATOM      8  O61 IXD d 379      17.180  26.732  18.425  0.00  0.00    -0.646 OA
ATOM      9  C2  IXD d 379      17.179  21.842  19.526  0.00  0.00     0.132 C 
ATOM     10  S   IXD d 379      18.493  20.004  18.327  0.00  0.00     0.252 S 
ATOM     11  C4  IXD d 379      16.630  24.013  18.540  0.00  0.00    -0.005 C 
ATOM     12  O2  IXD d 379      17.774  21.367  18.322  0.00  0.00    -0.244 OA
ATOM     13  C3  IXD d 379      16.049  22.830  19.247  0.00  0.00     0.069 C 
ATOM     14  O3  IXD d 379      15.000  22.309  18.457  0.00  0.00    -0.393 OA
ATOM     15  C6  IXD d 379      17.591  26.015  19.377  0.00  0.00     0.203 C 
ATOM     16  H   IXD d 379      18.581  25.042  18.999  0.00  0.00     0.100 H 
ATOM     17  H   IXD d 379      19.151  22.115  20.760  0.00  0.00     0.133 H 
ATOM     18  H   IXD d 379      16.768  21.000  20.042  0.00  0.00     0.097 H 
ATOM     19  H   IXD d 379      16.990  23.690  17.585  0.00  0.00     0.041 H 
ATOM     20  H   IXD d 379      15.851  24.741  18.461  0.00  0.00     0.041 H 
ATOM     21  H   IXD d 379      15.619  23.081  20.194  0.00  0.00     0.087 H 
ATOM     22  H   IXD d 379      15.344  22.065  17.583  0.00  0.00     0.210 HD
ATOM     23  C4  SGN d 378      16.842  22.208  22.289  0.00  0.00     0.095 C 
ATOM     24  C6  SGN d 378      17.970  24.081  23.386  0.00  0.00     0.067 C 
ATOM     25  S1  SGN d 378      15.710  17.812  24.503  0.00  0.00     0.156 S 
ATOM     26  S2  SGN d 378      17.387  25.292  25.510  0.00  0.00     0.251 S 
ATOM     27  O4S SGN d 378      16.197  25.961  25.997  0.00  0.00    -0.572 OA
ATOM     28  C3  SGN d 378      16.707  20.694  22.209  0.00  0.00     0.083 C 
ATOM     29  C5  SGN d 378      18.002  22.582  23.197  0.00  0.00     0.091 C 
ATOM     30  C2  SGN d 378      16.654  20.112  23.611  0.00  0.00     0.081 C 
ATOM     31  C1  SGN d 378      17.839  20.585  24.443  0.00  0.00     0.147 C 
ATOM     32  O3  SGN d 378      15.519  20.328  21.550  0.00  0.00    -0.391 OA
ATOM     33  O3S SGN d 378      14.321  18.123  24.183  0.00  0.00    -0.296 OA
ATOM     34  O4  SGN d 378      17.090  22.775  21.018  0.00  0.00    -0.348 OA
ATOM     35  N   SGN d 378      16.643  18.666  23.525  0.00  0.00    -0.210 NA
ATOM     36  O6  SGN d 378      16.990  24.334  24.363  0.00  0.00    -0.254 OA
ATOM     37  O1  SGN d 378      19.030  20.077  23.892  0.00  0.00    -0.369 OA
ATOM     38  O2S SGN d 378      16.044  18.248  25.858  0.00  0.00    -0.296 OA
ATOM     39  O6S SGN d 378      18.371  26.212  24.954  0.00  0.00    -0.572 OA
ATOM     40  O5S SGN d 378      17.976  24.447  26.542  0.00  0.00    -0.572 OA
ATOM     41  O5  SGN d 378      17.888  21.993  24.476  0.00  0.00    -0.350 OA
ATOM     42  O1S SGN d 378      16.017  16.407  24.232  0.00  0.00    -0.296 OA
ATOM     43  H   SGN d 378      15.918  22.585  22.675  0.00  0.00     0.091 H 
ATOM     44  H   SGN d 378      17.711  24.565  22.467  0.00  0.00     0.080 H 
ATOM     45  H   SGN d 378      18.926  24.456  23.686  0.00  0.00     0.080 H 
ATOM     46  H   SGN d 378      17.550  20.318  21.668  0.00  0.00     0.089 H 
ATOM     47  H   SGN d 378      18.908  22.237  22.744  0.00  0.00     0.090 H 
ATOM     48  H   SGN d 378      15.762  20.451  24.095  0.00  0.00     0.076 H 
ATOM     49  H   SGN d 378      17.726  20.225  25.445  0.00  0.00     0.131 H 
ATOM     50  H   SGN d 378      14.757  20.669  22.044  0.00  0.00     0.210 HD
ATOM     51  H   SGN d 378      14.123  17.825  23.282  0.00  0.00     0.231 HD
ATOM     52  H   SGN d 378      16.365  18.431  22.573  0.00  0.00     0.140 HD
ATOM     53  H   SGN d 378      19.131  20.404  22.985  0.00  0.00     0.212 HD
ATOM     54  H   SGN d 378      16.970  18.032  26.048  0.00  0.00     0.231 HD
ATOM     55  H   SGN d 378      16.945  16.231  24.454  0.00  0.00     0.231 HD
ENDROOT
TORSDOF 16
ENDMDL
MODEL 2
REMARK VINA RESULT:     -10.8      2.538      5.975
REMARK  0 active torsions:
REMARK  status: ('A' for Active; 'I' for Inactive)
REMARK       I    between atoms: C4_5  and  O4_20 
REMARK       I    between atoms: C6_6  and  C5_15 
REMARK       I    between atoms: C6_6  and  O6_25 
REMARK       I    between atoms: S1_7  and  N_21 
REMARK       I    between atoms: S1_7  and  O1S_34 
REMARK       I    between atoms: S1_7  and  O2S_27 
REMARK       I    between atoms: S1_7  and  O3S_19 
REMARK       I    between atoms: C5_8  and  C6_35 
REMARK       I    between atoms: S2_9  and  O6_25 
REMARK       I    between atoms: C1_10  and  O4_20 
REMARK       I    between atoms: C3_14  and  O3_18 
REMARK       I    between atoms: C2_16  and  N_21 
REMARK       I    between atoms: C1_17  and  O1_26 
REMARK       I    between atoms: C2_22  and  O2_29 
REMARK       I    between atoms: S_23  and  O2_29 
REMARK       I    between atoms: C3_30  and  O3_31 
ROOT
ATOM      1  O3S IXD d 379      17.609  23.624  24.494  0.00  0.00    -0.572 OA
ATOM      2  O2S IXD d 379      16.840  25.916  24.661  0.00  0.00    -0.572 OA
ATOM      3  O5  IXD d 379      14.856  23.356  21.549  0.00  0.00    -0.343 OA
ATOM      4  O62 IXD d 379      13.394  22.449  19.208  0.00  0.00    -0.646 OA
ATOM      5  C5  IXD d 379      14.904  23.855  20.184  0.00  0.00     0.127 C 
ATOM      6  C1  IXD d 379      16.064  22.783  22.063  0.00  0.00     0.161 C 
ATOM      7  O1S IXD d 379      19.081  25.421  23.912  0.00  0.00    -0.572 OA
ATOM      8  O61 IXD d 379      13.594  24.500  18.383  0.00  0.00    -0.646 OA
ATOM      9  C2  IXD d 379      17.251  23.676  21.710  0.00  0.00     0.132 C 
ATOM     10  S   IXD d 379      17.670  24.971  23.874  0.00  0.00     0.252 S 
ATOM     11  C4  IXD d 379      15.975  24.540  19.809  0.00  0.00    -0.005 C 
ATOM     12  O2  IXD d 379      17.148  24.903  22.426  0.00  0.00    -0.244 OA
ATOM     13  C3  IXD d 379      17.270  23.902  20.200  0.00  0.00     0.069 C 
ATOM     14  O3  IXD d 379      18.327  24.724  19.747  0.00  0.00    -0.393 OA
ATOM     15  C6  IXD d 379      13.887  23.588  19.202  0.00  0.00     0.203 C 
ATOM     16  H   IXD d 379      13.922  24.017  20.575  0.00  0.00     0.100 H 
ATOM     17  H   IXD d 379      15.776  22.421  23.027  0.00  0.00     0.133 H 
ATOM     18  H   IXD d 379      18.172  23.210  21.990  0.00  0.00     0.097 H 
ATOM     19  H   IXD d 379      15.929  25.510  20.258  0.00  0.00     0.041 H 
ATOM     20  H   IXD d 379      15.959  24.580  18.741  0.00  0.00     0.041 H 
ATOM     21  H   IXD d 379      17.417  22.944  19.747  0.00  0.00     0.087 H 
ATOM     22  H   IXD d 379      18.237  25.609  20.134  0.00  0.00     0.210 HD
ATOM     23  C4  SGN d 378      17.330  20.897  21.312  0.00  0.00     0.095 C 
ATOM     24  C6  SGN d 378      15.235  19.693  20.925  0.00  0.00     0.067 C 
ATOM     25  S1  SGN d 378      21.434  18.939  23.510  0.00  0.00     0.156 S 
ATOM     26  S2  SGN d 378      14.828  17.507  19.755  0.00  0.00     0.251 S 
ATOM     27  O4S SGN d 378      15.157  16.986  18.443  0.00  0.00    -0.572 OA
ATOM     28  C3  SGN d 378      18.534  21.063  22.227  0.00  0.00     0.083 C 
ATOM     29  C5  SGN d 378      16.312  19.966  21.951  0.00  0.00     0.091 C 
ATOM     30  C2  SGN d 378      19.060  19.696  22.630  0.00  0.00     0.081 C 
ATOM     31  C1  SGN d 378      17.951  18.835  23.217  0.00  0.00     0.147 C 
ATOM     32  O3  SGN d 378      19.576  21.746  21.572  0.00  0.00    -0.391 OA
ATOM     33  O3S SGN d 378      22.125  19.245  22.263  0.00  0.00    -0.296 OA
ATOM     34  O4  SGN d 378      16.688  22.133  21.069  0.00  0.00    -0.348 OA
ATOM     35  N   SGN d 378      20.131  19.864  23.590  0.00  0.00    -0.210 NA
ATOM     36  O6  SGN d 378      15.751  18.706  20.065  0.00  0.00    -0.254 OA
ATOM     37  O1  SGN d 378      17.498  19.409  24.419  0.00  0.00    -0.369 OA
ATOM     38  O2S SGN d 378      20.946  17.561  23.511  0.00  0.00    -0.296 OA
ATOM     39  O6S SGN d 378      13.462  18.007  19.844  0.00  0.00    -0.572 OA
ATOM     40  O5S SGN d 378      15.100  16.521  20.795  0.00  0.00    -0.572 OA
ATOM     41  O5  SGN d 378      16.880  18.723  22.307  0.00  0.00    -0.350 OA
ATOM     42  O1S SGN d 378      22.251  19.287  24.672  0.00  0.00    -0.296 OA
ATOM     43  H   SGN d 378      17.690  20.494  20.389  0.00  0.00     0.091 H 
ATOM     44  H   SGN d 378      15.012  20.584  20.376  0.00  0.00     0.080 H 
ATOM     45  H   SGN d 378      14.328  19.369  21.390  0.00  0.00     0.080 H 
ATOM     46  H   SGN d 378      18.220  21.621  23.084  0.00  0.00     0.089 H 
ATOM     47  H   SGN d 378      15.936  20.435  22.836  0.00  0.00     0.090 H 
ATOM     48  H   SGN d 378      19.432  19.197  21.759  0.00  0.00     0.076 H 
ATOM     49  H   SGN d 378      18.336  17.856  23.411  0.00  0.00     0.131 H 
ATOM     50  H   SGN d 378      19.858  21.236  20.797  0.00  0.00     0.210 HD
ATOM     51  H   SGN d 378      22.439  20.163  22.284  0.00  0.00     0.231 HD
ATOM     52  H   SGN d 378      20.451  20.829  23.509  0.00  0.00     0.140 HD
ATOM     53  H   SGN d 378      17.150  20.297  24.242  0.00  0.00     0.212 HD
ATOM     54  H   SGN d 378      20.490  17.379  24.348  0.00  0.00     0.231 HD
ATOM     55  H   SGN d 378      21.766  19.073  25.484  0.00  0.00     0.231 HD
ENDROOT
TORSDOF 16
ENDMDL
MODEL 3
REMARK VINA RESULT:     -10.3      3.237      6.394
REMARK  0 active torsions:
REMARK  status: ('A' for Active; 'I' for Inactive)
REMARK       I    between atoms: C4_5  and  O4_20 
REMARK       I    between atoms: C6_6  and  C5_15 
REMARK       I    between atoms: C6_6  and  O6_25 
REMARK       I    between atoms: S1_7  and  N_21 
REMARK       I    between atoms: S1_7  and  O1S_34 
REMARK       I    between atoms: S1_7  and  O2S_27 
REMARK       I    between atoms: S1_7  and  O3S_19 
REMARK       I    between atoms: C5_8  and  C6_35 
REMARK       I    between atoms: S2_9  and  O6_25 
REMARK       I    between atoms: C1_10  and  O4_20 
REMARK       I    between atoms: C3_14  and  O3_18 
REMARK       I    between atoms: C2_16  and  N_21 
REMARK       I    between atoms: C1_17  and  O1_26 
REMARK       I    between atoms: C2_22  and  O2_29 
REMARK       I    between atoms: S_23  and  O2_29 
REMARK       I    between atoms: C3_30  and  O3_31 
ROOT
ATOM      1  O3S IXD d 379      19.743  20.360  17.902  0.00  0.00    -0.572 OA
ATOM      2  O2S IXD d 379      22.069  19.866  17.437  0.00  0.00    -0.572 OA
ATOM      3  O5  IXD d 379      20.522  18.626  21.468  0.00  0.00    -0.343 OA
ATOM      4  O62 IXD d 379      20.336  17.848  24.261  0.00  0.00    -0.646 OA
ATOM      5  C5  IXD d 379      21.240  19.150  22.618  0.00  0.00     0.127 C 
ATOM      6  C1  IXD d 379      19.653  19.540  20.787  0.00  0.00     0.161 C 
ATOM      7  O1S IXD d 379      21.312  22.150  17.639  0.00  0.00    -0.572 OA
ATOM      8  O61 IXD d 379      22.429  18.542  24.514  0.00  0.00    -0.646 OA
ATOM      9  C2  IXD d 379      20.360  20.878  20.591  0.00  0.00     0.132 C 
ATOM     10  S   IXD d 379      21.145  20.773  18.160  0.00  0.00     0.252 S 
ATOM     11  C4  IXD d 379      21.772  20.360  22.521  0.00  0.00    -0.005 C 
ATOM     12  O2  IXD d 379      21.436  20.714  19.672  0.00  0.00    -0.244 OA
ATOM     13  C3  IXD d 379      20.847  21.385  21.947  0.00  0.00     0.069 C 
ATOM     14  O3  IXD d 379      21.527  22.623  21.897  0.00  0.00    -0.393 OA
ATOM     15  C6  IXD d 379      21.347  18.457  23.873  0.00  0.00     0.203 C 
ATOM     16  H   IXD d 379      21.508  18.123  22.483  0.00  0.00     0.100 H 
ATOM     17  H   IXD d 379      19.183  18.928  20.046  0.00  0.00     0.133 H 
ATOM     18  H   IXD d 379      19.689  21.604  20.184  0.00  0.00     0.097 H 
ATOM     19  H   IXD d 379      22.637  20.299  21.895  0.00  0.00     0.041 H 
ATOM     20  H   IXD d 379      22.006  20.676  23.516  0.00  0.00     0.041 H 
ATOM     21  H   IXD d 379      19.976  21.543  22.548  0.00  0.00     0.087 H 
ATOM     22  H   IXD d 379      22.329  22.529  21.359  0.00  0.00     0.210 HD
ATOM     23  C4  SGN d 378      17.732  20.731  21.571  0.00  0.00     0.095 C 
ATOM     24  C6  SGN d 378      17.025  18.722  22.776  0.00  0.00     0.067 C 
ATOM     25  S1  SGN d 378      14.687  23.693  18.840  0.00  0.00     0.156 S 
ATOM     26  S2  SGN d 378      15.198  18.425  24.476  0.00  0.00     0.251 S 
ATOM     27  O4S SGN d 378      14.871  19.072  25.731  0.00  0.00    -0.572 OA
ATOM     28  C3  SGN d 378      17.505  21.609  20.349  0.00  0.00     0.083 C 
ATOM     29  C5  SGN d 378      16.905  19.460  21.462  0.00  0.00     0.091 C 
ATOM     30  C2  SGN d 378      16.015  21.814  20.138  0.00  0.00     0.081 C 
ATOM     31  C1  SGN d 378      15.282  20.481  20.086  0.00  0.00     0.147 C 
ATOM     32  O3  SGN d 378      18.091  22.877  20.523  0.00  0.00    -0.391 OA
ATOM     33  O3S SGN d 378      15.080  24.764  19.748  0.00  0.00    -0.296 OA
ATOM     34  O4  SGN d 378      19.089  20.351  21.693  0.00  0.00    -0.348 OA
ATOM     35  N   SGN d 378      15.807  22.553  18.910  0.00  0.00    -0.210 NA
ATOM     36  O6  SGN d 378      16.131  19.350  23.663  0.00  0.00    -0.254 OA
ATOM     37  O1  SGN d 378      15.704  19.758  18.956  0.00  0.00    -0.369 OA
ATOM     38  O2S SGN d 378      13.445  23.062  19.283  0.00  0.00    -0.296 OA
ATOM     39  O6S SGN d 378      15.917  17.170  24.652  0.00  0.00    -0.572 OA
ATOM     40  O5S SGN d 378      14.008  18.242  23.652  0.00  0.00    -0.572 OA
ATOM     41  O5  SGN d 378      15.536  19.733  21.255  0.00  0.00    -0.350 OA
ATOM     42  O1S SGN d 378      14.664  24.153  17.451  0.00  0.00    -0.296 OA
ATOM     43  H   SGN d 378      17.442  21.303  22.427  0.00  0.00     0.091 H 
ATOM     44  H   SGN d 378      18.026  18.790  23.149  0.00  0.00     0.080 H 
ATOM     45  H   SGN d 378      16.795  17.684  22.662  0.00  0.00     0.080 H 
ATOM     46  H   SGN d 378      17.949  21.119  19.507  0.00  0.00     0.089 H 
ATOM     47  H   SGN d 378      17.269  18.893  20.630  0.00  0.00     0.090 H 
ATOM     48  H   SGN d 378      15.621  22.369  20.964  0.00  0.00     0.076 H 
ATOM     49  H   SGN d 378      14.230  20.664  20.021  0.00  0.00     0.131 H 
ATOM     50  H   SGN d 378      17.686  23.317  21.286  0.00  0.00     0.210 HD
ATOM     51  H   SGN d 378      15.904  25.167  19.435  0.00  0.00     0.231 HD
ATOM     52  H   SGN d 378      16.695  22.998  18.681  0.00  0.00     0.140 HD
ATOM     53  H   SGN d 378      16.658  19.593  19.016  0.00  0.00     0.212 HD
ATOM     54  H   SGN d 378      13.203  22.354  18.665  0.00  0.00     0.231 HD
ATOM     55  H   SGN d 378      14.400  23.421  16.873  0.00  0.00     0.231 HD
ENDROOT
TORSDOF 16
ENDMDL
MODEL 4
REMARK VINA RESULT:     -10.0      3.167      6.934
REMARK  0 active torsions:
REMARK  status: ('A' for Active; 'I' for Inactive)
REMARK       I    between atoms: C4_5  and  O4_20 
REMARK       I    between atoms: C6_6  and  C5_15 
REMARK       I    between atoms: C6_6  and  O6_25 
REMARK       I    between atoms: S1_7  and  N_21 
REMARK       I    between atoms: S1_7  and  O1S_34 
REMARK       I    between atoms: S1_7  and  O2S_27 
REMARK       I    between atoms: S1_7  and  O3S_19 
REMARK       I    between atoms: C5_8  and  C6_35 
REMARK       I    between atoms: S2_9  and  O6_25 
REMARK       I    between atoms: C1_10  and  O4_20 
REMARK       I    between atoms: C3_14  and  O3_18 
REMARK       I    between atoms: C2_16  and  N_21 
REMARK       I    between atoms: C1_17  and  O1_26 
REMARK       I    between atoms: C2_22  and  O2_29 
REMARK       I    between atoms: S_23  and  O2_29 
REMARK       I    between atoms: C3_30  and  O3_31 
ROOT
ATOM      1  O3S IXD d 379      21.044  21.418  19.522  0.00  0.00    -0.572 OA
ATOM      2  O2S IXD d 379      23.290  20.640  19.053  0.00  0.00    -0.572 OA
ATOM      3  O5  IXD d 379      21.036  18.451  22.264  0.00  0.00    -0.343 OA
ATOM      4  O62 IXD d 379      20.354  16.824  24.572  0.00  0.00    -0.646 OA
ATOM      5  C5  IXD d 379      21.677  18.390  23.567  0.00  0.00     0.127 C 
ATOM      6  C1  IXD d 379      20.436  19.702  21.906  0.00  0.00     0.161 C 
ATOM      7  O1S IXD d 379      22.919  22.822  20.017  0.00  0.00    -0.572 OA
ATOM      8  O61 IXD d 379      22.484  16.938  25.187  0.00  0.00    -0.646 OA
ATOM      9  C2  IXD d 379      21.383  20.848  22.250  0.00  0.00     0.132 C 
ATOM     10  S   IXD d 379      22.450  21.417  19.997  0.00  0.00     0.252 S 
ATOM     11  C4  IXD d 379      22.418  19.421  23.946  0.00  0.00    -0.005 C 
ATOM     12  O2  IXD d 379      22.525  20.787  21.400  0.00  0.00    -0.244 OA
ATOM     13  C3  IXD d 379      21.768  20.749  23.724  0.00  0.00     0.069 C 
ATOM     14  O3  IXD d 379      22.652  21.759  24.165  0.00  0.00    -0.393 OA
ATOM     15  C6  IXD d 379      21.497  17.304  24.493  0.00  0.00     0.203 C 
ATOM     16  H   IXD d 379      21.779  17.439  23.089  0.00  0.00     0.100 H 
ATOM     17  H   IXD d 379      19.968  19.491  20.967  0.00  0.00     0.133 H 
ATOM     18  H   IXD d 379      20.907  21.792  22.090  0.00  0.00     0.097 H 
ATOM     19  H   IXD d 379      23.334  19.399  23.394  0.00  0.00     0.041 H 
ATOM     20  H   IXD d 379      22.571  19.323  25.000  0.00  0.00     0.041 H 
ATOM     21  H   IXD d 379      20.866  20.871  24.287  0.00  0.00     0.087 H 
ATOM     22  H   IXD d 379      23.490  21.689  23.680  0.00  0.00     0.210 HD
ATOM     23  C4  SGN d 378      18.664  20.926  22.947  0.00  0.00     0.095 C 
ATOM     24  C6  SGN d 378      17.468  18.821  23.302  0.00  0.00     0.067 C 
ATOM     25  S1  SGN d 378      16.562  25.207  21.284  0.00  0.00     0.156 S 
ATOM     26  S2  SGN d 378      15.410  18.349  24.665  0.00  0.00     0.251 S 
ATOM     27  O4S SGN d 378      15.037  18.583  26.046  0.00  0.00    -0.572 OA
ATOM     28  C3  SGN d 378      18.754  22.195  22.111  0.00  0.00     0.083 C 
ATOM     29  C5  SGN d 378      17.651  19.970  22.337  0.00  0.00     0.091 C 
ATOM     30  C2  SGN d 378      17.363  22.765  21.898  0.00  0.00     0.081 C 
ATOM     31  C1  SGN d 378      16.423  21.713  21.324  0.00  0.00     0.147 C 
ATOM     32  O3  SGN d 378      19.522  23.176  22.766  0.00  0.00    -0.391 OA
ATOM     33  O3S SGN d 378      17.011  25.797  22.540  0.00  0.00    -0.296 OA
ATOM     34  O4  SGN d 378      19.906  20.254  23.007  0.00  0.00    -0.348 OA
ATOM     35  N   SGN d 378      17.448  23.905  21.008  0.00  0.00    -0.210 NA
ATOM     36  O6  SGN d 378      16.587  19.281  24.299  0.00  0.00    -0.254 OA
ATOM     37  O1  SGN d 378      16.859  21.348  20.038  0.00  0.00    -0.369 OA
ATOM     38  O2S SGN d 378      15.182  24.735  21.393  0.00  0.00    -0.296 OA
ATOM     39  O6S SGN d 378      15.872  16.989  24.422  0.00  0.00    -0.572 OA
ATOM     40  O5S SGN d 378      14.325  18.711  23.759  0.00  0.00    -0.572 OA
ATOM     41  O5  SGN d 378      16.388  20.577  22.159  0.00  0.00    -0.350 OA
ATOM     42  O1S SGN d 378      16.801  26.107  20.156  0.00  0.00    -0.296 OA
ATOM     43  H   SGN d 378      18.367  21.219  23.932  0.00  0.00     0.091 H 
ATOM     44  H   SGN d 378      18.407  18.547  23.735  0.00  0.00     0.080 H 
ATOM     45  H   SGN d 378      17.079  17.956  22.808  0.00  0.00     0.080 H 
ATOM     46  H   SGN d 378      19.213  21.941  21.179  0.00  0.00     0.089 H 
ATOM     47  H   SGN d 378      18.017  19.658  21.381  0.00  0.00     0.090 H 
ATOM     48  H   SGN d 378      16.966  23.075  22.842  0.00  0.00     0.076 H 
ATOM     49  H   SGN d 378      15.437  22.123  21.265  0.00  0.00     0.131 H 
ATOM     50  H   SGN d 378      19.103  23.404  23.611  0.00  0.00     0.210 HD
ATOM     51  H   SGN d 378      17.927  26.102  22.444  0.00  0.00     0.231 HD
ATOM     52  H   SGN d 378      18.422  24.206  21.009  0.00  0.00     0.140 HD
ATOM     53  H   SGN d 378      17.754  20.977  20.092  0.00  0.00     0.212 HD
ATOM     54  H   SGN d 378      14.905  24.347  20.549  0.00  0.00     0.231 HD
ATOM     55  H   SGN d 378      16.492  25.688  19.337  0.00  0.00     0.231 HD
ENDROOT
TORSDOF 16
ENDMDL
MODEL 5
REMARK VINA RESULT:      -9.9      2.847      5.079
REMARK  0 active torsions:
REMARK  status: ('A' for Active; 'I' for Inactive)
REMARK       I    between atoms: C4_5  and  O4_20 
REMARK       I    between atoms: C6_6  and  C5_15 
REMARK       I    between atoms: C6_6  and  O6_25 
REMARK       I    between atoms: S1_7  and  N_21 
REMARK       I    between atoms: S1_7  and  O1S_34 
REMARK       I    between atoms: S1_7  and  O2S_27 
REMARK       I    between atoms: S1_7  and  O3S_19 
REMARK       I    between atoms: C5_8  and  C6_35 
REMARK       I    between atoms: S2_9  and  O6_25 
REMARK       I    between atoms: C1_10  and  O4_20 
REMARK       I    between atoms: C3_14  and  O3_18 
REMARK       I    between atoms: C2_16  and  N_21 
REMARK       I    between atoms: C1_17  and  O1_26 
REMARK       I    between atoms: C2_22  and  O2_29 
REMARK       I    between atoms: S_23  and  O2_29 
REMARK       I    between atoms: C3_30  and  O3_31 
ROOT
ATOM      1  O3S IXD d 379      16.525  22.647  17.934  0.00  0.00    -0.572 OA
ATOM      2  O2S IXD d 379      17.514  24.790  17.384  0.00  0.00    -0.572 OA
ATOM      3  O5  IXD d 379      18.023  23.372  21.616  0.00  0.00    -0.343 OA
ATOM      4  O62 IXD d 379      18.472  23.271  24.485  0.00  0.00    -0.646 OA
ATOM      5  C5  IXD d 379      17.542  24.269  22.654  0.00  0.00     0.127 C 
ATOM      6  C1  IXD d 379      17.025  22.640  20.893  0.00  0.00     0.161 C 
ATOM      7  O1S IXD d 379      15.117  24.502  17.376  0.00  0.00    -0.572 OA
ATOM      8  O61 IXD d 379      18.185  25.472  24.529  0.00  0.00    -0.646 OA
ATOM      9  C2  IXD d 379      15.879  23.571  20.505  0.00  0.00     0.132 C 
ATOM     10  S   IXD d 379      16.375  24.119  18.058  0.00  0.00     0.252 S 
ATOM     11  C4  IXD d 379      16.476  25.012  22.390  0.00  0.00    -0.005 C 
ATOM     12  O2  IXD d 379      16.343  24.516  19.545  0.00  0.00    -0.244 OA
ATOM     13  C3  IXD d 379      15.349  24.255  21.763  0.00  0.00     0.069 C 
ATOM     14  O3  IXD d 379      14.282  25.153  21.533  0.00  0.00    -0.393 OA
ATOM     15  C6  IXD d 379      18.117  24.344  23.970  0.00  0.00     0.203 C 
ATOM     16  H   IXD d 379      18.609  24.323  22.619  0.00  0.00     0.100 H 
ATOM     17  H   IXD d 379      17.601  22.003  20.255  0.00  0.00     0.133 H 
ATOM     18  H   IXD d 379      15.078  23.020  20.061  0.00  0.00     0.097 H 
ATOM     19  H   IXD d 379      16.769  25.795  21.722  0.00  0.00     0.041 H 
ATOM     20  H   IXD d 379      16.118  25.383  23.327  0.00  0.00     0.041 H 
ATOM     21  H   IXD d 379      14.964  23.483  22.395  0.00  0.00     0.087 H 
ATOM     22  H   IXD d 379      14.586  25.875  20.961  0.00  0.00     0.210 HD
ATOM     23  C4  SGN d 378      15.406  21.053  21.655  0.00  0.00     0.095 C 
ATOM     24  C6  SGN d 378      17.107  20.077  23.118  0.00  0.00     0.067 C 
ATOM     25  S1  SGN d 378      12.180  18.415  18.802  0.00  0.00     0.156 S 
ATOM     26  S2  SGN d 378      16.869  18.373  24.951  0.00  0.00     0.251 S 
ATOM     27  O4S SGN d 378      16.050  18.279  26.143  0.00  0.00    -0.572 OA
ATOM     28  C3  SGN d 378      14.624  20.898  20.359  0.00  0.00     0.083 C 
ATOM     29  C5  SGN d 378      16.492  19.993  21.740  0.00  0.00     0.091 C 
ATOM     30  C2  SGN d 378      14.149  19.462  20.219  0.00  0.00     0.081 C 
ATOM     31  C1  SGN d 378      15.309  18.486  20.362  0.00  0.00     0.147 C 
ATOM     32  O3  SGN d 378      13.487  21.727  20.354  0.00  0.00    -0.391 OA
ATOM     33  O3S SGN d 378      11.124  19.078  19.560  0.00  0.00    -0.296 OA
ATOM     34  O4  SGN d 378      16.034  22.317  21.735  0.00  0.00    -0.348 OA
ATOM     35  N   SGN d 378      13.507  19.298  18.931  0.00  0.00    -0.210 NA
ATOM     36  O6  SGN d 378      16.231  19.395  23.983  0.00  0.00    -0.254 OA
ATOM     37  O1  SGN d 378      16.208  18.669  19.295  0.00  0.00    -0.369 OA
ATOM     38  O2S SGN d 378      12.506  17.116  19.389  0.00  0.00    -0.296 OA
ATOM     39  O6S SGN d 378      18.218  18.851  25.221  0.00  0.00    -0.572 OA
ATOM     40  O5S SGN d 378      16.891  17.107  24.227  0.00  0.00    -0.572 OA
ATOM     41  O5  SGN d 378      15.974  18.688  21.589  0.00  0.00    -0.350 OA
ATOM     42  O1S SGN d 378      11.862  18.366  17.375  0.00  0.00    -0.296 OA
ATOM     43  H   SGN d 378      14.707  20.949  22.458  0.00  0.00     0.091 H 
ATOM     44  H   SGN d 378      17.204  21.099  23.419  0.00  0.00     0.080 H 
ATOM     45  H   SGN d 378      18.085  19.645  23.135  0.00  0.00     0.080 H 
ATOM     46  H   SGN d 378      15.272  21.169  19.551  0.00  0.00     0.089 H 
ATOM     47  H   SGN d 378      17.199  20.171  20.956  0.00  0.00     0.090 H 
ATOM     48  H   SGN d 378      13.449  19.251  21.000  0.00  0.00     0.076 H 
ATOM     49  H   SGN d 378      14.927  17.487  20.341  0.00  0.00     0.131 H 
ATOM     50  H   SGN d 378      12.902  21.477  21.087  0.00  0.00     0.210 HD
ATOM     51  H   SGN d 378      10.925  19.936  19.153  0.00  0.00     0.231 HD
ATOM     52  H   SGN d 378      13.271  20.233  18.599  0.00  0.00     0.140 HD
ATOM     53  H   SGN d 378      16.553  19.575  19.314  0.00  0.00     0.212 HD
ATOM     54  H   SGN d 378      13.208  16.694  18.871  0.00  0.00     0.231 HD
ATOM     55  H   SGN d 378      12.580  17.920  16.900  0.00  0.00     0.231 HD
ENDROOT
TORSDOF 16
ENDMDL
MODEL 6
REMARK VINA RESULT:      -9.8      2.952      5.541
REMARK  0 active torsions:
REMARK  status: ('A' for Active; 'I' for Inactive)
REMARK       I    between atoms: C4_5  and  O4_20 
REMARK       I    between atoms: C6_6  and  C5_15 
REMARK       I    between atoms: C6_6  and  O6_25 
REMARK       I    between atoms: S1_7  and  N_21 
REMARK       I    between atoms: S1_7  and  O1S_34 
REMARK       I    between atoms: S1_7  and  O2S_27 
REMARK       I    between atoms: S1_7  and  O3S_19 
REMARK       I    between atoms: C5_8  and  C6_35 
REMARK       I    between atoms: S2_9  and  O6_25 
REMARK       I    between atoms: C1_10  and  O4_20 
REMARK       I    between atoms: C3_14  and  O3_18 
REMARK       I    between atoms: C2_16  and  N_21 
REMARK       I    between atoms: C1_17  and  O1_26 
REMARK       I    between atoms: C2_22  and  O2_29 
REMARK       I    between atoms: S_23  and  O2_29 
REMARK       I    between atoms: C3_30  and  O3_31 
ROOT
ATOM      1  O3S IXD d 379      19.322  23.193  19.500  0.00  0.00    -0.572 OA
ATOM      2  O2S IXD d 379      18.558  24.073  17.375  0.00  0.00    -0.572 OA
ATOM      3  O5  IXD d 379      15.859  21.113  19.408  0.00  0.00    -0.343 OA
ATOM      4  O62 IXD d 379      13.826  19.108  19.943  0.00  0.00    -0.646 OA
ATOM      5  C5  IXD d 379      15.504  19.934  18.635  0.00  0.00     0.127 C 
ATOM      6  C1  IXD d 379      17.182  21.141  19.959  0.00  0.00     0.161 C 
ATOM      7  O1S IXD d 379      20.511  22.658  17.491  0.00  0.00    -0.572 OA
ATOM      8  O61 IXD d 379      13.718  18.744  17.756  0.00  0.00    -0.646 OA
ATOM      9  C2  IXD d 379      18.191  20.693  18.905  0.00  0.00     0.132 C 
ATOM     10  S   IXD d 379      19.162  22.900  18.053  0.00  0.00     0.252 S 
ATOM     11  C4  IXD d 379      16.403  19.450  17.789  0.00  0.00    -0.005 C 
ATOM     12  O2  IXD d 379      18.255  21.668  17.868  0.00  0.00    -0.244 OA
ATOM     13  C3  IXD d 379      17.775  19.325  18.369  0.00  0.00     0.069 C 
ATOM     14  O3  IXD d 379      18.634  18.802  17.376  0.00  0.00    -0.393 OA
ATOM     15  C6  IXD d 379      14.261  19.227  18.786  0.00  0.00     0.203 C 
ATOM     16  H   IXD d 379      14.668  20.601  18.650  0.00  0.00     0.100 H 
ATOM     17  H   IXD d 379      17.189  22.040  20.538  0.00  0.00     0.133 H 
ATOM     18  H   IXD d 379      19.168  20.604  19.331  0.00  0.00     0.097 H 
ATOM     19  H   IXD d 379      16.454  20.102  16.942  0.00  0.00     0.041 H 
ATOM     20  H   IXD d 379      16.084  18.463  17.530  0.00  0.00     0.041 H 
ATOM     21  H   IXD d 379      17.819  18.645  19.195  0.00  0.00     0.087 H 
ATOM     22  H   IXD d 379      18.628  19.388  16.603  0.00  0.00     0.210 HD
ATOM     23  C4  SGN d 378      18.243  19.673  21.521  0.00  0.00     0.095 C 
ATOM     24  C6  SGN d 378      16.165  19.601  22.809  0.00  0.00     0.067 C 
ATOM     25  S1  SGN d 378      22.862  20.189  23.498  0.00  0.00     0.156 S 
ATOM     26  S2  SGN d 378      15.514  18.121  24.734  0.00  0.00     0.251 S 
ATOM     27  O4S SGN d 378      15.476  16.687  24.937  0.00  0.00    -0.572 OA
ATOM     28  C3  SGN d 378      19.652  20.244  21.436  0.00  0.00     0.083 C 
ATOM     29  C5  SGN d 378      17.478  20.334  22.655  0.00  0.00     0.091 C 
ATOM     30  C2  SGN d 378      20.314  20.172  22.801  0.00  0.00     0.081 C 
ATOM     31  C1  SGN d 378      19.443  20.826  23.866  0.00  0.00     0.147 C 
ATOM     32  O3  SGN d 378      20.443  19.505  20.538  0.00  0.00    -0.391 OA
ATOM     33  O3S SGN d 378      23.163  18.904  22.876  0.00  0.00    -0.296 OA
ATOM     34  O4  SGN d 378      17.520  19.896  20.327  0.00  0.00    -0.348 OA
ATOM     35  N   SGN d 378      21.607  20.822  22.737  0.00  0.00    -0.210 NA
ATOM     36  O6  SGN d 378      16.449  18.435  23.543  0.00  0.00    -0.254 OA
ATOM     37  O1  SGN d 378      19.331  22.202  23.598  0.00  0.00    -0.369 OA
ATOM     38  O2S SGN d 378      22.439  20.010  24.886  0.00  0.00    -0.296 OA
ATOM     39  O6S SGN d 378      14.214  18.684  24.394  0.00  0.00    -0.572 OA
ATOM     40  O5S SGN d 378      16.101  18.801  25.884  0.00  0.00    -0.572 OA
ATOM     41  O5  SGN d 378      18.163  20.235  23.886  0.00  0.00    -0.350 OA
ATOM     42  O1S SGN d 378      23.963  21.136  23.323  0.00  0.00    -0.296 OA
ATOM     43  H   SGN d 378      18.341  18.621  21.687  0.00  0.00     0.091 H 
ATOM     44  H   SGN d 378      15.768  19.348  21.849  0.00  0.00     0.080 H 
ATOM     45  H   SGN d 378      15.437  20.207  23.307  0.00  0.00     0.080 H 
ATOM     46  H   SGN d 378      19.574  21.257  21.100  0.00  0.00     0.089 H 
ATOM     47  H   SGN d 378      17.353  21.370  22.418  0.00  0.00     0.090 H 
ATOM     48  H   SGN d 378      20.440  19.144  23.071  0.00  0.00     0.076 H 
ATOM     49  H   SGN d 378      19.899  20.683  24.823  0.00  0.00     0.131 H 
ATOM     50  H   SGN d 378      20.511  18.588  20.846  0.00  0.00     0.210 HD
ATOM     51  H   SGN d 378      23.440  19.047  21.958  0.00  0.00     0.231 HD
ATOM     52  H   SGN d 378      21.859  20.878  21.750  0.00  0.00     0.140 HD
ATOM     53  H   SGN d 378      18.918  22.330  22.730  0.00  0.00     0.212 HD
ATOM     54  H   SGN d 378      22.245  20.875  25.279  0.00  0.00     0.231 HD
ATOM     55  H   SGN d 378      23.734  21.978  23.746  0.00  0.00     0.231 HD
ENDROOT
TORSDOF 16
ENDMDL
MODEL 7
REMARK VINA RESULT:      -9.7      2.577      6.277
REMARK  0 active torsions:
REMARK  status: ('A' for Active; 'I' for Inactive)
REMARK       I    between atoms: C4_5  and  O4_20 
REMARK       I    between atoms: C6_6  and  C5_15 
REMARK       I    between atoms: C6_6  and  O6_25 
REMARK       I    between atoms: S1_7  and  N_21 
REMARK       I    between atoms: S1_7  and  O1S_34 
REMARK       I    between atoms: S1_7  and  O2S_27 
REMARK       I    between atoms: S1_7  and  O3S_19 
REMARK       I    between atoms: C5_8  and  C6_35 
REMARK       I    between atoms: S2_9  and  O6_25 
REMARK       I    between atoms: C1_10  and  O4_20 
REMARK       I    between atoms: C3_14  and  O3_18 
REMARK       I    between atoms: C2_16  and  N_21 
REMARK       I    between atoms: C1_17  and  O1_26 
REMARK       I    between atoms: C2_22  and  O2_29 
REMARK       I    between atoms: S_23  and  O2_29 
REMARK       I    between atoms: C3_30  and  O3_31 
ROOT
ATOM      1  O3S IXD d 379      13.846  22.268  19.449  0.00  0.00    -0.572 OA
ATOM      2  O2S IXD d 379      12.516  20.285  19.035  0.00  0.00    -0.572 OA
ATOM      3  O5  IXD d 379      15.207  20.181  22.630  0.00  0.00    -0.343 OA
ATOM      4  O62 IXD d 379      16.859  19.289  24.847  0.00  0.00    -0.646 OA
ATOM      5  C5  IXD d 379      16.163  19.087  22.682  0.00  0.00     0.127 C 
ATOM      6  C1  IXD d 379      15.512  21.252  21.728  0.00  0.00     0.161 C 
ATOM      7  O1S IXD d 379      14.269  20.934  17.506  0.00  0.00    -0.572 OA
ATOM      8  O61 IXD d 379      16.848  17.263  23.940  0.00  0.00    -0.646 OA
ATOM      9  C2  IXD d 379      15.967  20.685  20.386  0.00  0.00     0.132 C 
ATOM     10  S   IXD d 379      13.873  20.877  18.933  0.00  0.00     0.252 S 
ATOM     11  C4  IXD d 379      16.666  18.643  21.539  0.00  0.00    -0.005 C 
ATOM     12  O2  IXD d 379      14.870  20.036  19.752  0.00  0.00    -0.244 OA
ATOM     13  C3  IXD d 379      17.133  19.728  20.621  0.00  0.00     0.069 C 
ATOM     14  O3  IXD d 379      17.643  19.130  19.447  0.00  0.00    -0.393 OA
ATOM     15  C6  IXD d 379      16.642  18.506  23.908  0.00  0.00     0.203 C 
ATOM     16  H   IXD d 379      15.364  18.879  23.362  0.00  0.00     0.100 H 
ATOM     17  H   IXD d 379      14.732  21.961  21.915  0.00  0.00     0.133 H 
ATOM     18  H   IXD d 379      16.302  21.468  19.739  0.00  0.00     0.097 H 
ATOM     19  H   IXD d 379      15.909  18.079  21.035  0.00  0.00     0.041 H 
ATOM     20  H   IXD d 379      17.523  18.054  21.785  0.00  0.00     0.041 H 
ATOM     21  H   IXD d 379      17.931  20.309  21.035  0.00  0.00     0.087 H 
ATOM     22  H   IXD d 379      16.951  18.589  19.033  0.00  0.00     0.210 HD
ATOM     23  C4  SGN d 378      17.379  22.746  21.669  0.00  0.00     0.095 C 
ATOM     24  C6  SGN d 378      17.266  22.925  24.106  0.00  0.00     0.067 C 
ATOM     25  S1  SGN d 378      18.046  26.629  18.509  0.00  0.00     0.156 S 
ATOM     26  S2  SGN d 378      18.885  23.970  25.721  0.00  0.00     0.251 S 
ATOM     27  O4S SGN d 378      20.301  23.806  25.980  0.00  0.00    -0.572 OA
ATOM     28  C3  SGN d 378      17.072  23.428  20.343  0.00  0.00     0.083 C 
ATOM     29  C5  SGN d 378      16.775  23.540  22.816  0.00  0.00     0.091 C 
ATOM     30  C2  SGN d 378      17.480  24.889  20.414  0.00  0.00     0.081 C 
ATOM     31  C1  SGN d 378      16.853  25.573  21.621  0.00  0.00     0.147 C 
ATOM     32  O3  SGN d 378      17.794  22.833  19.292  0.00  0.00    -0.391 OA
ATOM     33  O3S SGN d 378      19.250  25.933  18.068  0.00  0.00    -0.296 OA
ATOM     34  O4  SGN d 378      16.840  21.440  21.719  0.00  0.00    -0.348 OA
ATOM     35  N   SGN d 378      17.079  25.554  19.192  0.00  0.00    -0.210 NA
ATOM     36  O6  SGN d 378      18.566  23.423  24.311  0.00  0.00    -0.254 OA
ATOM     37  O1  SGN d 378      15.455  25.602  21.469  0.00  0.00    -0.369 OA
ATOM     38  O2S SGN d 378      18.360  27.605  19.552  0.00  0.00    -0.296 OA
ATOM     39  O6S SGN d 378      18.045  23.224  26.649  0.00  0.00    -0.572 OA
ATOM     40  O5S SGN d 378      18.516  25.381  25.688  0.00  0.00    -0.572 OA
ATOM     41  O5  SGN d 378      17.192  24.889  22.807  0.00  0.00    -0.350 OA
ATOM     42  O1S SGN d 378      17.303  27.180  17.375  0.00  0.00    -0.296 OA
ATOM     43  H   SGN d 378      18.444  22.697  21.757  0.00  0.00     0.091 H 
ATOM     44  H   SGN d 378      17.287  21.858  24.024  0.00  0.00     0.080 H 
ATOM     45  H   SGN d 378      16.622  23.169  24.925  0.00  0.00     0.080 H 
ATOM     46  H   SGN d 378      16.022  23.330  20.160  0.00  0.00     0.089 H 
ATOM     47  H   SGN d 378      15.709  23.512  22.720  0.00  0.00     0.090 H 
ATOM     48  H   SGN d 378      18.543  24.947  20.524  0.00  0.00     0.076 H 
ATOM     49  H   SGN d 378      17.226  26.574  21.687  0.00  0.00     0.131 H 
ATOM     50  H   SGN d 378      18.745  22.924  19.461  0.00  0.00     0.210 HD
ATOM     51  H   SGN d 378      19.018  25.293  17.377  0.00  0.00     0.231 HD
ATOM     52  H   SGN d 378      16.916  24.823  18.500  0.00  0.00     0.140 HD
ATOM     53  H   SGN d 378      15.117  24.694  21.409  0.00  0.00     0.212 HD
ATOM     54  H   SGN d 378      17.547  28.054  19.829  0.00  0.00     0.231 HD
ATOM     55  H   SGN d 378      16.511  27.636  17.699  0.00  0.00     0.231 HD
ENDROOT
TORSDOF 16
ENDMDL
MODEL 8
REMARK VINA RESULT:      -9.6      2.653      6.463
REMARK  0 active torsions:
REMARK  status: ('A' for Active; 'I' for Inactive)
REMARK       I    between atoms: C4_5  and  O4_20 
REMARK       I    between atoms: C6_6  and  C5_15 
REMARK       I    between atoms: C6_6  and  O6_25 
REMARK       I    between atoms: S1_7  and  N_21 
REMARK       I    between atoms: S1_7  and  O1S_34 
REMARK       I    between atoms: S1_7  and  O2S_27 
REMARK       I    between atoms: S1_7  and  O3S_19 
REMARK       I    between atoms: C5_8  and  C6_35 
REMARK       I    between atoms: S2_9  and  O6_25 
REMARK       I    between atoms: C1_10  and  O4_20 
REMARK       I    between atoms: C3_14  and  O3_18 
REMARK       I    between atoms: C2_16  and  N_21 
REMARK       I    between atoms: C1_17  and  O1_26 
REMARK       I    between atoms: C2_22  and  O2_29 
REMARK       I    between atoms: S_23  and  O2_29 
REMARK       I    between atoms: C3_30  and  O3_31 
ROOT
ATOM      1  O3S IXD d 379      18.173  23.462  24.982  0.00  0.00    -0.572 OA
ATOM      2  O2S IXD d 379      16.844  25.279  25.879  0.00  0.00    -0.572 OA
ATOM      3  O5  IXD d 379      15.181  23.163  22.283  0.00  0.00    -0.343 OA
ATOM      4  O62 IXD d 379      13.683  22.512  19.881  0.00  0.00    -0.646 OA
ATOM      5  C5  IXD d 379      14.884  23.998  21.130  0.00  0.00     0.127 C 
ATOM      6  C1  IXD d 379      16.564  22.871  22.519  0.00  0.00     0.161 C 
ATOM      7  O1S IXD d 379      18.994  25.709  24.868  0.00  0.00    -0.572 OA
ATOM      8  O61 IXD d 379      13.189  24.668  19.696  0.00  0.00    -0.646 OA
ATOM      9  C2  IXD d 379      17.395  24.143  22.372  0.00  0.00     0.132 C 
ATOM     10  S   IXD d 379      17.770  24.878  24.792  0.00  0.00     0.252 S 
ATOM     11  C4  IXD d 379      15.658  25.051  20.907  0.00  0.00    -0.005 C 
ATOM     12  O2  IXD d 379      17.072  25.043  23.428  0.00  0.00    -0.244 OA
ATOM     13  C3  IXD d 379      17.121  24.758  21.001  0.00  0.00     0.069 C 
ATOM     14  O3  IXD d 379      17.832  25.952  20.745  0.00  0.00    -0.393 OA
ATOM     15  C6  IXD d 379      13.841  23.706  20.184  0.00  0.00     0.203 C 
ATOM     16  H   IXD d 379      13.966  23.742  21.616  0.00  0.00     0.100 H 
ATOM     17  H   IXD d 379      16.535  22.195  23.348  0.00  0.00     0.133 H 
ATOM     18  H   IXD d 379      18.439  23.922  22.437  0.00  0.00     0.097 H 
ATOM     19  H   IXD d 379      15.418  25.804  21.628  0.00  0.00     0.041 H 
ATOM     20  H   IXD d 379      15.469  25.367  19.903  0.00  0.00     0.041 H 
ATOM     21  H   IXD d 379      17.452  24.047  20.273  0.00  0.00     0.087 H 
ATOM     22  H   IXD d 379      17.565  26.631  21.385  0.00  0.00     0.210 HD
ATOM     23  C4  SGN d 378      18.165  21.732  21.155  0.00  0.00     0.095 C 
ATOM     24  C6  SGN d 378      16.444  20.096  20.567  0.00  0.00     0.067 C 
ATOM     25  S1  SGN d 378      22.932  20.606  22.387  0.00  0.00     0.156 S 
ATOM     26  S2  SGN d 378      16.473  18.284  18.825  0.00  0.00     0.251 S 
ATOM     27  O4S SGN d 378      16.728  18.258  17.398  0.00  0.00    -0.572 OA
ATOM     28  C3  SGN d 378      19.404  22.006  21.996  0.00  0.00     0.083 C 
ATOM     29  C5  SGN d 378      17.549  20.400  21.552  0.00  0.00     0.091 C 
ATOM     30  C2  SGN d 378      20.337  20.810  21.934  0.00  0.00     0.081 C 
ATOM     31  C1  SGN d 378      19.606  19.527  22.309  0.00  0.00     0.147 C 
ATOM     32  O3  SGN d 378      20.107  23.122  21.507  0.00  0.00    -0.391 OA
ATOM     33  O3S SGN d 378      23.315  21.429  21.245  0.00  0.00    -0.296 OA
ATOM     34  O4  SGN d 378      17.182  22.731  21.337  0.00  0.00    -0.348 OA
ATOM     35  N   SGN d 378      21.455  21.033  22.827  0.00  0.00    -0.210 NA
ATOM     36  O6  SGN d 378      17.072  19.580  19.418  0.00  0.00    -0.254 OA
ATOM     37  O1  SGN d 378      19.204  19.595  23.656  0.00  0.00    -0.369 OA
ATOM     38  O2S SGN d 378      22.844  19.196  22.008  0.00  0.00    -0.296 OA
ATOM     39  O6S SGN d 378      15.053  18.301  19.150  0.00  0.00    -0.572 OA
ATOM     40  O5S SGN d 378      17.159  17.188  19.502  0.00  0.00    -0.572 OA
ATOM     41  O5  SGN d 378      18.481  19.341  21.481  0.00  0.00    -0.350 OA
ATOM     42  O1S SGN d 378      23.791  20.864  23.543  0.00  0.00    -0.296 OA
ATOM     43  H   SGN d 378      18.477  21.719  20.132  0.00  0.00     0.091 H 
ATOM     44  H   SGN d 378      15.906  20.989  20.326  0.00  0.00     0.080 H 
ATOM     45  H   SGN d 378      15.741  19.399  20.973  0.00  0.00     0.080 H 
ATOM     46  H   SGN d 378      19.083  22.193  23.000  0.00  0.00     0.089 H 
ATOM     47  H   SGN d 378      17.199  20.479  22.560  0.00  0.00     0.090 H 
ATOM     48  H   SGN d 378      20.693  20.699  20.932  0.00  0.00     0.076 H 
ATOM     49  H   SGN d 378      20.269  18.698  22.175  0.00  0.00     0.131 H 
ATOM     50  H   SGN d 378      20.397  22.949  20.598  0.00  0.00     0.210 HD
ATOM     51  H   SGN d 378      23.367  22.357  21.520  0.00  0.00     0.231 HD
ATOM     52  H   SGN d 378      21.484  22.035  23.018  0.00  0.00     0.140 HD
ATOM     53  H   SGN d 378      18.604  20.347  23.776  0.00  0.00     0.212 HD
ATOM     54  H   SGN d 378      22.588  18.669  22.780  0.00  0.00     0.231 HD
ATOM     55  H   SGN d 378      23.512  20.303  24.283  0.00  0.00     0.231 HD
ENDROOT
TORSDOF 16
ENDMDL
MODEL 9
REMARK VINA RESULT:      -9.6      2.880      5.331
REMARK  0 active torsions:
REMARK  status: ('A' for Active; 'I' for Inactive)
REMARK       I    between atoms: C4_5  and  O4_20 
REMARK       I    between atoms: C6_6  and  C5_15 
REMARK       I    between atoms: C6_6  and  O6_25 
REMARK       I    between atoms: S1_7  and  N_21 
REMARK       I    between atoms: S1_7  and  O1S_34 
REMARK       I    between atoms: S1_7  and  O2S_27 
REMARK       I    between atoms: S1_7  and  O3S_19 
REMARK       I    between atoms: C5_8  and  C6_35 
REMARK       I    between atoms: S2_9  and  O6_25 
REMARK       I    between atoms: C1_10  and  O4_20 
REMARK       I    between atoms: C3_14  and  O3_18 
REMARK       I    between atoms: C2_16  and  N_21 
REMARK       I    between atoms: C1_17  and  O1_26 
REMARK       I    between atoms: C2_22  and  O2_29 
REMARK       I    between atoms: S_23  and  O2_29 
REMARK       I    between atoms: C3_30  and  O3_31 
ROOT
ATOM      1  O3S IXD d 379      18.547  18.820  19.436  0.00  0.00    -0.572 OA
ATOM      2  O2S IXD d 379      20.233  17.141  18.975  0.00  0.00    -0.572 OA
ATOM      3  O5  IXD d 379      21.097  19.978  22.348  0.00  0.00    -0.343 OA
ATOM      4  O62 IXD d 379      22.441  21.576  24.369  0.00  0.00    -0.646 OA
ATOM      5  C5  IXD d 379      22.338  20.729  22.251  0.00  0.00     0.127 C 
ATOM      6  C1  IXD d 379      20.021  20.413  21.508  0.00  0.00     0.161 C 
ATOM      7  O1S IXD d 379      19.765  18.887  17.375  0.00  0.00    -0.572 OA
ATOM      8  O61 IXD d 379      24.352  21.157  23.320  0.00  0.00    -0.646 OA
ATOM      9  C2  IXD d 379      20.541  20.682  20.098  0.00  0.00     0.132 C 
ATOM     10  S   IXD d 379      19.874  18.572  18.818  0.00  0.00     0.252 S 
ATOM     11  C4  IXD d 379      22.762  21.079  21.045  0.00  0.00    -0.005 C 
ATOM     12  O2  IXD d 379      20.939  19.453  19.499  0.00  0.00    -0.244 OA
ATOM     13  C3  IXD d 379      21.699  21.674  20.178  0.00  0.00     0.069 C 
ATOM     14  O3  IXD d 379      22.274  22.001  18.929  0.00  0.00    -0.393 OA
ATOM     15  C6  IXD d 379      23.094  21.170  23.393  0.00  0.00     0.203 C 
ATOM     16  H   IXD d 379      22.464  19.948  22.970  0.00  0.00     0.100 H 
ATOM     17  H   IXD d 379      19.208  19.782  21.802  0.00  0.00     0.133 H 
ATOM     18  H   IXD d 379      19.774  21.111  19.488  0.00  0.00     0.097 H 
ATOM     19  H   IXD d 379      23.145  20.207  20.557  0.00  0.00     0.041 H 
ATOM     20  H   IXD d 379      23.507  21.833  21.185  0.00  0.00     0.041 H 
ATOM     21  H   IXD d 379      21.299  22.584  20.574  0.00  0.00     0.087 H 
ATOM     22  H   IXD d 379      22.652  21.203  18.528  0.00  0.00     0.210 HD
ATOM     23  C4  SGN d 378      18.866  22.506  21.423  0.00  0.00     0.095 C 
ATOM     24  C6  SGN d 378      18.878  22.570  23.869  0.00  0.00     0.067 C 
ATOM     25  S1  SGN d 378      14.900  23.656  18.515  0.00  0.00     0.156 S 
ATOM     26  S2  SGN d 378      18.263  24.438  25.434  0.00  0.00     0.251 S 
ATOM     27  O4S SGN d 378      18.687  25.816  25.577  0.00  0.00    -0.572 OA
ATOM     28  C3  SGN d 378      18.033  22.246  20.176  0.00  0.00     0.083 C 
ATOM     29  C5  SGN d 378      18.081  22.118  22.666  0.00  0.00     0.091 C 
ATOM     30  C2  SGN d 378      16.674  22.907  20.325  0.00  0.00     0.081 C 
ATOM     31  C1  SGN d 378      15.997  22.481  21.621  0.00  0.00     0.147 C 
ATOM     32  O3  SGN d 378      18.650  22.790  19.035  0.00  0.00    -0.391 OA
ATOM     33  O3S SGN d 378      15.750  24.692  17.938  0.00  0.00    -0.296 OA
ATOM     34  O4  SGN d 378      20.061  21.750  21.416  0.00  0.00    -0.348 OA
ATOM     35  N   SGN d 378      15.849  22.558  19.186  0.00  0.00    -0.210 NA
ATOM     36  O6  SGN d 378      18.626  23.946  24.014  0.00  0.00    -0.254 OA
ATOM     37  O1  SGN d 378      15.718  21.103  21.572  0.00  0.00    -0.369 OA
ATOM     38  O2S SGN d 378      14.084  24.197  19.601  0.00  0.00    -0.296 OA
ATOM     39  O6S SGN d 378      18.931  23.536  26.363  0.00  0.00    -0.572 OA
ATOM     40  O5S SGN d 378      16.812  24.320  25.531  0.00  0.00    -0.572 OA
ATOM     41  O5  SGN d 378      16.827  22.764  22.725  0.00  0.00    -0.350 OA
ATOM     42  O1S SGN d 378      14.137  22.956  17.482  0.00  0.00    -0.296 OA
ATOM     43  H   SGN d 378      19.103  23.549  21.430  0.00  0.00     0.091 H 
ATOM     44  H   SGN d 378      19.922  22.399  23.707  0.00  0.00     0.080 H 
ATOM     45  H   SGN d 378      18.597  22.027  24.747  0.00  0.00     0.080 H 
ATOM     46  H   SGN d 378      17.934  21.186  20.063  0.00  0.00     0.089 H 
ATOM     47  H   SGN d 378      17.920  21.061  22.645  0.00  0.00     0.090 H 
ATOM     48  H   SGN d 378      16.806  23.968  20.361  0.00  0.00     0.076 H 
ATOM     49  H   SGN d 378      15.084  23.027  21.732  0.00  0.00     0.131 H 
ATOM     50  H   SGN d 378      18.737  23.750  19.141  0.00  0.00     0.210 HD
ATOM     51  H   SGN d 378      16.282  24.311  17.222  0.00  0.00     0.231 HD
ATOM     52  H   SGN d 378      16.480  22.229  18.456  0.00  0.00     0.140 HD
ATOM     53  H   SGN d 378      16.547  20.609  21.470  0.00  0.00     0.212 HD
ATOM     54  H   SGN d 378      13.528  23.492  19.969  0.00  0.00     0.231 HD
ATOM     55  H   SGN d 378      13.582  22.276  17.895  0.00  0.00     0.231 HD
ENDROOT
TORSDOF 16
ENDMDL
MODEL 10
REMARK VINA RESULT:      -9.2      2.874      5.186
REMARK  0 active torsions:
REMARK  status: ('A' for Active; 'I' for Inactive)
REMARK       I    between atoms: C4_5  and  O4_20 
REMARK       I    between atoms: C6_6  and  C5_15 
REMARK       I    between atoms: C6_6  and  O6_25 
REMARK       I    between atoms: S1_7  and  N_21 
REMARK       I    between atoms: S1_7  and  O1S_34 
REMARK       I    between atoms: S1_7  and  O2S_27 
REMARK       I    between atoms: S1_7  and  O3S_19 
REMARK       I    between atoms: C5_8  and  C6_35 
REMARK       I    between atoms: S2_9  and  O6_25 
REMARK       I    between atoms: C1_10  and  O4_20 
REMARK       I    between atoms: C3_14  and  O3_18 
REMARK       I    between atoms: C2_16  and  N_21 
REMARK       I    between atoms: C1_17  and  O1_26 
REMARK       I    between atoms: C2_22  and  O2_29 
REMARK       I    between atoms: S_23  and  O2_29 
REMARK       I    between atoms: C3_30  and  O3_31 
ROOT
ATOM      1  O3S IXD d 379      17.006  21.301  18.407  0.00  0.00    -0.572 OA
ATOM      2  O2S IXD d 379      18.424  23.183  17.842  0.00  0.00    -0.572 OA
ATOM      3  O5  IXD d 379      17.897  22.311  22.217  0.00  0.00    -0.343 OA
ATOM      4  O62 IXD d 379      17.785  22.548  25.110  0.00  0.00    -0.646 OA
ATOM      5  C5  IXD d 379      17.390  23.403  23.031  0.00  0.00     0.127 C 
ATOM      6  C1  IXD d 379      16.942  21.636  21.389  0.00  0.00     0.161 C 
ATOM      7  O1S IXD d 379      16.056  23.242  17.375  0.00  0.00    -0.572 OA
ATOM      8  O61 IXD d 379      17.868  24.752  24.856  0.00  0.00    -0.646 OA
ATOM      9  C2  IXD d 379      16.060  22.658  20.676  0.00  0.00     0.132 C 
ATOM     10  S   IXD d 379      17.085  22.782  18.337  0.00  0.00     0.252 S 
ATOM     11  C4  IXD d 379      16.532  24.247  22.476  0.00  0.00    -0.005 C 
ATOM     12  O2  IXD d 379      16.845  23.383  19.735  0.00  0.00    -0.244 OA
ATOM     13  C3  IXD d 379      15.429  23.580  21.717  0.00  0.00     0.069 C 
ATOM     14  O3  IXD d 379      14.589  24.580  21.178  0.00  0.00    -0.393 OA
ATOM     15  C6  IXD d 379      17.716  23.579  24.421  0.00  0.00     0.203 C 
ATOM     16  H   IXD d 379      18.439  23.299  23.209  0.00  0.00     0.100 H 
ATOM     17  H   IXD d 379      17.511  20.840  20.955  0.00  0.00     0.133 H 
ATOM     18  H   IXD d 379      15.274  22.170  20.140  0.00  0.00     0.097 H 
ATOM     19  H   IXD d 379      17.070  24.879  21.801  0.00  0.00     0.041 H 
ATOM     20  H   IXD d 379      16.073  24.793  23.273  0.00  0.00     0.041 H 
ATOM     21  H   IXD d 379      14.809  22.966  22.337  0.00  0.00     0.087 H 
ATOM     22  H   IXD d 379      15.110  25.165  20.605  0.00  0.00     0.210 HD
ATOM     23  C4  SGN d 378      14.967  20.419  21.972  0.00  0.00     0.095 C 
ATOM     24  C6  SGN d 378      16.180  19.423  23.849  0.00  0.00     0.067 C 
ATOM     25  S1  SGN d 378      11.928  17.898  18.823  0.00  0.00     0.156 S 
ATOM     26  S2  SGN d 378      15.325  18.043  25.768  0.00  0.00     0.251 S 
ATOM     27  O4S SGN d 378      14.296  18.235  26.770  0.00  0.00    -0.572 OA
ATOM     28  C3  SGN d 378      14.423  20.198  20.567  0.00  0.00     0.083 C 
ATOM     29  C5  SGN d 378      15.825  19.236  22.392  0.00  0.00     0.091 C 
ATOM     30  C2  SGN d 378      13.748  18.840  20.490  0.00  0.00     0.081 C 
ATOM     31  C1  SGN d 378      14.681  17.737  20.972  0.00  0.00     0.147 C 
ATOM     32  O3  SGN d 378      13.462  21.172  20.240  0.00  0.00    -0.391 OA
ATOM     33  O3S SGN d 378      10.877  18.804  19.272  0.00  0.00    -0.296 OA
ATOM     34  O4  SGN d 378      15.772  21.579  22.041  0.00  0.00    -0.348 OA
ATOM     35  N   SGN d 378      13.337  18.591  19.124  0.00  0.00    -0.210 NA
ATOM     36  O6  SGN d 378      15.057  19.001  24.585  0.00  0.00    -0.254 OA
ATOM     37  O1  SGN d 378      15.780  17.638  20.099  0.00  0.00    -0.369 OA
ATOM     38  O2S SGN d 378      11.917  16.660  19.602  0.00  0.00    -0.296 OA
ATOM     39  O6S SGN d 378      16.662  18.357  26.255  0.00  0.00    -0.572 OA
ATOM     40  O5S SGN d 378      15.267  16.698  25.206  0.00  0.00    -0.572 OA
ATOM     41  O5  SGN d 378      15.132  18.011  22.280  0.00  0.00    -0.350 OA
ATOM     42  O1S SGN d 378      11.875  17.696  17.375  0.00  0.00    -0.296 OA
ATOM     43  H   SGN d 378      14.124  20.529  22.621  0.00  0.00     0.091 H 
ATOM     44  H   SGN d 378      16.389  20.453  24.050  0.00  0.00     0.080 H 
ATOM     45  H   SGN d 378      17.052  18.862  24.113  0.00  0.00     0.080 H 
ATOM     46  H   SGN d 378      15.245  20.258  19.885  0.00  0.00     0.089 H 
ATOM     47  H   SGN d 378      16.684  19.201  21.754  0.00  0.00     0.090 H 
ATOM     48  H   SGN d 378      12.890  18.841  21.130  0.00  0.00     0.076 H 
ATOM     49  H   SGN d 378      14.148  16.810  20.983  0.00  0.00     0.131 H 
ATOM     50  H   SGN d 378      12.719  21.114  20.860  0.00  0.00     0.210 HD
ATOM     51  H   SGN d 378      10.903  19.616  18.742  0.00  0.00     0.231 HD
ATOM     52  H   SGN d 378      13.327  19.494  18.651  0.00  0.00     0.140 HD
ATOM     53  H   SGN d 378      16.262  18.480  20.090  0.00  0.00     0.212 HD
ATOM     54  H   SGN d 378      12.622  16.074  19.287  0.00  0.00     0.231 HD
ATOM     55  H   SGN d 378      12.584  17.090  17.108  0.00  0.00     0.231 HD
ENDROOT
TORSDOF 16
ENDMDL
MODEL 11
REMARK VINA RESULT:      -8.9      2.858      7.522
REMARK  0 active torsions:
REMARK  status: ('A' for Active; 'I' for Inactive)
REMARK       I    between atoms: C4_5  and  O4_20 
REMARK       I    between atoms: C6_6  and  C5_15 
REMARK       I    between atoms: C6_6  and  O6_25 
REMARK       I    between atoms: S1_7  and  N_21 
REMARK       I    between atoms: S1_7  and  O1S_34 
REMARK       I    between atoms: S1_7  and  O2S_27 
REMARK       I    between atoms: S1_7  and  O3S_19 
REMARK       I    between atoms: C5_8  and  C6_35 
REMARK       I    between atoms: S2_9  and  O6_25 
REMARK       I    between atoms: C1_10  and  O4_20 
REMARK       I    between atoms: C3_14  and  O3_18 
REMARK       I    between atoms: C2_16  and  N_21 
REMARK       I    between atoms: C1_17  and  O1_26 
REMARK       I    between atoms: C2_22  and  O2_29 
REMARK       I    between atoms: S_23  and  O2_29 
REMARK       I    between atoms: C3_30  and  O3_31 
ROOT
ATOM      1  O3S IXD d 379      20.727  21.130  21.691  0.00  0.00    -0.572 OA
ATOM      2  O2S IXD d 379      21.997  19.921  23.364  0.00  0.00    -0.572 OA
ATOM      3  O5  IXD d 379      17.779  18.543  22.663  0.00  0.00    -0.343 OA
ATOM      4  O62 IXD d 379      15.155  17.336  22.977  0.00  0.00    -0.646 OA
ATOM      5  C5  IXD d 379      16.911  18.520  23.829  0.00  0.00     0.127 C 
ATOM      6  C1  IXD d 379      18.053  19.831  22.097  0.00  0.00     0.161 C 
ATOM      7  O1S IXD d 379      21.385  22.230  23.714  0.00  0.00    -0.572 OA
ATOM      8  O61 IXD d 379      15.588  17.144  25.146  0.00  0.00    -0.646 OA
ATOM      9  C2  IXD d 379      18.383  20.825  23.207  0.00  0.00     0.132 C 
ATOM     10  S   IXD d 379      20.937  20.936  23.148  0.00  0.00     0.252 S 
ATOM     11  C4  IXD d 379      17.098  19.442  24.764  0.00  0.00    -0.005 C 
ATOM     12  O2  IXD d 379      19.626  20.468  23.806  0.00  0.00    -0.244 OA
ATOM     13  C3  IXD d 379      17.245  20.829  24.225  0.00  0.00     0.069 C 
ATOM     14  O3  IXD d 379      17.437  21.711  25.312  0.00  0.00    -0.393 OA
ATOM     15  C6  IXD d 379      15.822  17.595  23.993  0.00  0.00     0.203 C 
ATOM     16  H   IXD d 379      17.202  17.517  23.596  0.00  0.00     0.100 H 
ATOM     17  H   IXD d 379      18.629  19.600  21.226  0.00  0.00     0.133 H 
ATOM     18  H   IXD d 379      18.483  21.814  22.812  0.00  0.00     0.097 H 
ATOM     19  H   IXD d 379      17.986  19.196  25.307  0.00  0.00     0.041 H 
ATOM     20  H   IXD d 379      16.225  19.439  25.381  0.00  0.00     0.041 H 
ATOM     21  H   IXD d 379      16.372  21.170  23.709  0.00  0.00     0.087 H 
ATOM     22  H   IXD d 379      18.223  21.441  25.813  0.00  0.00     0.210 HD
ATOM     23  C4  SGN d 378      16.574  21.458  21.155  0.00  0.00     0.095 C 
ATOM     24  C6  SGN d 378      15.346  19.651  20.055  0.00  0.00     0.067 C 
ATOM     25  S1  SGN d 378      17.875  25.823  18.973  0.00  0.00     0.156 S 
ATOM     26  S2  SGN d 378      13.147  19.706  18.838  0.00  0.00     0.251 S 
ATOM     27  O4S SGN d 378      11.814  20.158  19.182  0.00  0.00    -0.572 OA
ATOM     28  C3  SGN d 378      17.578  22.588  20.974  0.00  0.00     0.083 C 
ATOM     29  C5  SGN d 378      16.483  20.632  19.882  0.00  0.00     0.091 C 
ATOM     30  C2  SGN d 378      17.249  23.365  19.712  0.00  0.00     0.081 C 
ATOM     31  C1  SGN d 378      17.140  22.436  18.511  0.00  0.00     0.147 C 
ATOM     32  O3  SGN d 378      17.525  23.487  22.056  0.00  0.00    -0.391 OA
ATOM     33  O3S SGN d 378      17.083  26.465  20.016  0.00  0.00    -0.296 OA
ATOM     34  O4  SGN d 378      16.952  20.590  22.205  0.00  0.00    -0.348 OA
ATOM     35  N   SGN d 378      18.275  24.363  19.488  0.00  0.00    -0.210 NA
ATOM     36  O6  SGN d 378      14.163  20.368  19.796  0.00  0.00    -0.254 OA
ATOM     37  O1  SGN d 378      18.396  21.855  18.253  0.00  0.00    -0.369 OA
ATOM     38  O2S SGN d 378      17.078  25.617  17.764  0.00  0.00    -0.296 OA
ATOM     39  O6S SGN d 378      13.318  18.267  18.990  0.00  0.00    -0.572 OA
ATOM     40  O5S SGN d 378      13.524  20.147  17.500  0.00  0.00    -0.572 OA
ATOM     41  O5  SGN d 378      16.186  21.426  18.753  0.00  0.00    -0.350 OA
ATOM     42  O1S SGN d 378      19.135  26.533  18.747  0.00  0.00    -0.296 OA
ATOM     43  H   SGN d 378      15.632  21.909  21.386  0.00  0.00     0.091 H 
ATOM     44  H   SGN d 378      15.336  19.267  21.054  0.00  0.00     0.080 H 
ATOM     45  H   SGN d 378      15.448  18.816  19.393  0.00  0.00     0.080 H 
ATOM     46  H   SGN d 378      18.554  22.152  20.914  0.00  0.00     0.089 H 
ATOM     47  H   SGN d 378      17.427  20.153  19.724  0.00  0.00     0.090 H 
ATOM     48  H   SGN d 378      16.301  23.845  19.837  0.00  0.00     0.076 H 
ATOM     49  H   SGN d 378      16.827  23.003  17.659  0.00  0.00     0.131 H 
ATOM     50  H   SGN d 378      16.640  23.880  22.106  0.00  0.00     0.210 HD
ATOM     51  H   SGN d 378      17.631  26.591  20.806  0.00  0.00     0.231 HD
ATOM     52  H   SGN d 378      18.763  24.487  20.374  0.00  0.00     0.140 HD
ATOM     53  H   SGN d 378      18.679  21.342  19.026  0.00  0.00     0.212 HD
ATOM     54  H   SGN d 378      17.624  25.190  17.086  0.00  0.00     0.231 HD
ATOM     55  H   SGN d 378      19.638  26.083  18.050  0.00  0.00     0.231 HD
ENDROOT
TORSDOF 16
ENDMDL
MODEL 12
REMARK VINA RESULT:      -8.8      2.499      6.331
REMARK  0 active torsions:
REMARK  status: ('A' for Active; 'I' for Inactive)
REMARK       I    between atoms: C4_5  and  O4_20 
REMARK       I    between atoms: C6_6  and  C5_15 
REMARK       I    between atoms: C6_6  and  O6_25 
REMARK       I    between atoms: S1_7  and  N_21 
REMARK       I    between atoms: S1_7  and  O1S_34 
REMARK       I    between atoms: S1_7  and  O2S_27 
REMARK       I    between atoms: S1_7  and  O3S_19 
REMARK       I    between atoms: C5_8  and  C6_35 
REMARK       I    between atoms: S2_9  and  O6_25 
REMARK       I    between atoms: C1_10  and  O4_20 
REMARK       I    between atoms: C3_14  and  O3_18 
REMARK       I    between atoms: C2_16  and  N_21 
REMARK       I    between atoms: C1_17  and  O1_26 
REMARK       I    between atoms: C2_22  and  O2_29 
REMARK       I    between atoms: S_23  and  O2_29 
REMARK       I    between atoms: C3_30  and  O3_31 
ROOT
ATOM      1  O3S IXD d 379      16.616  18.856  24.789  0.00  0.00    -0.572 OA
ATOM      2  O2S IXD d 379      15.247  16.859  24.891  0.00  0.00    -0.572 OA
ATOM      3  O5  IXD d 379      16.733  18.068  20.828  0.00  0.00    -0.343 OA
ATOM      4  O62 IXD d 379      17.045  18.383  17.957  0.00  0.00    -0.646 OA
ATOM      5  C5  IXD d 379      15.716  18.274  19.810  0.00  0.00     0.127 C 
ATOM      6  C1  IXD d 379      16.872  19.102  21.810  0.00  0.00     0.161 C 
ATOM      7  O1S IXD d 379      14.306  19.024  25.399  0.00  0.00    -0.572 OA
ATOM      8  O61 IXD d 379      14.993  17.570  17.722  0.00  0.00    -0.646 OA
ATOM      9  C2  IXD d 379      15.495  19.534  22.306  0.00  0.00     0.132 C 
ATOM     10  S   IXD d 379      15.264  18.298  24.533  0.00  0.00     0.252 S 
ATOM     11  C4  IXD d 379      14.542  18.756  20.191  0.00  0.00    -0.005 C 
ATOM     12  O2  IXD d 379      14.904  18.468  23.045  0.00  0.00    -0.244 OA
ATOM     13  C3  IXD d 379      14.638  19.934  21.107  0.00  0.00     0.069 C 
ATOM     14  O3  IXD d 379      13.329  20.351  21.438  0.00  0.00    -0.393 OA
ATOM     15  C6  IXD d 379      15.937  18.048  18.406  0.00  0.00     0.203 C 
ATOM     16  H   IXD d 379      16.199  17.337  19.629  0.00  0.00     0.100 H 
ATOM     17  H   IXD d 379      17.711  18.780  22.391  0.00  0.00     0.133 H 
ATOM     18  H   IXD d 379      15.575  20.378  22.957  0.00  0.00     0.097 H 
ATOM     19  H   IXD d 379      14.007  17.980  20.697  0.00  0.00     0.041 H 
ATOM     20  H   IXD d 379      14.042  19.091  19.307  0.00  0.00     0.041 H 
ATOM     21  H   IXD d 379      15.118  20.777  20.654  0.00  0.00     0.087 H 
ATOM     22  H   IXD d 379      12.852  19.616  21.855  0.00  0.00     0.210 HD
ATOM     23  C4  SGN d 378      17.446  21.411  21.561  0.00  0.00     0.095 C 
ATOM     24  C6  SGN d 378      19.139  20.775  19.914  0.00  0.00     0.067 C 
ATOM     25  S1  SGN d 378      18.131  24.774  25.267  0.00  0.00     0.156 S 
ATOM     26  S2  SGN d 378      20.500  22.214  18.366  0.00  0.00     0.251 S 
ATOM     27  O4S SGN d 378      20.176  23.220  17.375  0.00  0.00    -0.572 OA
ATOM     28  C3  SGN d 378      17.191  21.856  22.995  0.00  0.00     0.083 C 
ATOM     29  C5  SGN d 378      18.906  21.025  21.386  0.00  0.00     0.091 C 
ATOM     30  C2  SGN d 378      18.201  22.921  23.385  0.00  0.00     0.081 C 
ATOM     31  C1  SGN d 378      19.625  22.444  23.129  0.00  0.00     0.147 C 
ATOM     32  O3  SGN d 378      15.907  22.415  23.128  0.00  0.00    -0.391 OA
ATOM     33  O3S SGN d 378      17.032  25.516  24.661  0.00  0.00    -0.296 OA
ATOM     34  O4  SGN d 378      16.660  20.287  21.219  0.00  0.00    -0.348 OA
ATOM     35  N   SGN d 378      18.024  23.253  24.784  0.00  0.00    -0.210 NA
ATOM     36  O6  SGN d 378      19.296  22.041  19.319  0.00  0.00    -0.254 OA
ATOM     37  O1  SGN d 378      19.912  21.355  23.972  0.00  0.00    -0.369 OA
ATOM     38  O2S SGN d 378      19.421  25.259  24.778  0.00  0.00    -0.296 OA
ATOM     39  O6S SGN d 378      20.756  20.902  17.785  0.00  0.00    -0.572 OA
ATOM     40  O5S SGN d 378      21.610  22.644  19.210  0.00  0.00    -0.572 OA
ATOM     41  O5  SGN d 378      19.780  22.061  21.781  0.00  0.00    -0.350 OA
ATOM     42  O1S SGN d 378      18.015  24.745  26.725  0.00  0.00    -0.296 OA
ATOM     43  H   SGN d 378      17.189  22.234  20.927  0.00  0.00     0.091 H 
ATOM     44  H   SGN d 378      18.299  20.266  19.487  0.00  0.00     0.080 H 
ATOM     45  H   SGN d 378      20.000  20.160  19.754  0.00  0.00     0.080 H 
ATOM     46  H   SGN d 378      17.277  20.995  23.624  0.00  0.00     0.089 H 
ATOM     47  H   SGN d 378      19.101  20.165  21.991  0.00  0.00     0.090 H 
ATOM     48  H   SGN d 378      18.037  23.791  22.785  0.00  0.00     0.076 H 
ATOM     49  H   SGN d 378      20.302  23.246  23.336  0.00  0.00     0.131 H 
ATOM     50  H   SGN d 378      15.834  23.195  22.556  0.00  0.00     0.210 HD
ATOM     51  H   SGN d 378      16.188  25.177  25.000  0.00  0.00     0.231 HD
ATOM     52  H   SGN d 378      17.095  22.925  25.048  0.00  0.00     0.140 HD
ATOM     53  H   SGN d 378      19.297  20.630  23.784  0.00  0.00     0.212 HD
ATOM     54  H   SGN d 378      20.136  24.752  25.193  0.00  0.00     0.231 HD
ATOM     55  H   SGN d 378      18.758  24.246  27.099  0.00  0.00     0.231 HD
ENDROOT
TORSDOF 16
ENDMDL
MODEL 13
REMARK VINA RESULT:      -8.2      2.448      7.447
REMARK  0 active torsions:
REMARK  status: ('A' for Active; 'I' for Inactive)
REMARK       I    between atoms: C4_5  and  O4_20 
REMARK       I    between atoms: C6_6  and  C5_15 
REMARK       I    between atoms: C6_6  and  O6_25 
REMARK       I    between atoms: S1_7  and  N_21 
REMARK       I    between atoms: S1_7  and  O1S_34 
REMARK       I    between atoms: S1_7  and  O2S_27 
REMARK       I    between atoms: S1_7  and  O3S_19 
REMARK       I    between atoms: C5_8  and  C6_35 
REMARK       I    between atoms: S2_9  and  O6_25 
REMARK       I    between atoms: C1_10  and  O4_20 
REMARK       I    between atoms: C3_14  and  O3_18 
REMARK       I    between atoms: C2_16  and  N_21 
REMARK       I    between atoms: C1_17  and  O1_26 
REMARK       I    between atoms: C2_22  and  O2_29 
REMARK       I    between atoms: S_23  and  O2_29 
REMARK       I    between atoms: C3_30  and  O3_31 
ROOT
ATOM      1  O3S IXD d 379      17.700  23.530  24.951  0.00  0.00    -0.572 OA
ATOM      2  O2S IXD d 379      18.359  23.214  27.261  0.00  0.00    -0.572 OA
ATOM      3  O5  IXD d 379      20.321  20.540  24.231  0.00  0.00    -0.343 OA
ATOM      4  O62 IXD d 379      21.715  18.337  22.949  0.00  0.00    -0.646 OA
ATOM      5  C5  IXD d 379      20.183  19.110  24.455  0.00  0.00     0.127 C 
ATOM      6  C1  IXD d 379      19.168  21.220  23.720  0.00  0.00     0.161 C 
ATOM      7  O1S IXD d 379      16.113  22.699  26.541  0.00  0.00    -0.572 OA
ATOM      8  O61 IXD d 379      21.373  17.148  24.792  0.00  0.00    -0.646 OA
ATOM      9  C2  IXD d 379      17.923  20.771  24.480  0.00  0.00     0.132 C 
ATOM     10  S   IXD d 379      17.542  22.668  26.150  0.00  0.00     0.252 S 
ATOM     11  C4  IXD d 379      19.062  18.672  25.011  0.00  0.00    -0.005 C 
ATOM     12  O2  IXD d 379      17.997  21.234  25.825  0.00  0.00    -0.244 OA
ATOM     13  C3  IXD d 379      17.821  19.249  24.409  0.00  0.00     0.069 C 
ATOM     14  O3  IXD d 379      16.704  18.707  25.084  0.00  0.00    -0.393 OA
ATOM     15  C6  IXD d 379      21.165  18.142  24.045  0.00  0.00     0.203 C 
ATOM     16  H   IXD d 379      21.173  19.408  24.729  0.00  0.00     0.100 H 
ATOM     17  H   IXD d 379      19.520  22.219  23.563  0.00  0.00     0.133 H 
ATOM     18  H   IXD d 379      17.041  21.186  24.039  0.00  0.00     0.097 H 
ATOM     19  H   IXD d 379      19.081  18.925  26.051  0.00  0.00     0.041 H 
ATOM     20  H   IXD d 379      19.026  17.616  24.845  0.00  0.00     0.041 H 
ATOM     21  H   IXD d 379      17.702  18.996  23.376  0.00  0.00     0.087 H 
ATOM     22  H   IXD d 379      16.768  18.913  26.031  0.00  0.00     0.210 HD
ATOM     23  C4  SGN d 378      17.966  20.915  21.675  0.00  0.00     0.095 C 
ATOM     24  C6  SGN d 378      20.097  20.649  20.505  0.00  0.00     0.067 C 
ATOM     25  S1  SGN d 378      14.074  23.672  20.014  0.00  0.00     0.156 S 
ATOM     26  S2  SGN d 378      20.559  19.895  18.152  0.00  0.00     0.251 S 
ATOM     27  O4S SGN d 378      20.195  18.727  17.375  0.00  0.00    -0.572 OA
ATOM     28  C3  SGN d 378      16.799  21.848  21.966  0.00  0.00     0.083 C 
ATOM     29  C5  SGN d 378      19.058  21.662  20.927  0.00  0.00     0.091 C 
ATOM     30  C2  SGN d 378      16.362  22.532  20.682  0.00  0.00     0.081 C 
ATOM     31  C1  SGN d 378      17.540  23.210  19.996  0.00  0.00     0.147 C 
ATOM     32  O3  SGN d 378      15.695  21.134  22.466  0.00  0.00    -0.391 OA
ATOM     33  O3S SGN d 378      13.310  22.430  20.045  0.00  0.00    -0.296 OA
ATOM     34  O4  SGN d 378      18.532  20.406  22.866  0.00  0.00    -0.348 OA
ATOM     35  N   SGN d 378      15.330  23.502  20.989  0.00  0.00    -0.210 NA
ATOM     36  O6  SGN d 378      19.592  20.022  19.350  0.00  0.00    -0.254 OA
ATOM     37  O1  SGN d 378      18.019  24.253  20.809  0.00  0.00    -0.369 OA
ATOM     38  O2S SGN d 378      14.630  23.909  18.683  0.00  0.00    -0.296 OA
ATOM     39  O6S SGN d 378      21.901  19.811  18.714  0.00  0.00    -0.572 OA
ATOM     40  O5S SGN d 378      20.386  21.118  17.375  0.00  0.00    -0.572 OA
ATOM     41  O5  SGN d 378      18.571  22.279  19.754  0.00  0.00    -0.350 OA
ATOM     42  O1S SGN d 378      13.296  24.791  20.547  0.00  0.00    -0.296 OA
ATOM     43  H   SGN d 378      17.583  20.107  21.088  0.00  0.00     0.091 H 
ATOM     44  H   SGN d 378      20.249  19.928  21.281  0.00  0.00     0.080 H 
ATOM     45  H   SGN d 378      21.041  21.115  20.313  0.00  0.00     0.080 H 
ATOM     46  H   SGN d 378      17.125  22.564  22.691  0.00  0.00     0.089 H 
ATOM     47  H   SGN d 378      19.451  22.419  21.572  0.00  0.00     0.090 H 
ATOM     48  H   SGN d 378      15.975  21.795  20.010  0.00  0.00     0.076 H 
ATOM     49  H   SGN d 378      17.214  23.609  19.058  0.00  0.00     0.131 H 
ATOM     50  H   SGN d 378      15.402  20.487  21.806  0.00  0.00     0.210 HD
ATOM     51  H   SGN d 378      12.952  22.294  20.936  0.00  0.00     0.231 HD
ATOM     52  H   SGN d 378      14.959  23.256  21.906  0.00  0.00     0.140 HD
ATOM     53  H   SGN d 378      18.313  23.891  21.660  0.00  0.00     0.212 HD
ATOM     54  H   SGN d 378      15.133  24.738  18.685  0.00  0.00     0.231 HD
ATOM     55  H   SGN d 378      13.829  25.600  20.513  0.00  0.00     0.231 HD
ENDROOT
TORSDOF 16
ENDMDL
MODEL 14
REMARK VINA RESULT:      -7.9      4.193      7.239
REMARK  0 active torsions:
REMARK  status: ('A' for Active; 'I' for Inactive)
REMARK       I    between atoms: C4_5  and  O4_20 
REMARK       I    between atoms: C6_6  and  C5_15 
REMARK       I    between atoms: C6_6  and  O6_25 
REMARK       I    between atoms: S1_7  and  N_21 
REMARK       I    between atoms: S1_7  and  O1S_34 
REMARK       I    between atoms: S1_7  and  O2S_27 
REMARK       I    between atoms: S1_7  and  O3S_19 
REMARK       I    between atoms: C5_8  and  C6_35 
REMARK       I    between atoms: S2_9  and  O6_25 
REMARK       I    between atoms: C1_10  and  O4_20 
REMARK       I    between atoms: C3_14  and  O3_18 
REMARK       I    between atoms: C2_16  and  N_21 
REMARK       I    between atoms: C1_17  and  O1_26 
REMARK       I    between atoms: C2_22  and  O2_29 
REMARK       I    between atoms: S_23  and  O2_29 
REMARK       I    between atoms: C3_30  and  O3_31 
ROOT
ATOM      1  O3S IXD d 379      22.504  20.322  18.142  0.00  0.00    -0.572 OA
ATOM      2  O2S IXD d 379      24.726  19.457  17.713  0.00  0.00    -0.572 OA
ATOM      3  O5  IXD d 379      23.086  18.813  21.845  0.00  0.00    -0.343 OA
ATOM      4  O62 IXD d 379      22.837  18.318  24.697  0.00  0.00    -0.646 OA
ATOM      5  C5  IXD d 379      23.891  19.326  22.940  0.00  0.00     0.127 C 
ATOM      6  C1  IXD d 379      22.346  19.780  21.089  0.00  0.00     0.161 C 
ATOM      7  O1S IXD d 379      24.310  21.835  17.713  0.00  0.00    -0.572 OA
ATOM      8  O61 IXD d 379      25.013  18.721  24.878  0.00  0.00    -0.646 OA
ATOM      9  C2  IXD d 379      23.235  20.980  20.772  0.00  0.00     0.132 C 
ATOM     10  S   IXD d 379      23.955  20.549  18.357  0.00  0.00     0.252 S 
ATOM     11  C4  IXD d 379      24.591  20.434  22.734  0.00  0.00    -0.005 C 
ATOM     12  O2  IXD d 379      24.260  20.581  19.866  0.00  0.00    -0.244 OA
ATOM     13  C3  IXD d 379      23.813  21.527  22.075  0.00  0.00     0.069 C 
ATOM     14  O3  IXD d 379      24.664  22.644  21.912  0.00  0.00    -0.393 OA
ATOM     15  C6  IXD d 379      23.919  18.738  24.253  0.00  0.00     0.203 C 
ATOM     16  H   IXD d 379      24.006  18.264  22.897  0.00  0.00     0.100 H 
ATOM     17  H   IXD d 379      21.780  19.180  20.407  0.00  0.00     0.133 H 
ATOM     18  H   IXD d 379      22.669  21.757  20.304  0.00  0.00     0.097 H 
ATOM     19  H   IXD d 379      25.427  20.193  22.112  0.00  0.00     0.041 H 
ATOM     20  H   IXD d 379      24.885  20.798  23.696  0.00  0.00     0.041 H 
ATOM     21  H   IXD d 379      22.984  21.862  22.663  0.00  0.00     0.087 H 
ATOM     22  H   IXD d 379      25.435  22.388  21.381  0.00  0.00     0.210 HD
ATOM     23  C4  SGN d 378      20.631  21.301  21.772  0.00  0.00     0.095 C 
ATOM     24  C6  SGN d 378      19.662  19.530  23.154  0.00  0.00     0.067 C 
ATOM     25  S1  SGN d 378      17.998  24.423  18.799  0.00  0.00     0.156 S 
ATOM     26  S2  SGN d 378      17.840  19.651  24.882  0.00  0.00     0.251 S 
ATOM     27  O4S SGN d 378      17.631  20.446  26.075  0.00  0.00    -0.572 OA
ATOM     28  C3  SGN d 378      20.512  22.093  20.477  0.00  0.00     0.083 C 
ATOM     29  C5  SGN d 378      19.627  20.159  21.780  0.00  0.00     0.091 C 
ATOM     30  C2  SGN d 378      19.064  22.492  20.255  0.00  0.00     0.081 C 
ATOM     31  C1  SGN d 378      18.145  21.280  20.325  0.00  0.00     0.147 C 
ATOM     32  O3  SGN d 378      21.277  23.272  20.535  0.00  0.00    -0.391 OA
ATOM     33  O3S SGN d 378      18.557  25.501  19.607  0.00  0.00    -0.296 OA
ATOM     34  O4  SGN d 378      21.920  20.741  21.922  0.00  0.00    -0.348 OA
ATOM     35  N   SGN d 378      18.943  23.143  18.967  0.00  0.00    -0.210 NA
ATOM     36  O6  SGN d 378      18.883  20.356  23.985  0.00  0.00    -0.254 OA
ATOM     37  O1  SGN d 378      18.439  20.407  19.262  0.00  0.00    -0.369 OA
ATOM     38  O2S SGN d 378      16.686  24.020  19.302  0.00  0.00    -0.296 OA
ATOM     39  O6S SGN d 378      18.374  18.325  25.166  0.00  0.00    -0.572 OA
ATOM     40  O5S SGN d 378      16.623  19.572  24.082  0.00  0.00    -0.572 OA
ATOM     41  O5  SGN d 378      18.308  20.609  21.555  0.00  0.00    -0.350 OA
ATOM     42  O1S SGN d 378      18.018  24.758  17.375  0.00  0.00    -0.296 OA
ATOM     43  H   SGN d 378      20.441  21.982  22.574  0.00  0.00     0.091 H 
ATOM     44  H   SGN d 378      20.668  19.484  23.515  0.00  0.00     0.080 H 
ATOM     45  H   SGN d 378      19.283  18.530  23.134  0.00  0.00     0.080 H 
ATOM     46  H   SGN d 378      20.866  21.472  19.680  0.00  0.00     0.089 H 
ATOM     47  H   SGN d 378      19.891  19.475  21.001  0.00  0.00     0.090 H 
ATOM     48  H   SGN d 378      18.768  23.169  21.029  0.00  0.00     0.076 H 
ATOM     49  H   SGN d 378      17.129  21.608  20.249  0.00  0.00     0.131 H 
ATOM     50  H   SGN d 378      20.952  23.832  21.257  0.00  0.00     0.210 HD
ATOM     51  H   SGN d 378      19.425  25.751  19.255  0.00  0.00     0.231 HD
ATOM     52  H   SGN d 378      19.882  23.433  18.695  0.00  0.00     0.140 HD
ATOM     53  H   SGN d 378      19.360  20.111  19.333  0.00  0.00     0.212 HD
ATOM     54  H   SGN d 378      16.334  23.303  18.752  0.00  0.00     0.231 HD
ATOM     55  H   SGN d 378      17.641  24.024  16.866  0.00  0.00     0.231 HD
ENDROOT
TORSDOF 16
ENDMDL
MODEL 15
REMARK VINA RESULT:      -7.9      2.724      6.169
REMARK  0 active torsions:
REMARK  status: ('A' for Active; 'I' for Inactive)
REMARK       I    between atoms: C4_5  and  O4_20 
REMARK       I    between atoms: C6_6  and  C5_15 
REMARK       I    between atoms: C6_6  and  O6_25 
REMARK       I    between atoms: S1_7  and  N_21 
REMARK       I    between atoms: S1_7  and  O1S_34 
REMARK       I    between atoms: S1_7  and  O2S_27 
REMARK       I    between atoms: S1_7  and  O3S_19 
REMARK       I    between atoms: C5_8  and  C6_35 
REMARK       I    between atoms: S2_9  and  O6_25 
REMARK       I    between atoms: C1_10  and  O4_20 
REMARK       I    between atoms: C3_14  and  O3_18 
REMARK       I    between atoms: C2_16  and  N_21 
REMARK       I    between atoms: C1_17  and  O1_26 
REMARK       I    between atoms: C2_22  and  O2_29 
REMARK       I    between atoms: S_23  and  O2_29 
REMARK       I    between atoms: C3_30  and  O3_31 
ROOT
ATOM      1  O3S IXD d 379      14.441  18.848  24.214  0.00  0.00    -0.572 OA
ATOM      2  O2S IXD d 379      15.129  18.620  26.526  0.00  0.00    -0.572 OA
ATOM      3  O5  IXD d 379      17.168  21.828  24.133  0.00  0.00    -0.343 OA
ATOM      4  O62 IXD d 379      19.067  23.811  23.181  0.00  0.00    -0.646 OA
ATOM      5  C5  IXD d 379      18.619  21.758  24.073  0.00  0.00     0.127 C 
ATOM      6  C1  IXD d 379      16.450  20.891  23.322  0.00  0.00     0.161 C 
ATOM      7  O1S IXD d 379      15.588  16.871  24.926  0.00  0.00    -0.572 OA
ATOM      8  O61 IXD d 379      20.568  22.920  24.552  0.00  0.00    -0.646 OA
ATOM      9  C2  IXD d 379      17.066  19.502  23.466  0.00  0.00     0.132 C 
ATOM     10  S   IXD d 379      15.501  18.337  25.118  0.00  0.00     0.252 S 
ATOM     11  C4  IXD d 379      19.185  20.559  24.082  0.00  0.00    -0.005 C 
ATOM     12  O2  IXD d 379      16.842  19.020  24.787  0.00  0.00    -0.244 OA
ATOM     13  C3  IXD d 379      18.556  19.584  23.139  0.00  0.00     0.069 C 
ATOM     14  O3  IXD d 379      19.244  18.355  23.242  0.00  0.00    -0.393 OA
ATOM     15  C6  IXD d 379      19.468  22.911  23.938  0.00  0.00     0.203 C 
ATOM     16  H   IXD d 379      18.340  22.538  24.749  0.00  0.00     0.100 H 
ATOM     17  H   IXD d 379      15.428  21.176  23.462  0.00  0.00     0.133 H 
ATOM     18  H   IXD d 379      16.612  18.814  22.785  0.00  0.00     0.097 H 
ATOM     19  H   IXD d 379      19.116  20.161  25.073  0.00  0.00     0.041 H 
ATOM     20  H   IXD d 379      20.197  20.692  23.762  0.00  0.00     0.041 H 
ATOM     21  H   IXD d 379      18.630  19.887  22.115  0.00  0.00     0.087 H 
ATOM     22  H   IXD d 379      19.204  18.038  24.158  0.00  0.00     0.210 HD
ATOM     23  C4  SGN d 378      16.437  20.581  20.950  0.00  0.00     0.095 C 
ATOM     24  C6  SGN d 378      16.423  23.011  20.670  0.00  0.00     0.067 C 
ATOM     25  S1  SGN d 378      13.569  17.347  18.338  0.00  0.00     0.156 S 
ATOM     26  S2  SGN d 378      16.741  24.394  18.595  0.00  0.00     0.251 S 
ATOM     27  O4S SGN d 378      17.769  24.465  17.576  0.00  0.00    -0.572 OA
ATOM     28  C3  SGN d 378      15.609  19.304  20.900  0.00  0.00     0.083 C 
ATOM     29  C5  SGN d 378      15.535  21.795  20.801  0.00  0.00     0.091 C 
ATOM     30  C2  SGN d 378      14.728  19.317  19.663  0.00  0.00     0.081 C 
ATOM     31  C1  SGN d 378      13.902  20.593  19.593  0.00  0.00     0.147 C 
ATOM     32  O3  SGN d 378      16.437  18.169  20.825  0.00  0.00    -0.391 OA
ATOM     33  O3S SGN d 378      14.823  16.753  17.889  0.00  0.00    -0.296 OA
ATOM     34  O4  SGN d 378      17.126  20.706  22.179  0.00  0.00    -0.348 OA
ATOM     35  N   SGN d 378      13.862  18.155  19.686  0.00  0.00    -0.210 NA
ATOM     36  O6  SGN d 378      16.857  23.040  19.331  0.00  0.00    -0.254 OA
ATOM     37  O1  SGN d 378      12.999  20.627  20.673  0.00  0.00    -0.369 OA
ATOM     38  O2S SGN d 378      13.086  18.336  17.375  0.00  0.00    -0.296 OA
ATOM     39  O6S SGN d 378      16.876  25.427  19.613  0.00  0.00    -0.572 OA
ATOM     40  O5S SGN d 378      15.409  24.406  18.001  0.00  0.00    -0.572 OA
ATOM     41  O5  SGN d 378      14.741  21.726  19.635  0.00  0.00    -0.350 OA
ATOM     42  O1S SGN d 378      12.587  16.320  18.686  0.00  0.00    -0.296 OA
ATOM     43  H   SGN d 378      17.144  20.528  20.148  0.00  0.00     0.091 H 
ATOM     44  H   SGN d 378      17.262  22.930  21.329  0.00  0.00     0.080 H 
ATOM     45  H   SGN d 378      15.898  23.906  20.928  0.00  0.00     0.080 H 
ATOM     46  H   SGN d 378      15.019  19.262  21.792  0.00  0.00     0.089 H 
ATOM     47  H   SGN d 378      14.888  21.840  21.652  0.00  0.00     0.090 H 
ATOM     48  H   SGN d 378      15.351  19.285  18.794  0.00  0.00     0.076 H 
ATOM     49  H   SGN d 378      13.358  20.606  18.672  0.00  0.00     0.131 H 
ATOM     50  H   SGN d 378      16.969  18.211  20.015  0.00  0.00     0.210 HD
ATOM     51  H   SGN d 378      15.124  16.102  18.541  0.00  0.00     0.231 HD
ATOM     52  H   SGN d 378      14.276  17.493  20.342  0.00  0.00     0.140 HD
ATOM     53  H   SGN d 378      13.493  20.615  21.507  0.00  0.00     0.212 HD
ATOM     54  H   SGN d 378      12.253  18.717  17.693  0.00  0.00     0.231 HD
ATOM     55  H   SGN d 378      11.766  16.744  18.980  0.00  0.00     0.231 HD
ENDROOT
TORSDOF 16
ENDMDL
MODEL 16
REMARK VINA RESULT:      -7.5      2.546      4.510
REMARK  0 active torsions:
REMARK  status: ('A' for Active; 'I' for Inactive)
REMARK       I    between atoms: C4_5  and  O4_20 
REMARK       I    between atoms: C6_6  and  C5_15 
REMARK       I    between atoms: C6_6  and  O6_25 
REMARK       I    between atoms: S1_7  and  N_21 
REMARK       I    between atoms: S1_7  and  O1S_34 
REMARK       I    between atoms: S1_7  and  O2S_27 
REMARK       I    between atoms: S1_7  and  O3S_19 
REMARK       I    between atoms: C5_8  and  C6_35 
REMARK       I    between atoms: S2_9  and  O6_25 
REMARK       I    between atoms: C1_10  and  O4_20 
REMARK       I    between atoms: C3_14  and  O3_18 
REMARK       I    between atoms: C2_16  and  N_21 
REMARK       I    between atoms: C1_17  and  O1_26 
REMARK       I    between atoms: C2_22  and  O2_29 
REMARK       I    between atoms: S_23  and  O2_29 
REMARK       I    between atoms: C3_30  and  O3_31 
ROOT
ATOM      1  O3S IXD d 379      14.709  21.202  19.881  0.00  0.00    -0.572 OA
ATOM      2  O2S IXD d 379      13.131  22.382  18.471  0.00  0.00    -0.572 OA
ATOM      3  O5  IXD d 379      17.440  23.598  18.111  0.00  0.00    -0.343 OA
ATOM      4  O62 IXD d 379      19.879  25.083  17.578  0.00  0.00    -0.646 OA
ATOM      5  C5  IXD d 379      17.729  25.004  18.342  0.00  0.00     0.127 C 
ATOM      6  C1  IXD d 379      17.174  22.802  19.273  0.00  0.00     0.161 C 
ATOM      7  O1S IXD d 379      13.064  22.631  20.872  0.00  0.00    -0.572 OA
ATOM      8  O61 IXD d 379      18.633  26.908  17.375  0.00  0.00    -0.646 OA
ATOM      9  C2  IXD d 379      16.219  23.547  20.203  0.00  0.00     0.132 C 
ATOM     10  S   IXD d 379      13.956  22.468  19.701  0.00  0.00     0.252 S 
ATOM     11  C4  IXD d 379      16.990  25.655  19.230  0.00  0.00    -0.005 C 
ATOM     12  O2  IXD d 379      14.940  23.648  19.584  0.00  0.00    -0.244 OA
ATOM     13  C3  IXD d 379      16.806  24.921  20.519  0.00  0.00     0.069 C 
ATOM     14  O3  IXD d 379      16.006  25.713  21.373  0.00  0.00    -0.393 OA
ATOM     15  C6  IXD d 379      18.814  25.707  17.711  0.00  0.00     0.203 C 
ATOM     16  H   IXD d 379      17.769  24.812  17.291  0.00  0.00     0.100 H 
ATOM     17  H   IXD d 379      17.071  21.814  18.877  0.00  0.00     0.133 H 
ATOM     18  H   IXD d 379      16.097  23.015  21.123  0.00  0.00     0.097 H 
ATOM     19  H   IXD d 379      16.026  25.830  18.801  0.00  0.00     0.041 H 
ATOM     20  H   IXD d 379      17.509  26.561  19.460  0.00  0.00     0.041 H 
ATOM     21  H   IXD d 379      17.726  24.751  21.038  0.00  0.00     0.087 H 
ATOM     22  H   IXD d 379      15.155  25.894  20.943  0.00  0.00     0.210 HD
ATOM     23  C4  SGN d 378      18.551  22.312  21.167  0.00  0.00     0.095 C 
ATOM     24  C6  SGN d 378      20.460  22.041  19.661  0.00  0.00     0.067 C 
ATOM     25  S1  SGN d 378      17.427  19.227  25.005  0.00  0.00     0.156 S 
ATOM     26  S2  SGN d 378      22.905  21.797  20.191  0.00  0.00     0.251 S 
ATOM     27  O4S SGN d 378      23.855  22.575  20.960  0.00  0.00    -0.572 OA
ATOM     28  C3  SGN d 378      17.508  21.599  22.016  0.00  0.00     0.083 C 
ATOM     29  C5  SGN d 378      19.326  21.303  20.335  0.00  0.00     0.091 C 
ATOM     30  C2  SGN d 378      18.169  20.477  22.799  0.00  0.00     0.081 C 
ATOM     31  C1  SGN d 378      18.951  19.553  21.874  0.00  0.00     0.147 C 
ATOM     32  O3  SGN d 378      16.925  22.481  22.944  0.00  0.00    -0.391 OA
ATOM     33  O3S SGN d 378      17.568  20.401  25.858  0.00  0.00    -0.296 OA
ATOM     34  O4  SGN d 378      17.953  23.233  20.276  0.00  0.00    -0.348 OA
ATOM     35  N   SGN d 378      17.152  19.733  23.513  0.00  0.00    -0.210 NA
ATOM     36  O6  SGN d 378      21.473  22.176  20.629  0.00  0.00    -0.254 OA
ATOM     37  O1  SGN d 378      18.061  18.901  21.002  0.00  0.00    -0.369 OA
ATOM     38  O2S SGN d 378      18.678  18.472  24.946  0.00  0.00    -0.296 OA
ATOM     39  O6S SGN d 378      22.979  22.060  18.759  0.00  0.00    -0.572 OA
ATOM     40  O5S SGN d 378      23.039  20.372  20.475  0.00  0.00    -0.572 OA
ATOM     41  O5  SGN d 378      19.899  20.287  21.132  0.00  0.00    -0.350 OA
ATOM     42  O1S SGN d 378      16.261  18.429  25.384  0.00  0.00    -0.296 OA
ATOM     43  H   SGN d 378      19.199  22.833  21.838  0.00  0.00     0.091 H 
ATOM     44  H   SGN d 378      20.131  23.004  19.332  0.00  0.00     0.080 H 
ATOM     45  H   SGN d 378      20.812  21.512  18.801  0.00  0.00     0.080 H 
ATOM     46  H   SGN d 378      16.755  21.217  21.359  0.00  0.00     0.089 H 
ATOM     47  H   SGN d 378      18.651  20.850  19.640  0.00  0.00     0.090 H 
ATOM     48  H   SGN d 378      18.862  20.901  23.495  0.00  0.00     0.076 H 
ATOM     49  H   SGN d 378      19.469  18.827  22.465  0.00  0.00     0.131 H 
ATOM     50  H   SGN d 378      17.610  22.824  23.539  0.00  0.00     0.210 HD
ATOM     51  H   SGN d 378      16.728  20.886  25.882  0.00  0.00     0.231 HD
ATOM     52  H   SGN d 378      16.325  20.329  23.553  0.00  0.00     0.140 HD
ATOM     53  H   SGN d 378      17.591  19.561  20.467  0.00  0.00     0.212 HD
ATOM     54  H   SGN d 378      18.562  17.697  24.375  0.00  0.00     0.231 HD
ATOM     55  H   SGN d 378      16.195  17.657  24.800  0.00  0.00     0.231 HD
ENDROOT
TORSDOF 16
ENDMDL
MODEL 17
REMARK VINA RESULT:      -7.5      2.985      4.964
REMARK  0 active torsions:
REMARK  status: ('A' for Active; 'I' for Inactive)
REMARK       I    between atoms: C4_5  and  O4_20 
REMARK       I    between atoms: C6_6  and  C5_15 
REMARK       I    between atoms: C6_6  and  O6_25 
REMARK       I    between atoms: S1_7  and  N_21 
REMARK       I    between atoms: S1_7  and  O1S_34 
REMARK       I    between atoms: S1_7  and  O2S_27 
REMARK       I    between atoms: S1_7  and  O3S_19 
REMARK       I    between atoms: C5_8  and  C6_35 
REMARK       I    between atoms: S2_9  and  O6_25 
REMARK       I    between atoms: C1_10  and  O4_20 
REMARK       I    between atoms: C3_14  and  O3_18 
REMARK       I    between atoms: C2_16  and  N_21 
REMARK       I    between atoms: C1_17  and  O1_26 
REMARK       I    between atoms: C2_22  and  O2_29 
REMARK       I    between atoms: S_23  and  O2_29 
REMARK       I    between atoms: C3_30  and  O3_31 
ROOT
ATOM      1  O3S IXD d 379      16.206  16.991  19.316  0.00  0.00    -0.572 OA
ATOM      2  O2S IXD d 379      14.637  15.645  18.052  0.00  0.00    -0.572 OA
ATOM      3  O5  IXD d 379      14.136  20.101  17.777  0.00  0.00    -0.343 OA
ATOM      4  O62 IXD d 379      13.037  22.760  17.376  0.00  0.00    -0.646 OA
ATOM      5  C5  IXD d 379      12.831  20.622  18.149  0.00  0.00     0.127 C 
ATOM      6  C1  IXD d 379      14.991  19.695  18.853  0.00  0.00     0.161 C 
ATOM      7  O1S IXD d 379      14.629  15.603  20.466  0.00  0.00    -0.572 OA
ATOM      8  O61 IXD d 379      11.016  21.842  17.375  0.00  0.00    -0.646 OA
ATOM      9  C2  IXD d 379      14.196  18.873  19.864  0.00  0.00     0.132 C 
ATOM     10  S   IXD d 379      14.819  16.464  19.275  0.00  0.00     0.252 S 
ATOM     11  C4  IXD d 379      12.159  19.997  19.106  0.00  0.00    -0.005 C 
ATOM     12  O2  IXD d 379      13.817  17.634  19.272  0.00  0.00    -0.244 OA
ATOM     13  C3  IXD d 379      12.981  19.680  20.315  0.00  0.00     0.069 C 
ATOM     14  O3  IXD d 379      12.157  19.019  21.253  0.00  0.00    -0.393 OA
ATOM     15  C6  IXD d 379      12.259  21.815  17.584  0.00  0.00     0.203 C 
ATOM     16  H   IXD d 379      12.917  20.637  17.083  0.00  0.00     0.100 H 
ATOM     17  H   IXD d 379      15.902  19.430  18.358  0.00  0.00     0.133 H 
ATOM     18  H   IXD d 379      14.791  18.655  20.726  0.00  0.00     0.097 H 
ATOM     19  H   IXD d 379      11.780  19.079  18.707  0.00  0.00     0.041 H 
ATOM     20  H   IXD d 379      11.382  20.659  19.424  0.00  0.00     0.041 H 
ATOM     21  H   IXD d 379      13.356  20.555  20.804  0.00  0.00     0.087 H 
ATOM     22  H   IXD d 379      11.792  18.215  20.853  0.00  0.00     0.210 HD
ATOM     23  C4  SGN d 378      15.900  20.954  20.673  0.00  0.00     0.095 C 
ATOM     24  C6  SGN d 378      16.332  22.802  19.129  0.00  0.00     0.067 C 
ATOM     25  S1  SGN d 378      19.130  19.295  24.183  0.00  0.00     0.156 S 
ATOM     26  S2  SGN d 378      17.039  25.167  19.607  0.00  0.00     0.251 S 
ATOM     27  O4S SGN d 378      16.515  26.228  20.444  0.00  0.00    -0.572 OA
ATOM     28  C3  SGN d 378      16.510  19.799  21.455  0.00  0.00     0.083 C 
ATOM     29  C5  SGN d 378      16.934  21.555  19.735  0.00  0.00     0.091 C 
ATOM     30  C2  SGN d 378      17.802  20.255  22.111  0.00  0.00     0.081 C 
ATOM     31  C1  SGN d 378      18.744  20.877  21.089  0.00  0.00     0.147 C 
ATOM     32  O3  SGN d 378      15.643  19.366  22.474  0.00  0.00    -0.391 OA
ATOM     33  O3S SGN d 378      18.091  19.625  25.152  0.00  0.00    -0.296 OA
ATOM     34  O4  SGN d 378      14.804  20.528  19.888  0.00  0.00    -0.348 OA
ATOM     35  N   SGN d 378      18.433  19.121  22.754  0.00  0.00    -0.210 NA
ATOM     36  O6  SGN d 378      16.470  23.815  20.096  0.00  0.00    -0.254 OA
ATOM     37  O1  SGN d 378      19.143  19.896  20.162  0.00  0.00    -0.369 OA
ATOM     38  O2S SGN d 378      20.075  20.401  24.035  0.00  0.00    -0.296 OA
ATOM     39  O6S SGN d 378      16.645  25.295  18.210  0.00  0.00    -0.572 OA
ATOM     40  O5S SGN d 378      18.487  25.056  19.741  0.00  0.00    -0.572 OA
ATOM     41  O5  SGN d 378      18.108  21.941  20.417  0.00  0.00    -0.350 OA
ATOM     42  O1S SGN d 378      19.755  18.008  24.489  0.00  0.00    -0.296 OA
ATOM     43  H   SGN d 378      15.567  21.676  21.388  0.00  0.00     0.091 H 
ATOM     44  H   SGN d 378      15.298  22.643  18.904  0.00  0.00     0.080 H 
ATOM     45  H   SGN d 378      16.822  23.067  18.216  0.00  0.00     0.080 H 
ATOM     46  H   SGN d 378      16.690  18.998  20.768  0.00  0.00     0.089 H 
ATOM     47  H   SGN d 378      17.192  20.818  19.003  0.00  0.00     0.090 H 
ATOM     48  H   SGN d 378      17.575  21.004  22.841  0.00  0.00     0.076 H 
ATOM     49  H   SGN d 378      19.604  21.260  21.596  0.00  0.00     0.131 H 
ATOM     50  H   SGN d 378      15.484  20.095  23.094  0.00  0.00     0.210 HD
ATOM     51  H   SGN d 378      17.476  18.879  25.233  0.00  0.00     0.231 HD
ATOM     52  H   SGN d 378      17.714  18.407  22.863  0.00  0.00     0.140 HD
ATOM     53  H   SGN d 378      18.362  19.549  19.703  0.00  0.00     0.212 HD
ATOM     54  H   SGN d 378      20.756  20.160  23.388  0.00  0.00     0.231 HD
ATOM     55  H   SGN d 378      20.440  17.817  23.830  0.00  0.00     0.231 HD
ENDROOT
TORSDOF 16
ENDMDL
MODEL 18
REMARK VINA RESULT:      -7.5      3.134      5.944
REMARK  0 active torsions:
REMARK  status: ('A' for Active; 'I' for Inactive)
REMARK       I    between atoms: C4_5  and  O4_20 
REMARK       I    between atoms: C6_6  and  C5_15 
REMARK       I    between atoms: C6_6  and  O6_25 
REMARK       I    between atoms: S1_7  and  N_21 
REMARK       I    between atoms: S1_7  and  O1S_34 
REMARK       I    between atoms: S1_7  and  O2S_27 
REMARK       I    between atoms: S1_7  and  O3S_19 
REMARK       I    between atoms: C5_8  and  C6_35 
REMARK       I    between atoms: S2_9  and  O6_25 
REMARK       I    between atoms: C1_10  and  O4_20 
REMARK       I    between atoms: C3_14  and  O3_18 
REMARK       I    between atoms: C2_16  and  N_21 
REMARK       I    between atoms: C1_17  and  O1_26 
REMARK       I    between atoms: C2_22  and  O2_29 
REMARK       I    between atoms: S_23  and  O2_29 
REMARK       I    between atoms: C3_30  and  O3_31 
ROOT
ATOM      1  O3S IXD d 379      22.395  23.052  22.459  0.00  0.00    -0.572 OA
ATOM      2  O2S IXD d 379      24.463  22.273  21.464  0.00  0.00    -0.572 OA
ATOM      3  O5  IXD d 379      20.673  21.228  19.292  0.00  0.00    -0.343 OA
ATOM      4  O62 IXD d 379      18.711  19.955  17.567  0.00  0.00    -0.646 OA
ATOM      5  C5  IXD d 379      20.445  19.813  19.046  0.00  0.00     0.127 C 
ATOM      6  C1  IXD d 379      20.447  21.687  20.630  0.00  0.00     0.161 C 
ATOM      7  O1S IXD d 379      23.711  21.399  23.585  0.00  0.00    -0.572 OA
ATOM      8  O61 IXD d 379      20.105  18.238  17.378  0.00  0.00    -0.646 OA
ATOM      9  C2  IXD d 379      21.079  20.717  21.624  0.00  0.00     0.132 C 
ATOM     10  S   IXD d 379      23.272  21.872  22.252  0.00  0.00     0.252 S 
ATOM     11  C4  IXD d 379      20.883  18.946  19.947  0.00  0.00    -0.005 C 
ATOM     12  O2  IXD d 379      22.497  20.772  21.501  0.00  0.00    -0.244 OA
ATOM     13  C3  IXD d 379      20.542  19.312  21.356  0.00  0.00     0.069 C 
ATOM     14  O3  IXD d 379      21.061  18.317  22.214  0.00  0.00    -0.393 OA
ATOM     15  C6  IXD d 379      19.714  19.309  17.914  0.00  0.00     0.203 C 
ATOM     16  H   IXD d 379      20.757  20.276  18.133  0.00  0.00     0.100 H 
ATOM     17  H   IXD d 379      20.594  22.745  20.556  0.00  0.00     0.133 H 
ATOM     18  H   IXD d 379      20.827  20.986  22.628  0.00  0.00     0.097 H 
ATOM     19  H   IXD d 379      21.948  18.882  19.864  0.00  0.00     0.041 H 
ATOM     20  H   IXD d 379      20.398  18.015  19.743  0.00  0.00     0.041 H 
ATOM     21  H   IXD d 379      19.488  19.346  21.535  0.00  0.00     0.087 H 
ATOM     22  H   IXD d 379      22.021  18.249  22.088  0.00  0.00     0.210 HD
ATOM     23  C4  SGN d 378      18.460  21.672  21.962  0.00  0.00     0.095 C 
ATOM     24  C6  SGN d 378      17.178  22.345  19.990  0.00  0.00     0.067 C 
ATOM     25  S1  SGN d 378      17.902  23.627  26.585  0.00  0.00     0.156 S 
ATOM     26  S2  SGN d 378      14.690  22.460  19.649  0.00  0.00     0.251 S 
ATOM     27  O4S SGN d 378      13.604  21.513  19.807  0.00  0.00    -0.572 OA
ATOM     28  C3  SGN d 378      19.075  22.128  23.278  0.00  0.00     0.083 C 
ATOM     29  C5  SGN d 378      17.937  22.870  21.187  0.00  0.00     0.091 C 
ATOM     30  C2  SGN d 378      18.087  23.008  24.023  0.00  0.00     0.081 C 
ATOM     31  C1  SGN d 378      17.598  24.149  23.141  0.00  0.00     0.147 C 
ATOM     32  O3  SGN d 378      19.373  21.027  24.102  0.00  0.00    -0.391 OA
ATOM     33  O3S SGN d 378      17.577  22.270  27.011  0.00  0.00    -0.296 OA
ATOM     34  O4  SGN d 378      19.408  21.014  21.146  0.00  0.00    -0.348 OA
ATOM     35  N   SGN d 378      18.723  23.530  25.216  0.00  0.00    -0.210 NA
ATOM     36  O6  SGN d 378      15.908  21.967  20.463  0.00  0.00    -0.254 OA
ATOM     37  O1  SGN d 378      18.675  25.001  22.837  0.00  0.00    -0.369 OA
ATOM     38  O2S SGN d 378      16.689  24.381  26.272  0.00  0.00    -0.296 OA
ATOM     39  O6S SGN d 378      15.142  22.583  18.269  0.00  0.00    -0.572 OA
ATOM     40  O5S SGN d 378      14.341  23.760  20.211  0.00  0.00    -0.572 OA
ATOM     41  O5  SGN d 378      17.036  23.645  21.950  0.00  0.00    -0.350 OA
ATOM     42  O1S SGN d 378      18.789  24.288  27.543  0.00  0.00    -0.296 OA
ATOM     43  H   SGN d 378      17.666  20.997  22.203  0.00  0.00     0.091 H 
ATOM     44  H   SGN d 378      17.684  21.500  19.572  0.00  0.00     0.080 H 
ATOM     45  H   SGN d 378      17.102  23.085  19.221  0.00  0.00     0.080 H 
ATOM     46  H   SGN d 378      19.973  22.663  23.051  0.00  0.00     0.089 H 
ATOM     47  H   SGN d 378      18.769  23.485  20.916  0.00  0.00     0.090 H 
ATOM     48  H   SGN d 378      17.235  22.421  24.296  0.00  0.00     0.076 H 
ATOM     49  H   SGN d 378      16.845  24.698  23.667  0.00  0.00     0.131 H 
ATOM     50  H   SGN d 378      18.557  20.545  24.306  0.00  0.00     0.210 HD
ATOM     51  H   SGN d 378      18.395  21.790  27.212  0.00  0.00     0.231 HD
ATOM     52  H   SGN d 378      19.533  22.938  25.400  0.00  0.00     0.140 HD
ATOM     53  H   SGN d 378      19.357  24.503  22.361  0.00  0.00     0.212 HD
ATOM     54  H   SGN d 378      16.929  25.278  25.992  0.00  0.00     0.231 HD
ATOM     55  H   SGN d 378      18.986  25.186  27.234  0.00  0.00     0.231 HD
ENDROOT
TORSDOF 16
ENDMDL
MODEL 19
REMARK VINA RESULT:      -7.2      3.097      7.308
REMARK  0 active torsions:
REMARK  status: ('A' for Active; 'I' for Inactive)
REMARK       I    between atoms: C4_5  and  O4_20 
REMARK       I    between atoms: C6_6  and  C5_15 
REMARK       I    between atoms: C6_6  and  O6_25 
REMARK       I    between atoms: S1_7  and  N_21 
REMARK       I    between atoms: S1_7  and  O1S_34 
REMARK       I    between atoms: S1_7  and  O2S_27 
REMARK       I    between atoms: S1_7  and  O3S_19 
REMARK       I    between atoms: C5_8  and  C6_35 
REMARK       I    between atoms: S2_9  and  O6_25 
REMARK       I    between atoms: C1_10  and  O4_20 
REMARK       I    between atoms: C3_14  and  O3_18 
REMARK       I    between atoms: C2_16  and  N_21 
REMARK       I    between atoms: C1_17  and  O1_26 
REMARK       I    between atoms: C2_22  and  O2_29 
REMARK       I    between atoms: S_23  and  O2_29 
REMARK       I    between atoms: C3_30  and  O3_31 
ROOT
ATOM      1  O3S IXD d 379      21.679  21.776  20.027  0.00  0.00    -0.572 OA
ATOM      2  O2S IXD d 379      23.601  20.870  21.192  0.00  0.00    -0.572 OA
ATOM      3  O5  IXD d 379      19.590  19.205  22.341  0.00  0.00    -0.343 OA
ATOM      4  O62 IXD d 379      17.414  17.926  23.779  0.00  0.00    -0.646 OA
ATOM      5  C5  IXD d 379      19.238  19.299  23.748  0.00  0.00     0.127 C 
ATOM      6  C1  IXD d 379      19.501  20.415  21.579  0.00  0.00     0.161 C 
ATOM      7  O1S IXD d 379      22.946  23.173  21.503  0.00  0.00    -0.572 OA
ATOM      8  O61 IXD d 379      18.655  18.053  25.615  0.00  0.00    -0.646 OA
ATOM      9  C2  IXD d 379      20.130  21.567  22.359  0.00  0.00     0.132 C 
ATOM     10  S   IXD d 379      22.445  21.793  21.298  0.00  0.00     0.252 S 
ATOM     11  C4  IXD d 379      19.675  20.348  24.431  0.00  0.00    -0.005 C 
ATOM     12  O2  IXD d 379      21.535  21.355  22.461  0.00  0.00    -0.244 OA
ATOM     13  C3  IXD d 379      19.469  21.654  23.733  0.00  0.00     0.069 C 
ATOM     14  O3  IXD d 379      19.973  22.685  24.558  0.00  0.00    -0.393 OA
ATOM     15  C6  IXD d 379      18.388  18.353  24.421  0.00  0.00     0.203 C 
ATOM     16  H   IXD d 379      19.515  18.290  23.529  0.00  0.00     0.100 H 
ATOM     17  H   IXD d 379      19.723  20.096  20.582  0.00  0.00     0.133 H 
ATOM     18  H   IXD d 379      19.975  22.496  21.853  0.00  0.00     0.097 H 
ATOM     19  H   IXD d 379      20.722  20.222  24.609  0.00  0.00     0.041 H 
ATOM     20  H   IXD d 379      19.106  20.387  25.336  0.00  0.00     0.041 H 
ATOM     21  H   IXD d 379      18.437  21.879  23.565  0.00  0.00     0.087 H 
ATOM     22  H   IXD d 379      20.913  22.524  24.739  0.00  0.00     0.210 HD
ATOM     23  C4  SGN d 378      17.624  21.825  21.119  0.00  0.00     0.095 C 
ATOM     24  C6  SGN d 378      16.253  19.826  20.784  0.00  0.00     0.067 C 
ATOM     25  S1  SGN d 378      17.564  25.909  18.148  0.00  0.00     0.156 S 
ATOM     26  S2  SGN d 378      13.762  19.608  20.521  0.00  0.00     0.251 S 
ATOM     27  O4S SGN d 378      12.622  20.037  21.307  0.00  0.00    -0.572 OA
ATOM     28  C3  SGN d 378      18.368  22.967  20.441  0.00  0.00     0.083 C 
ATOM     29  C5  SGN d 378      17.137  20.829  20.078  0.00  0.00     0.091 C 
ATOM     30  C2  SGN d 378      17.509  23.547  19.332  0.00  0.00     0.081 C 
ATOM     31  C1  SGN d 378      17.044  22.459  18.374  0.00  0.00     0.147 C 
ATOM     32  O3  SGN d 378      18.643  24.001  21.355  0.00  0.00    -0.391 OA
ATOM     33  O3S SGN d 378      17.169  26.648  19.342  0.00  0.00    -0.296 OA
ATOM     34  O4  SGN d 378      18.456  21.127  22.024  0.00  0.00    -0.348 OA
ATOM     35  N   SGN d 378      18.270  24.554  18.620  0.00  0.00    -0.210 NA
ATOM     36  O6  SGN d 378      14.997  20.443  20.931  0.00  0.00    -0.254 OA
ATOM     37  O1  SGN d 378      18.157  21.910  17.712  0.00  0.00    -0.369 OA
ATOM     38  O2S SGN d 378      16.392  25.502  17.375  0.00  0.00    -0.296 OA
ATOM     39  O6S SGN d 378      14.118  18.213  20.747  0.00  0.00    -0.572 OA
ATOM     40  O5S SGN d 378      13.557  19.879  19.103  0.00  0.00    -0.572 OA
ATOM     41  O5  SGN d 378      16.357  21.446  19.076  0.00  0.00    -0.350 OA
ATOM     42  O1S SGN d 378      18.567  26.642  17.376  0.00  0.00    -0.296 OA
ATOM     43  H   SGN d 378      16.801  22.257  21.649  0.00  0.00     0.091 H 
ATOM     44  H   SGN d 378      16.661  19.583  21.743  0.00  0.00     0.080 H 
ATOM     45  H   SGN d 378      16.177  18.915  20.228  0.00  0.00     0.080 H 
ATOM     46  H   SGN d 378      19.285  22.575  20.053  0.00  0.00     0.089 H 
ATOM     47  H   SGN d 378      17.991  20.380  19.617  0.00  0.00     0.090 H 
ATOM     48  H   SGN d 378      16.638  23.994  19.764  0.00  0.00     0.076 H 
ATOM     49  H   SGN d 378      16.377  22.888  17.657  0.00  0.00     0.131 H 
ATOM     50  H   SGN d 378      17.809  24.354  21.704  0.00  0.00     0.210 HD
ATOM     51  H   SGN d 378      17.961  26.907  19.838  0.00  0.00     0.231 HD
ATOM     52  H   SGN d 378      19.044  24.822  19.227  0.00  0.00     0.140 HD
ATOM     53  H   SGN d 378      18.762  21.522  18.363  0.00  0.00     0.212 HD
ATOM     54  H   SGN d 378      16.678  25.013  16.588  0.00  0.00     0.231 HD
ATOM     55  H   SGN d 378      18.809  26.127  16.590  0.00  0.00     0.231 HD
ENDROOT
TORSDOF 16
ENDMDL
MODEL 20
REMARK VINA RESULT:      -6.9      3.233      4.450
REMARK  0 active torsions:
REMARK  status: ('A' for Active; 'I' for Inactive)
REMARK       I    between atoms: C4_5  and  O4_20 
REMARK       I    between atoms: C6_6  and  C5_15 
REMARK       I    between atoms: C6_6  and  O6_25 
REMARK       I    between atoms: S1_7  and  N_21 
REMARK       I    between atoms: S1_7  and  O1S_34 
REMARK       I    between atoms: S1_7  and  O2S_27 
REMARK       I    between atoms: S1_7  and  O3S_19 
REMARK       I    between atoms: C5_8  and  C6_35 
REMARK       I    between atoms: S2_9  and  O6_25 
REMARK       I    between atoms: C1_10  and  O4_20 
REMARK       I    between atoms: C3_14  and  O3_18 
REMARK       I    between atoms: C2_16  and  N_21 
REMARK       I    between atoms: C1_17  and  O1_26 
REMARK       I    between atoms: C2_22  and  O2_29 
REMARK       I    between atoms: S_23  and  O2_29 
REMARK       I    between atoms: C3_30  and  O3_31 
ROOT
ATOM      1  O3S IXD d 379      21.129  19.926  19.492  0.00  0.00    -0.572 OA
ATOM      2  O2S IXD d 379      19.959  19.786  17.375  0.00  0.00    -0.572 OA
ATOM      3  O5  IXD d 379      17.943  22.135  20.631  0.00  0.00    -0.343 OA
ATOM      4  O62 IXD d 379      15.965  23.488  22.272  0.00  0.00    -0.646 OA
ATOM      5  C5  IXD d 379      16.599  21.710  20.988  0.00  0.00     0.127 C 
ATOM      6  C1  IXD d 379      19.019  21.317  21.109  0.00  0.00     0.161 C 
ATOM      7  O1S IXD d 379      20.282  17.818  18.735  0.00  0.00    -0.572 OA
ATOM      8  O61 IXD d 379      14.394  22.414  21.130  0.00  0.00    -0.646 OA
ATOM      9  C2  IXD d 379      18.690  19.844  20.880  0.00  0.00     0.132 C 
ATOM     10  S   IXD d 379      20.011  19.274  18.766  0.00  0.00     0.252 S 
ATOM     11  C4  IXD d 379      16.312  20.419  20.909  0.00  0.00    -0.005 C 
ATOM     12  O2  IXD d 379      18.680  19.574  19.481  0.00  0.00    -0.244 OA
ATOM     13  C3  IXD d 379      17.343  19.530  21.527  0.00  0.00     0.069 C 
ATOM     14  O3  IXD d 379      16.924  18.189  21.378  0.00  0.00    -0.393 OA
ATOM     15  C6  IXD d 379      15.588  22.604  21.485  0.00  0.00     0.203 C 
ATOM     16  H   IXD d 379      16.535  22.603  20.402  0.00  0.00     0.100 H 
ATOM     17  H   IXD d 379      19.892  21.853  20.801  0.00  0.00     0.133 H 
ATOM     18  H   IXD d 379      19.432  19.217  21.329  0.00  0.00     0.097 H 
ATOM     19  H   IXD d 379      16.218  20.157  19.876  0.00  0.00     0.041 H 
ATOM     20  H   IXD d 379      15.405  20.269  21.456  0.00  0.00     0.041 H 
ATOM     21  H   IXD d 379      17.460  19.695  22.578  0.00  0.00     0.087 H 
ATOM     22  H   IXD d 379      16.804  17.990  20.436  0.00  0.00     0.210 HD
ATOM     23  C4  SGN d 378      19.677  20.768  23.342  0.00  0.00     0.095 C 
ATOM     24  C6  SGN d 378      19.250  23.085  23.998  0.00  0.00     0.067 C 
ATOM     25  S1  SGN d 378      23.709  18.061  24.727  0.00  0.00     0.156 S 
ATOM     26  S2  SGN d 378      19.168  24.121  26.287  0.00  0.00     0.251 S 
ATOM     27  O4S SGN d 378      18.430  23.833  27.500  0.00  0.00    -0.572 OA
ATOM     28  C3  SGN d 378      20.740  19.731  23.008  0.00  0.00     0.083 C 
ATOM     29  C5  SGN d 378      20.313  22.140  23.487  0.00  0.00     0.091 C 
ATOM     30  C2  SGN d 378      21.875  19.823  24.013  0.00  0.00     0.081 C 
ATOM     31  C1  SGN d 378      22.407  21.246  24.108  0.00  0.00     0.147 C 
ATOM     32  O3  SGN d 378      20.213  18.428  23.077  0.00  0.00    -0.391 OA
ATOM     33  O3S SGN d 378      22.757  17.138  25.333  0.00  0.00    -0.296 OA
ATOM     34  O4  SGN d 378      18.698  20.853  22.325  0.00  0.00    -0.348 OA
ATOM     35  N   SGN d 378      22.932  18.914  23.620  0.00  0.00    -0.210 NA
ATOM     36  O6  SGN d 378      19.162  22.866  25.385  0.00  0.00    -0.254 OA
ATOM     37  O1  SGN d 378      22.990  21.611  22.880  0.00  0.00    -0.369 OA
ATOM     38  O2S SGN d 378      24.196  19.028  25.709  0.00  0.00    -0.296 OA
ATOM     39  O6S SGN d 378      18.575  25.195  25.500  0.00  0.00    -0.572 OA
ATOM     40  O5S SGN d 378      20.572  24.391  26.576  0.00  0.00    -0.572 OA
ATOM     41  O5  SGN d 378      21.366  22.141  24.429  0.00  0.00    -0.350 OA
ATOM     42  O1S SGN d 378      24.768  17.343  24.017  0.00  0.00    -0.296 OA
ATOM     43  H   SGN d 378      19.216  20.461  24.257  0.00  0.00     0.091 H 
ATOM     44  H   SGN d 378      18.311  22.875  23.529  0.00  0.00     0.080 H 
ATOM     45  H   SGN d 378      19.496  24.103  23.780  0.00  0.00     0.080 H 
ATOM     46  H   SGN d 378      21.089  19.927  22.016  0.00  0.00     0.089 H 
ATOM     47  H   SGN d 378      20.707  22.431  22.536  0.00  0.00     0.090 H 
ATOM     48  H   SGN d 378      21.505  19.549  24.980  0.00  0.00     0.076 H 
ATOM     49  H   SGN d 378      23.145  21.291  24.882  0.00  0.00     0.131 H 
ATOM     50  H   SGN d 378      19.899  18.254  23.977  0.00  0.00     0.210 HD
ATOM     51  H   SGN d 378      22.448  16.507  24.665  0.00  0.00     0.231 HD
ATOM     52  H   SGN d 378      22.518  18.245  22.971  0.00  0.00     0.140 HD
ATOM     53  H   SGN d 378      22.320  21.569  22.180  0.00  0.00     0.212 HD
ATOM     54  H   SGN d 378      24.826  19.631  25.285  0.00  0.00     0.231 HD
ATOM     55  H   SGN d 378      25.385  17.982  23.626  0.00  0.00     0.231 HD
ENDROOT
TORSDOF 16
ENDMDL
MODEL 21
REMARK VINA RESULT:      -6.9      2.791      5.048
REMARK  0 active torsions:
REMARK  status: ('A' for Active; 'I' for Inactive)
REMARK       I    between atoms: C4_5  and  O4_20 
REMARK       I    between atoms: C6_6  and  C5_15 
REMARK       I    between atoms: C6_6  and  O6_25 
REMARK       I    between atoms: S1_7  and  N_21 
REMARK       I    between atoms: S1_7  and  O1S_34 
REMARK       I    between atoms: S1_7  and  O2S_27 
REMARK       I    between atoms: S1_7  and  O3S_19 
REMARK       I    between atoms: C5_8  and  C6_35 
REMARK       I    between atoms: S2_9  and  O6_25 
REMARK       I    between atoms: C1_10  and  O4_20 
REMARK       I    between atoms: C3_14  and  O3_18 
REMARK       I    between atoms: C2_16  and  N_21 
REMARK       I    between atoms: C1_17  and  O1_26 
REMARK       I    between atoms: C2_22  and  O2_29 
REMARK       I    between atoms: S_23  and  O2_29 
REMARK       I    between atoms: C3_30  and  O3_31 
ROOT
ATOM      1  O3S IXD d 379      17.286  18.896  19.608  0.00  0.00    -0.572 OA
ATOM      2  O2S IXD d 379      18.771  17.045  19.118  0.00  0.00    -0.572 OA
ATOM      3  O5  IXD d 379      20.380  20.242  21.832  0.00  0.00    -0.343 OA
ATOM      4  O62 IXD d 379      22.150  21.992  23.330  0.00  0.00    -0.646 OA
ATOM      5  C5  IXD d 379      21.620  20.874  21.412  0.00  0.00     0.127 C 
ATOM      6  C1  IXD d 379      19.193  20.639  21.135  0.00  0.00     0.161 C 
ATOM      7  O1S IXD d 379      18.110  18.587  17.381  0.00  0.00    -0.572 OA
ATOM      8  O61 IXD d 379      23.814  21.286  22.041  0.00  0.00    -0.646 OA
ATOM      9  C2  IXD d 379      19.461  20.672  19.633  0.00  0.00     0.132 C 
ATOM     10  S   IXD d 379      18.464  18.464  18.815  0.00  0.00     0.252 S 
ATOM     11  C4  IXD d 379      21.835  21.021  20.112  0.00  0.00    -0.005 C 
ATOM     12  O2  IXD d 379      19.679  19.345  19.163  0.00  0.00    -0.244 OA
ATOM     13  C3  IXD d 379      20.664  21.572  19.363  0.00  0.00     0.069 C 
ATOM     14  O3  IXD d 379      21.018  21.680  17.999  0.00  0.00    -0.393 OA
ATOM     15  C6  IXD d 379      22.593  21.407  22.328  0.00  0.00     0.203 C 
ATOM     16  H   IXD d 379      21.834  20.191  22.207  0.00  0.00     0.100 H 
ATOM     17  H   IXD d 379      18.416  20.119  21.655  0.00  0.00     0.133 H 
ATOM     18  H   IXD d 379      18.619  21.071  19.107  0.00  0.00     0.097 H 
ATOM     19  H   IXD d 379      22.077  20.063  19.700  0.00  0.00     0.041 H 
ATOM     20  H   IXD d 379      22.631  21.727  20.007  0.00  0.00     0.041 H 
ATOM     21  H   IXD d 379      20.391  22.556  19.683  0.00  0.00     0.087 H 
ATOM     22  H   IXD d 379      21.275  20.807  17.662  0.00  0.00     0.210 HD
ATOM     23  C4  SGN d 378      18.152  22.784  20.941  0.00  0.00     0.095 C 
ATOM     24  C6  SGN d 378      18.612  23.181  23.311  0.00  0.00     0.067 C 
ATOM     25  S1  SGN d 378      13.788  23.830  18.623  0.00  0.00     0.156 S 
ATOM     26  S2  SGN d 378      18.390  25.288  24.663  0.00  0.00     0.251 S 
ATOM     27  O4S SGN d 378      18.904  26.636  24.525  0.00  0.00    -0.572 OA
ATOM     28  C3  SGN d 378      17.093  22.421  19.909  0.00  0.00     0.083 C 
ATOM     29  C5  SGN d 378      17.588  22.632  22.344  0.00  0.00     0.091 C 
ATOM     30  C2  SGN d 378      15.820  23.200  20.190  0.00  0.00     0.081 C 
ATOM     31  C1  SGN d 378      15.369  23.009  21.632  0.00  0.00     0.147 C 
ATOM     32  O3  SGN d 378      17.520  22.754  18.610  0.00  0.00    -0.391 OA
ATOM     33  O3S SGN d 378      14.572  24.707  17.761  0.00  0.00    -0.296 OA
ATOM     34  O4  SGN d 378      19.285  21.944  20.840  0.00  0.00    -0.348 OA
ATOM     35  N   SGN d 378      14.785  22.763  19.276  0.00  0.00    -0.210 NA
ATOM     36  O6  SGN d 378      18.463  24.580  23.291  0.00  0.00    -0.254 OA
ATOM     37  O1  SGN d 378      15.015  21.663  21.838  0.00  0.00    -0.369 OA
ATOM     38  O2S SGN d 378      13.212  24.575  19.741  0.00  0.00    -0.296 OA
ATOM     39  O6S SGN d 378      19.168  24.473  25.587  0.00  0.00    -0.572 OA
ATOM     40  O5S SGN d 378      16.977  25.298  25.026  0.00  0.00    -0.572 OA
ATOM     41  O5  SGN d 378      16.400  23.375  22.522  0.00  0.00    -0.350 OA
ATOM     42  O1S SGN d 378      12.814  23.056  17.852  0.00  0.00    -0.296 OA
ATOM     43  H   SGN d 378      18.440  23.797  20.752  0.00  0.00     0.091 H 
ATOM     44  H   SGN d 378      19.599  22.909  22.999  0.00  0.00     0.080 H 
ATOM     45  H   SGN d 378      18.468  22.787  24.295  0.00  0.00     0.080 H 
ATOM     46  H   SGN d 378      16.921  21.367  19.974  0.00  0.00     0.089 H 
ATOM     47  H   SGN d 378      17.370  21.598  22.509  0.00  0.00     0.090 H 
ATOM     48  H   SGN d 378      16.012  24.243  20.045  0.00  0.00     0.076 H 
ATOM     49  H   SGN d 378      14.521  23.635  21.817  0.00  0.00     0.131 H 
ATOM     50  H   SGN d 378      17.674  23.710  18.556  0.00  0.00     0.210 HD
ATOM     51  H   SGN d 378      14.943  24.192  17.028  0.00  0.00     0.231 HD
ATOM     52  H   SGN d 378      15.255  22.289  18.505  0.00  0.00     0.140 HD
ATOM     53  H   SGN d 378      15.785  21.097  21.669  0.00  0.00     0.212 HD
ATOM     54  H   SGN d 378      12.697  23.973  20.300  0.00  0.00     0.231 HD
ATOM     55  H   SGN d 378      12.310  22.484  18.452  0.00  0.00     0.231 HD
ENDROOT
TORSDOF 16
ENDMDL
MODEL 22
REMARK VINA RESULT:      -6.7      3.611      7.555
REMARK  0 active torsions:
REMARK  status: ('A' for Active; 'I' for Inactive)
REMARK       I    between atoms: C4_5  and  O4_20 
REMARK       I    between atoms: C6_6  and  C5_15 
REMARK       I    between atoms: C6_6  and  O6_25 
REMARK       I    between atoms: S1_7  and  N_21 
REMARK       I    between atoms: S1_7  and  O1S_34 
REMARK       I    between atoms: S1_7  and  O2S_27 
REMARK       I    between atoms: S1_7  and  O3S_19 
REMARK       I    between atoms: C5_8  and  C6_35 
REMARK       I    between atoms: S2_9  and  O6_25 
REMARK       I    between atoms: C1_10  and  O4_20 
REMARK       I    between atoms: C3_14  and  O3_18 
REMARK       I    between atoms: C2_16  and  N_21 
REMARK       I    between atoms: C1_17  and  O1_26 
REMARK       I    between atoms: C2_22  and  O2_29 
REMARK       I    between atoms: S_23  and  O2_29 
REMARK       I    between atoms: C3_30  and  O3_31 
ROOT
ATOM      1  O3S IXD d 379      20.750  17.636  22.894  0.00  0.00    -0.572 OA
ATOM      2  O2S IXD d 379      21.007  16.501  25.019  0.00  0.00    -0.572 OA
ATOM      3  O5  IXD d 379      16.834  17.713  23.884  0.00  0.00    -0.343 OA
ATOM      4  O62 IXD d 379      14.021  18.435  23.976  0.00  0.00    -0.646 OA
ATOM      5  C5  IXD d 379      16.133  18.561  24.835  0.00  0.00     0.127 C 
ATOM      6  C1  IXD d 379      17.841  18.347  23.086  0.00  0.00     0.161 C 
ATOM      7  O1S IXD d 379      21.942  18.701  24.678  0.00  0.00    -0.572 OA
ATOM      8  O61 IXD d 379      14.241  18.706  26.168  0.00  0.00    -0.646 OA
ATOM      9  C2  IXD d 379      18.711  19.242  23.965  0.00  0.00     0.132 C 
ATOM     10  S   IXD d 379      20.795  17.816  24.367  0.00  0.00     0.252 S 
ATOM     11  C4  IXD d 379      16.845  19.432  25.536  0.00  0.00    -0.005 C 
ATOM     12  O2  IXD d 379      19.471  18.432  24.857  0.00  0.00    -0.244 OA
ATOM     13  C3  IXD d 379      17.814  20.223  24.716  0.00  0.00     0.069 C 
ATOM     14  O3  IXD d 379      18.506  21.107  25.573  0.00  0.00    -0.393 OA
ATOM     15  C6  IXD d 379      14.705  18.553  25.006  0.00  0.00     0.203 C 
ATOM     16  H   IXD d 379      15.747  17.567  24.911  0.00  0.00     0.100 H 
ATOM     17  H   IXD d 379      18.156  17.568  22.422  0.00  0.00     0.133 H 
ATOM     18  H   IXD d 379      19.398  19.805  23.369  0.00  0.00     0.097 H 
ATOM     19  H   IXD d 379      17.394  18.896  26.281  0.00  0.00     0.041 H 
ATOM     20  H   IXD d 379      16.153  20.130  25.958  0.00  0.00     0.041 H 
ATOM     21  H   IXD d 379      17.335  20.830  23.976  0.00  0.00     0.087 H 
ATOM     22  H   IXD d 379      18.959  20.599  26.264  0.00  0.00     0.210 HD
ATOM     23  C4  SGN d 378      17.675  20.143  21.515  0.00  0.00     0.095 C 
ATOM     24  C6  SGN d 378      15.598  19.164  20.672  0.00  0.00     0.067 C 
ATOM     25  S1  SGN d 378      21.386  21.991  18.630  0.00  0.00     0.156 S 
ATOM     26  S2  SGN d 378      13.898  20.115  19.083  0.00  0.00     0.251 S 
ATOM     27  O4S SGN d 378      13.123  21.339  19.047  0.00  0.00    -0.572 OA
ATOM     28  C3  SGN d 378      19.162  20.349  21.261  0.00  0.00     0.083 C 
ATOM     29  C5  SGN d 378      17.098  19.184  20.487  0.00  0.00     0.091 C 
ATOM     30  C2  SGN d 378      19.381  20.737  19.809  0.00  0.00     0.081 C 
ATOM     31  C1  SGN d 378      18.726  19.733  18.870  0.00  0.00     0.147 C 
ATOM     32  O3  SGN d 378      19.670  21.388  22.062  0.00  0.00    -0.391 OA
ATOM     33  O3S SGN d 378      21.153  23.256  19.316  0.00  0.00    -0.296 OA
ATOM     34  O4  SGN d 378      17.439  19.592  22.796  0.00  0.00    -0.348 OA
ATOM     35  N   SGN d 378      20.804  20.819  19.549  0.00  0.00    -0.210 NA
ATOM     36  O6  SGN d 378      15.105  20.314  20.027  0.00  0.00    -0.254 OA
ATOM     37  O1  SGN d 378      19.361  18.484  19.004  0.00  0.00    -0.369 OA
ATOM     38  O2S SGN d 378      20.632  21.929  17.379  0.00  0.00    -0.296 OA
ATOM     39  O6S SGN d 378      13.149  18.980  19.608  0.00  0.00    -0.572 OA
ATOM     40  O5S SGN d 378      14.468  19.814  17.774  0.00  0.00    -0.572 OA
ATOM     41  O5  SGN d 378      17.353  19.606  19.164  0.00  0.00    -0.350 OA
ATOM     42  O1S SGN d 378      22.816  21.719  18.483  0.00  0.00    -0.296 OA
ATOM     43  H   SGN d 378      17.209  21.103  21.447  0.00  0.00     0.091 H 
ATOM     44  H   SGN d 378      15.353  19.189  21.714  0.00  0.00     0.080 H 
ATOM     45  H   SGN d 378      15.167  18.274  20.264  0.00  0.00     0.080 H 
ATOM     46  H   SGN d 378      19.664  19.434  21.494  0.00  0.00     0.089 H 
ATOM     47  H   SGN d 378      17.549  18.224  20.631  0.00  0.00     0.090 H 
ATOM     48  H   SGN d 378      18.927  21.690  19.632  0.00  0.00     0.076 H 
ATOM     49  H   SGN d 378      18.829  20.080  17.863  0.00  0.00     0.131 H 
ATOM     50  H   SGN d 378      19.213  22.216  21.847  0.00  0.00     0.210 HD
ATOM     51  H   SGN d 378      21.662  23.274  20.142  0.00  0.00     0.231 HD
ATOM     52  H   SGN d 378      21.264  20.899  20.455  0.00  0.00     0.140 HD
ATOM     53  H   SGN d 378      19.268  18.171  19.917  0.00  0.00     0.212 HD
ATOM     54  H   SGN d 378      20.801  21.081  16.940  0.00  0.00     0.231 HD
ATOM     55  H   SGN d 378      22.938  20.873  18.024  0.00  0.00     0.231 HD
ENDROOT
TORSDOF 16
ENDMDL
MODEL 23
REMARK VINA RESULT:      -6.3      2.620      6.449
REMARK  0 active torsions:
REMARK  status: ('A' for Active; 'I' for Inactive)
REMARK       I    between atoms: C4_5  and  O4_20 
REMARK       I    between atoms: C6_6  and  C5_15 
REMARK       I    between atoms: C6_6  and  O6_25 
REMARK       I    between atoms: S1_7  and  N_21 
REMARK       I    between atoms: S1_7  and  O1S_34 
REMARK       I    between atoms: S1_7  and  O2S_27 
REMARK       I    between atoms: S1_7  and  O3S_19 
REMARK       I    between atoms: C5_8  and  C6_35 
REMARK       I    between atoms: S2_9  and  O6_25 
REMARK       I    between atoms: C1_10  and  O4_20 
REMARK       I    between atoms: C3_14  and  O3_18 
REMARK       I    between atoms: C2_16  and  N_21 
REMARK       I    between atoms: C1_17  and  O1_26 
REMARK       I    between atoms: C2_22  and  O2_29 
REMARK       I    between atoms: S_23  and  O2_29 
REMARK       I    between atoms: C3_30  and  O3_31 
ROOT
ATOM      1  O3S IXD d 379      20.188  19.547  23.427  0.00  0.00    -0.572 OA
ATOM      2  O2S IXD d 379      20.596  17.158  23.454  0.00  0.00    -0.572 OA
ATOM      3  O5  IXD d 379      16.931  18.542  21.256  0.00  0.00    -0.343 OA
ATOM      4  O62 IXD d 379      14.327  18.645  19.973  0.00  0.00    -0.646 OA
ATOM      5  C5  IXD d 379      15.669  17.964  21.689  0.00  0.00     0.127 C 
ATOM      6  C1  IXD d 379      17.494  19.551  22.103  0.00  0.00     0.161 C 
ATOM      7  O1S IXD d 379      20.052  18.338  25.489  0.00  0.00    -0.572 OA
ATOM      8  O61 IXD d 379      13.839  16.728  20.979  0.00  0.00    -0.646 OA
ATOM      9  C2  IXD d 379      17.418  19.104  23.561  0.00  0.00     0.132 C 
ATOM     10  S   IXD d 379      19.783  18.254  24.035  0.00  0.00     0.252 S 
ATOM     11  C4  IXD d 379      15.527  17.668  22.973  0.00  0.00    -0.005 C 
ATOM     12  O2  IXD d 379      18.289  17.995  23.761  0.00  0.00    -0.244 OA
ATOM     13  C3  IXD d 379      15.970  18.755  23.898  0.00  0.00     0.069 C 
ATOM     14  O3  IXD d 379      15.770  18.320  25.228  0.00  0.00    -0.393 OA
ATOM     15  C6  IXD d 379      14.546  17.758  20.814  0.00  0.00     0.203 C 
ATOM     16  H   IXD d 379      15.961  17.504  20.768  0.00  0.00     0.100 H 
ATOM     17  H   IXD d 379      18.355  19.878  21.558  0.00  0.00     0.133 H 
ATOM     18  H   IXD d 379      17.734  19.890  24.214  0.00  0.00     0.097 H 
ATOM     19  H   IXD d 379      16.104  16.792  23.183  0.00  0.00     0.041 H 
ATOM     20  H   IXD d 379      14.481  17.522  23.144  0.00  0.00     0.041 H 
ATOM     21  H   IXD d 379      15.402  19.655  23.786  0.00  0.00     0.087 H 
ATOM     22  H   IXD d 379      16.269  17.501  25.378  0.00  0.00     0.210 HD
ATOM     23  C4  SGN d 378      16.630  21.680  22.767  0.00  0.00     0.095 C 
ATOM     24  C6  SGN d 378      15.828  22.025  20.482  0.00  0.00     0.067 C 
ATOM     25  S1  SGN d 378      18.987  25.162  25.565  0.00  0.00     0.156 S 
ATOM     26  S2  SGN d 378      14.311  23.804  19.559  0.00  0.00     0.251 S 
ATOM     27  O4S SGN d 378      12.985  24.278  19.902  0.00  0.00    -0.572 OA
ATOM     28  C3  SGN d 378      17.696  22.039  23.793  0.00  0.00     0.083 C 
ATOM     29  C5  SGN d 378      17.002  22.249  21.407  0.00  0.00     0.091 C 
ATOM     30  C2  SGN d 378      17.954  23.535  23.758  0.00  0.00     0.081 C 
ATOM     31  C1  SGN d 378      18.274  24.002  22.344  0.00  0.00     0.147 C 
ATOM     32  O3  SGN d 378      17.275  21.708  25.094  0.00  0.00    -0.391 OA
ATOM     33  O3S SGN d 378      17.889  25.001  26.511  0.00  0.00    -0.296 OA
ATOM     34  O4  SGN d 378      16.497  20.280  22.624  0.00  0.00    -0.348 OA
ATOM     35  N   SGN d 378      19.048  23.849  24.653  0.00  0.00    -0.210 NA
ATOM     36  O6  SGN d 378      14.900  23.043  20.768  0.00  0.00    -0.254 OA
ATOM     37  O1  SGN d 378      19.485  23.423  21.923  0.00  0.00    -0.369 OA
ATOM     38  O2S SGN d 378      18.730  26.273  24.650  0.00  0.00    -0.296 OA
ATOM     39  O6S SGN d 378      14.310  22.865  18.444  0.00  0.00    -0.572 OA
ATOM     40  O5S SGN d 378      15.221  24.917  19.314  0.00  0.00    -0.572 OA
ATOM     41  O5  SGN d 378      17.237  23.641  21.460  0.00  0.00    -0.350 OA
ATOM     42  O1S SGN d 378      20.276  25.238  26.253  0.00  0.00    -0.296 OA
ATOM     43  H   SGN d 378      15.708  22.094  23.115  0.00  0.00     0.091 H 
ATOM     44  H   SGN d 378      15.392  21.064  20.662  0.00  0.00     0.080 H 
ATOM     45  H   SGN d 378      16.130  22.051  19.456  0.00  0.00     0.080 H 
ATOM     46  H   SGN d 378      18.582  21.491  23.550  0.00  0.00     0.089 H 
ATOM     47  H   SGN d 378      17.896  21.765  21.073  0.00  0.00     0.090 H 
ATOM     48  H   SGN d 378      17.070  24.047  24.076  0.00  0.00     0.076 H 
ATOM     49  H   SGN d 378      18.367  25.068  22.343  0.00  0.00     0.131 H 
ATOM     50  H   SGN d 378      16.472  22.207  25.310  0.00  0.00     0.210 HD
ATOM     51  H   SGN d 378      18.081  24.260  27.106  0.00  0.00     0.231 HD
ATOM     52  H   SGN d 378      19.147  23.056  25.286  0.00  0.00     0.140 HD
ATOM     53  H   SGN d 378      19.400  22.457  21.926  0.00  0.00     0.212 HD
ATOM     54  H   SGN d 378      19.472  26.361  24.032  0.00  0.00     0.231 HD
ATOM     55  H   SGN d 378      20.985  25.345  25.600  0.00  0.00     0.231 HD
ENDROOT
TORSDOF 16
ENDMDL
MODEL 24
REMARK VINA RESULT:      -6.1      2.747      5.750
REMARK  0 active torsions:
REMARK  status: ('A' for Active; 'I' for Inactive)
REMARK       I    between atoms: C4_5  and  O4_20 
REMARK       I    between atoms: C6_6  and  C5_15 
REMARK       I    between atoms: C6_6  and  O6_25 
REMARK       I    between atoms: S1_7  and  N_21 
REMARK       I    between atoms: S1_7  and  O1S_34 
REMARK       I    between atoms: S1_7  and  O2S_27 
REMARK       I    between atoms: S1_7  and  O3S_19 
REMARK       I    between atoms: C5_8  and  C6_35 
REMARK       I    between atoms: S2_9  and  O6_25 
REMARK       I    between atoms: C1_10  and  O4_20 
REMARK       I    between atoms: C3_14  and  O3_18 
REMARK       I    between atoms: C2_16  and  N_21 
REMARK       I    between atoms: C1_17  and  O1_26 
REMARK       I    between atoms: C2_22  and  O2_29 
REMARK       I    between atoms: S_23  and  O2_29 
REMARK       I    between atoms: C3_30  and  O3_31 
ROOT
ATOM      1  O3S IXD d 379      14.898  20.879  22.176  0.00  0.00    -0.572 OA
ATOM      2  O2S IXD d 379      13.544  19.834  20.460  0.00  0.00    -0.572 OA
ATOM      3  O5  IXD d 379      17.951  18.972  20.341  0.00  0.00    -0.343 OA
ATOM      4  O62 IXD d 379      20.622  18.236  19.467  0.00  0.00    -0.646 OA
ATOM      5  C5  IXD d 379      18.633  19.293  19.098  0.00  0.00     0.127 C 
ATOM      6  C1  IXD d 379      17.616  20.078  21.189  0.00  0.00     0.161 C 
ATOM      7  O1S IXD d 379      13.823  22.232  20.518  0.00  0.00    -0.572 OA
ATOM      8  O61 IXD d 379      19.898  18.393  17.375  0.00  0.00    -0.646 OA
ATOM      9  C2  IXD d 379      17.010  21.204  20.355  0.00  0.00     0.132 C 
ATOM     10  S   IXD d 379      14.498  20.933  20.748  0.00  0.00     0.252 S 
ATOM     11  C4  IXD d 379      18.203  20.336  18.403  0.00  0.00    -0.005 C 
ATOM     12  O2  IXD d 379      15.743  20.790  19.852  0.00  0.00    -0.244 OA
ATOM     13  C3  IXD d 379      17.976  21.562  19.228  0.00  0.00     0.069 C 
ATOM     14  O3  IXD d 379      17.523  22.596  18.378  0.00  0.00    -0.393 OA
ATOM     15  C6  IXD d 379      19.787  18.582  18.616  0.00  0.00     0.203 C 
ATOM     16  H   IXD d 379      18.499  18.233  19.154  0.00  0.00     0.100 H 
ATOM     17  H   IXD d 379      17.206  19.607  22.058  0.00  0.00     0.133 H 
ATOM     18  H   IXD d 379      16.855  22.076  20.954  0.00  0.00     0.097 H 
ATOM     19  H   IXD d 379      17.279  20.071  17.934  0.00  0.00     0.041 H 
ATOM     20  H   IXD d 379      18.969  20.575  17.696  0.00  0.00     0.041 H 
ATOM     21  H   IXD d 379      18.870  21.924  19.693  0.00  0.00     0.087 H 
ATOM     22  H   IXD d 379      16.708  22.313  17.932  0.00  0.00     0.210 HD
ATOM     23  C4  SGN d 378      19.017  21.695  22.256  0.00  0.00     0.095 C 
ATOM     24  C6  SGN d 378      20.598  19.910  22.804  0.00  0.00     0.067 C 
ATOM     25  S1  SGN d 378      17.553  25.341  25.431  0.00  0.00     0.156 S 
ATOM     26  S2  SGN d 378      22.931  20.053  23.727  0.00  0.00     0.251 S 
ATOM     27  O4S SGN d 378      24.137  20.748  23.323  0.00  0.00    -0.572 OA
ATOM     28  C3  SGN d 378      17.926  22.615  22.787  0.00  0.00     0.083 C 
ATOM     29  C5  SGN d 378      19.392  20.667  23.312  0.00  0.00     0.091 C 
ATOM     30  C2  SGN d 378      18.346  23.181  24.132  0.00  0.00     0.081 C 
ATOM     31  C1  SGN d 378      18.739  22.069  25.095  0.00  0.00     0.147 C 
ATOM     32  O3  SGN d 378      17.712  23.698  21.915  0.00  0.00    -0.391 OA
ATOM     33  O3S SGN d 378      18.101  26.274  24.453  0.00  0.00    -0.296 OA
ATOM     34  O4  SGN d 378      18.591  20.994  21.105  0.00  0.00    -0.348 OA
ATOM     35  N   SGN d 378      17.255  23.961  24.680  0.00  0.00    -0.210 NA
ATOM     36  O6  SGN d 378      21.713  20.729  23.058  0.00  0.00    -0.254 OA
ATOM     37  O1  SGN d 378      17.612  21.275  25.379  0.00  0.00    -0.369 OA
ATOM     38  O2S SGN d 378      18.539  25.029  26.465  0.00  0.00    -0.296 OA
ATOM     39  O6S SGN d 378      22.909  18.658  23.306  0.00  0.00    -0.572 OA
ATOM     40  O5S SGN d 378      22.709  20.176  25.164  0.00  0.00    -0.572 OA
ATOM     41  O5  SGN d 378      19.758  21.271  24.535  0.00  0.00    -0.350 OA
ATOM     42  O1S SGN d 378      16.266  25.806  25.950  0.00  0.00    -0.296 OA
ATOM     43  H   SGN d 378      19.855  22.313  22.009  0.00  0.00     0.091 H 
ATOM     44  H   SGN d 378      20.504  19.726  21.753  0.00  0.00     0.080 H 
ATOM     45  H   SGN d 378      20.694  18.961  23.287  0.00  0.00     0.080 H 
ATOM     46  H   SGN d 378      17.028  22.039  22.875  0.00  0.00     0.089 H 
ATOM     47  H   SGN d 378      18.545  20.037  23.483  0.00  0.00     0.090 H 
ATOM     48  H   SGN d 378      19.202  23.808  23.993  0.00  0.00     0.076 H 
ATOM     49  H   SGN d 378      19.107  22.505  25.999  0.00  0.00     0.131 H 
ATOM     50  H   SGN d 378      18.528  24.217  21.838  0.00  0.00     0.210 HD
ATOM     51  H   SGN d 378      17.431  26.466  23.779  0.00  0.00     0.231 HD
ATOM     52  H   SGN d 378      16.629  24.177  23.904  0.00  0.00     0.140 HD
ATOM     53  H   SGN d 378      17.280  20.881  24.558  0.00  0.00     0.212 HD
ATOM     54  H   SGN d 378      18.154  24.408  27.102  0.00  0.00     0.231 HD
ATOM     55  H   SGN d 378      15.928  25.167  26.596  0.00  0.00     0.231 HD
ENDROOT
TORSDOF 16
ENDMDL
MODEL 25
REMARK VINA RESULT:      -6.0      2.282      6.173
REMARK  0 active torsions:
REMARK  status: ('A' for Active; 'I' for Inactive)
REMARK       I    between atoms: C4_5  and  O4_20 
REMARK       I    between atoms: C6_6  and  C5_15 
REMARK       I    between atoms: C6_6  and  O6_25 
REMARK       I    between atoms: S1_7  and  N_21 
REMARK       I    between atoms: S1_7  and  O1S_34 
REMARK       I    between atoms: S1_7  and  O2S_27 
REMARK       I    between atoms: S1_7  and  O3S_19 
REMARK       I    between atoms: C5_8  and  C6_35 
REMARK       I    between atoms: S2_9  and  O6_25 
REMARK       I    between atoms: C1_10  and  O4_20 
REMARK       I    between atoms: C3_14  and  O3_18 
REMARK       I    between atoms: C2_16  and  N_21 
REMARK       I    between atoms: C1_17  and  O1_26 
REMARK       I    between atoms: C2_22  and  O2_29 
REMARK       I    between atoms: S_23  and  O2_29 
REMARK       I    between atoms: C3_30  and  O3_31 
ROOT
ATOM      1  O3S IXD d 379      17.099  19.395  23.788  0.00  0.00    -0.572 OA
ATOM      2  O2S IXD d 379      16.565  19.129  26.136  0.00  0.00    -0.572 OA
ATOM      3  O5  IXD d 379      16.808  23.343  24.600  0.00  0.00    -0.343 OA
ATOM      4  O62 IXD d 379      17.089  26.229  24.417  0.00  0.00    -0.646 OA
ATOM      5  C5  IXD d 379      17.742  24.221  25.285  0.00  0.00     0.127 C 
ATOM      6  C1  IXD d 379      17.378  22.382  23.702  0.00  0.00     0.161 C 
ATOM      7  O1S IXD d 379      18.734  18.493  25.288  0.00  0.00    -0.572 OA
ATOM      8  O61 IXD d 379      17.912  26.202  26.479  0.00  0.00    -0.646 OA
ATOM      9  C2  IXD d 379      18.582  21.710  24.358  0.00  0.00     0.132 C 
ATOM     10  S   IXD d 379      17.634  19.479  25.170  0.00  0.00     0.252 S 
ATOM     11  C4  IXD d 379      18.856  23.690  25.770  0.00  0.00    -0.005 C 
ATOM     12  O2  IXD d 379      18.139  20.908  25.448  0.00  0.00    -0.244 OA
ATOM     13  C3  IXD d 379      19.565  22.788  24.811  0.00  0.00     0.069 C 
ATOM     14  O3  IXD d 379      20.726  22.289  25.442  0.00  0.00    -0.393 OA
ATOM     15  C6  IXD d 379      17.556  25.642  25.407  0.00  0.00     0.203 C 
ATOM     16  H   IXD d 379      16.748  24.466  25.595  0.00  0.00     0.100 H 
ATOM     17  H   IXD d 379      16.520  21.915  23.264  0.00  0.00     0.133 H 
ATOM     18  H   IXD d 379      19.083  21.071  23.662  0.00  0.00     0.097 H 
ATOM     19  H   IXD d 379      18.607  23.123  26.643  0.00  0.00     0.041 H 
ATOM     20  H   IXD d 379      19.520  24.501  25.982  0.00  0.00     0.041 H 
ATOM     21  H   IXD d 379      19.894  23.295  23.928  0.00  0.00     0.087 H 
ATOM     22  H   IXD d 379      20.476  21.818  26.253  0.00  0.00     0.210 HD
ATOM     23  C4  SGN d 378      18.693  22.690  21.728  0.00  0.00     0.095 C 
ATOM     24  C6  SGN d 378      17.231  24.545  21.089  0.00  0.00     0.067 C 
ATOM     25  S1  SGN d 378      20.338  19.086  18.596  0.00  0.00     0.156 S 
ATOM     26  S2  SGN d 378      17.496  26.247  19.258  0.00  0.00     0.251 S 
ATOM     27  O4S SGN d 378      18.541  27.183  18.893  0.00  0.00    -0.572 OA
ATOM     28  C3  SGN d 378      19.059  21.234  21.479  0.00  0.00     0.083 C 
ATOM     29  C5  SGN d 378      17.436  23.054  20.953  0.00  0.00     0.091 C 
ATOM     30  C2  SGN d 378      19.113  20.971  19.984  0.00  0.00     0.081 C 
ATOM     31  C1  SGN d 378      17.823  21.410  19.304  0.00  0.00     0.147 C 
ATOM     32  O3  SGN d 378      20.326  20.934  22.012  0.00  0.00    -0.391 OA
ATOM     33  O3S SGN d 378      21.681  19.543  18.937  0.00  0.00    -0.296 OA
ATOM     34  O4  SGN d 378      18.439  22.935  23.097  0.00  0.00    -0.348 OA
ATOM     35  N   SGN d 378      19.348  19.560  19.758  0.00  0.00    -0.210 NA
ATOM     36  O6  SGN d 378      18.101  25.149  20.162  0.00  0.00    -0.254 OA
ATOM     37  O1  SGN d 378      16.757  20.616  19.766  0.00  0.00    -0.369 OA
ATOM     38  O2S SGN d 378      19.861  19.735  17.375  0.00  0.00    -0.296 OA
ATOM     39  O6S SGN d 378      16.421  26.863  20.025  0.00  0.00    -0.572 OA
ATOM     40  O5S SGN d 378      16.980  25.551  18.085  0.00  0.00    -0.572 OA
ATOM     41  O5  SGN d 378      17.561  22.769  19.576  0.00  0.00    -0.350 OA
ATOM     42  O1S SGN d 378      20.263  17.625  18.568  0.00  0.00    -0.296 OA
ATOM     43  H   SGN d 378      19.525  23.282  21.408  0.00  0.00     0.091 H 
ATOM     44  H   SGN d 378      17.469  24.863  22.083  0.00  0.00     0.080 H 
ATOM     45  H   SGN d 378      16.213  24.816  20.902  0.00  0.00     0.080 H 
ATOM     46  H   SGN d 378      18.316  20.625  21.949  0.00  0.00     0.089 H 
ATOM     47  H   SGN d 378      16.622  22.482  21.347  0.00  0.00     0.090 H 
ATOM     48  H   SGN d 378      19.913  21.541  19.560  0.00  0.00     0.076 H 
ATOM     49  H   SGN d 378      17.928  21.288  18.247  0.00  0.00     0.131 H 
ATOM     50  H   SGN d 378      20.996  21.488  21.582  0.00  0.00     0.210 HD
ATOM     51  H   SGN d 378      21.976  19.100  19.748  0.00  0.00     0.231 HD
ATOM     52  H   SGN d 378      19.715  19.180  20.630  0.00  0.00     0.140 HD
ATOM     53  H   SGN d 378      16.664  20.727  20.725  0.00  0.00     0.212 HD
ATOM     54  H   SGN d 378      18.968  19.417  17.168  0.00  0.00     0.231 HD
ATOM     55  H   SGN d 378      19.360  17.353  18.339  0.00  0.00     0.231 HD
ENDROOT
TORSDOF 16
ENDMDL
MODEL 26
REMARK VINA RESULT:      -6.0      2.720      6.415
REMARK  0 active torsions:
REMARK  status: ('A' for Active; 'I' for Inactive)
REMARK       I    between atoms: C4_5  and  O4_20 
REMARK       I    between atoms: C6_6  and  C5_15 
REMARK       I    between atoms: C6_6  and  O6_25 
REMARK       I    between atoms: S1_7  and  N_21 
REMARK       I    between atoms: S1_7  and  O1S_34 
REMARK       I    between atoms: S1_7  and  O2S_27 
REMARK       I    between atoms: S1_7  and  O3S_19 
REMARK       I    between atoms: C5_8  and  C6_35 
REMARK       I    between atoms: S2_9  and  O6_25 
REMARK       I    between atoms: C1_10  and  O4_20 
REMARK       I    between atoms: C3_14  and  O3_18 
REMARK       I    between atoms: C2_16  and  N_21 
REMARK       I    between atoms: C1_17  and  O1_26 
REMARK       I    between atoms: C2_22  and  O2_29 
REMARK       I    between atoms: S_23  and  O2_29 
REMARK       I    between atoms: C3_30  and  O3_31 
ROOT
ATOM      1  O3S IXD d 379      16.504  22.914  22.967  0.00  0.00    -0.572 OA
ATOM      2  O2S IXD d 379      17.982  24.757  22.429  0.00  0.00    -0.572 OA
ATOM      3  O5  IXD d 379      17.924  21.322  19.535  0.00  0.00    -0.343 OA
ATOM      4  O62 IXD d 379      18.632  19.417  17.459  0.00  0.00    -0.646 OA
ATOM      5  C5  IXD d 379      19.205  20.691  19.264  0.00  0.00     0.127 C 
ATOM      6  C1  IXD d 379      17.311  21.011  20.792  0.00  0.00     0.161 C 
ATOM      7  O1S IXD d 379      18.398  23.370  24.360  0.00  0.00    -0.572 OA
ATOM      8  O61 IXD d 379      20.715  20.174  17.582  0.00  0.00    -0.646 OA
ATOM      9  C2  IXD d 379      18.351  21.085  21.907  0.00  0.00     0.132 C 
ATOM     10  S   IXD d 379      17.916  23.374  22.959  0.00  0.00     0.252 S 
ATOM     11  C4  IXD d 379      20.093  20.638  20.247  0.00  0.00    -0.005 C 
ATOM     12  O2  IXD d 379      18.764  22.437  22.078  0.00  0.00    -0.244 OA
ATOM     13  C3  IXD d 379      19.526  20.176  21.552  0.00  0.00     0.069 C 
ATOM     14  O3  IXD d 379      20.564  20.162  22.510  0.00  0.00    -0.393 OA
ATOM     15  C6  IXD d 379      19.536  20.065  18.012  0.00  0.00     0.203 C 
ATOM     16  H   IXD d 379      18.941  21.306  18.430  0.00  0.00     0.100 H 
ATOM     17  H   IXD d 379      16.367  21.510  20.737  0.00  0.00     0.133 H 
ATOM     18  H   IXD d 379      17.937  20.749  22.834  0.00  0.00     0.097 H 
ATOM     19  H   IXD d 379      20.502  21.617  20.386  0.00  0.00     0.041 H 
ATOM     20  H   IXD d 379      20.832  19.920  19.959  0.00  0.00     0.041 H 
ATOM     21  H   IXD d 379      19.141  19.178  21.509  0.00  0.00     0.087 H 
ATOM     22  H   IXD d 379      20.946  21.051  22.585  0.00  0.00     0.210 HD
ATOM     23  C4  SGN d 378      16.582  18.915  21.686  0.00  0.00     0.095 C 
ATOM     24  C6  SGN d 378      15.692  18.328  19.484  0.00  0.00     0.067 C 
ATOM     25  S1  SGN d 378      14.191  18.165  26.071  0.00  0.00     0.156 S 
ATOM     26  S2  SGN d 378      14.812  16.131  18.637  0.00  0.00     0.251 S 
ATOM     27  O4S SGN d 378      15.344  14.785  18.579  0.00  0.00    -0.572 OA
ATOM     28  C3  SGN d 378      16.245  19.383  23.095  0.00  0.00     0.083 C 
ATOM     29  C5  SGN d 378      15.345  18.975  20.805  0.00  0.00     0.091 C 
ATOM     30  C2  SGN d 378      15.038  18.620  23.610  0.00  0.00     0.081 C 
ATOM     31  C1  SGN d 378      13.874  18.713  22.632  0.00  0.00     0.147 C 
ATOM     32  O3  SGN d 378      17.314  19.138  23.976  0.00  0.00    -0.391 OA
ATOM     33  O3S SGN d 378      15.333  17.335  26.437  0.00  0.00    -0.296 OA
ATOM     34  O4  SGN d 378      17.573  19.730  21.091  0.00  0.00    -0.348 OA
ATOM     35  N   SGN d 378      14.655  19.152  24.902  0.00  0.00    -0.210 NA
ATOM     36  O6  SGN d 378      15.603  16.939  19.690  0.00  0.00    -0.254 OA
ATOM     37  O1  SGN d 378      13.440  20.048  22.547  0.00  0.00    -0.369 OA
ATOM     38  O2S SGN d 378      13.115  17.352  25.505  0.00  0.00    -0.296 OA
ATOM     39  O6S SGN d 378      14.950  16.853  17.378  0.00  0.00    -0.572 OA
ATOM     40  O5S SGN d 378      13.428  16.132  19.099  0.00  0.00    -0.572 OA
ATOM     41  O5  SGN d 378      14.264  18.253  21.357  0.00  0.00    -0.350 OA
ATOM     42  O1S SGN d 378      13.776  19.020  27.183  0.00  0.00    -0.296 OA
ATOM     43  H   SGN d 378      16.945  17.912  21.767  0.00  0.00     0.091 H 
ATOM     44  H   SGN d 378      16.685  18.597  19.190  0.00  0.00     0.080 H 
ATOM     45  H   SGN d 378      15.030  18.650  18.707  0.00  0.00     0.080 H 
ATOM     46  H   SGN d 378      16.046  20.434  23.051  0.00  0.00     0.089 H 
ATOM     47  H   SGN d 378      15.053  20.000  20.704  0.00  0.00     0.090 H 
ATOM     48  H   SGN d 378      15.296  17.586  23.709  0.00  0.00     0.076 H 
ATOM     49  H   SGN d 378      13.073  18.098  22.985  0.00  0.00     0.131 H 
ATOM     50  H   SGN d 378      17.490  18.185  24.013  0.00  0.00     0.210 HD
ATOM     51  H   SGN d 378      16.033  17.894  26.809  0.00  0.00     0.231 HD
ATOM     52  H   SGN d 378      15.459  19.670  25.256  0.00  0.00     0.140 HD
ATOM     53  H   SGN d 378      14.167  20.605  22.227  0.00  0.00     0.212 HD
ATOM     54  H   SGN d 378      12.368  17.924  25.270  0.00  0.00     0.231 HD
ATOM     55  H   SGN d 378      13.017  19.559  26.910  0.00  0.00     0.231 HD
ENDROOT
TORSDOF 16
ENDMDL
MODEL 27
REMARK VINA RESULT:      -5.7      2.175      6.006
REMARK  0 active torsions:
REMARK  status: ('A' for Active; 'I' for Inactive)
REMARK       I    between atoms: C4_5  and  O4_20 
REMARK       I    between atoms: C6_6  and  C5_15 
REMARK       I    between atoms: C6_6  and  O6_25 
REMARK       I    between atoms: S1_7  and  N_21 
REMARK       I    between atoms: S1_7  and  O1S_34 
REMARK       I    between atoms: S1_7  and  O2S_27 
REMARK       I    between atoms: S1_7  and  O3S_19 
REMARK       I    between atoms: C5_8  and  C6_35 
REMARK       I    between atoms: S2_9  and  O6_25 
REMARK       I    between atoms: C1_10  and  O4_20 
REMARK       I    between atoms: C3_14  and  O3_18 
REMARK       I    between atoms: C2_16  and  N_21 
REMARK       I    between atoms: C1_17  and  O1_26 
REMARK       I    between atoms: C2_22  and  O2_29 
REMARK       I    between atoms: S_23  and  O2_29 
REMARK       I    between atoms: C3_30  and  O3_31 
ROOT
ATOM      1  O3S IXD d 379      19.348  20.042  24.566  0.00  0.00    -0.572 OA
ATOM      2  O2S IXD d 379      19.557  17.628  24.586  0.00  0.00    -0.572 OA
ATOM      3  O5  IXD d 379      18.247  19.495  20.716  0.00  0.00    -0.343 OA
ATOM      4  O62 IXD d 379      17.106  19.932  18.081  0.00  0.00    -0.646 OA
ATOM      5  C5  IXD d 379      16.988  19.019  20.170  0.00  0.00     0.127 C 
ATOM      6  C1  IXD d 379      18.161  20.391  21.832  0.00  0.00     0.161 C 
ATOM      7  O1S IXD d 379      17.863  18.729  25.909  0.00  0.00    -0.572 OA
ATOM      8  O61 IXD d 379      16.015  18.014  18.320  0.00  0.00    -0.646 OA
ATOM      9  C2  IXD d 379      17.141  19.866  22.839  0.00  0.00     0.132 C 
ATOM     10  S   IXD d 379      18.600  18.761  24.624  0.00  0.00     0.252 S 
ATOM     11  C4  IXD d 379      16.036  18.660  21.020  0.00  0.00    -0.005 C 
ATOM     12  O2  IXD d 379      17.634  18.666  23.429  0.00  0.00    -0.244 OA
ATOM     13  C3  IXD d 379      15.810  19.641  22.126  0.00  0.00     0.069 C 
ATOM     14  O3  IXD d 379      14.779  19.147  22.956  0.00  0.00    -0.393 OA
ATOM     15  C6  IXD d 379      16.695  18.978  18.762  0.00  0.00     0.203 C 
ATOM     16  H   IXD d 379      17.791  18.589  19.609  0.00  0.00     0.100 H 
ATOM     17  H   IXD d 379      19.180  20.665  22.008  0.00  0.00     0.133 H 
ATOM     18  H   IXD d 379      16.985  20.576  23.624  0.00  0.00     0.097 H 
ATOM     19  H   IXD d 379      16.307  17.720  21.453  0.00  0.00     0.041 H 
ATOM     20  H   IXD d 379      15.125  18.607  20.461  0.00  0.00     0.041 H 
ATOM     21  H   IXD d 379      15.483  20.597  21.774  0.00  0.00     0.087 H 
ATOM     22  H   IXD d 379      15.032  18.275  23.301  0.00  0.00     0.210 HD
ATOM     23  C4  SGN d 378      17.149  22.550  22.014  0.00  0.00     0.095 C 
ATOM     24  C6  SGN d 378      18.035  23.111  19.803  0.00  0.00     0.067 C 
ATOM     25  S1  SGN d 378      17.244  25.607  26.033  0.00  0.00     0.156 S 
ATOM     26  S2  SGN d 378      17.543  25.083  18.324  0.00  0.00     0.251 S 
ATOM     27  O4S SGN d 378      16.330  25.663  17.784  0.00  0.00    -0.572 OA
ATOM     28  C3  SGN d 378      17.305  22.739  23.516  0.00  0.00     0.083 C 
ATOM     29  C5  SGN d 378      18.334  23.162  21.284  0.00  0.00     0.091 C 
ATOM     30  C2  SGN d 378      17.575  24.203  23.820  0.00  0.00     0.081 C 
ATOM     31  C1  SGN d 378      18.753  24.721  23.005  0.00  0.00     0.147 C 
ATOM     32  O3  SGN d 378      16.128  22.373  24.195  0.00  0.00    -0.391 OA
ATOM     33  O3S SGN d 378      15.790  25.497  26.026  0.00  0.00    -0.296 OA
ATOM     34  O4  SGN d 378      17.091  21.181  21.666  0.00  0.00    -0.348 OA
ATOM     35  N   SGN d 378      17.836  24.353  25.237  0.00  0.00    -0.210 NA
ATOM     36  O6  SGN d 378      17.179  24.195  19.536  0.00  0.00    -0.254 OA
ATOM     37  O1  SGN d 378      19.926  24.053  23.401  0.00  0.00    -0.369 OA
ATOM     38  O2S SGN d 378      17.682  26.792  25.296  0.00  0.00    -0.296 OA
ATOM     39  O6S SGN d 378      18.234  24.218  17.376  0.00  0.00    -0.572 OA
ATOM     40  O5S SGN d 378      18.433  26.114  18.846  0.00  0.00    -0.572 OA
ATOM     41  O5  SGN d 378      18.527  24.518  21.628  0.00  0.00    -0.350 OA
ATOM     42  O1S SGN d 378      17.780  25.514  27.392  0.00  0.00    -0.296 OA
ATOM     43  H   SGN d 378      16.236  23.030  21.730  0.00  0.00     0.091 H 
ATOM     44  H   SGN d 378      17.553  22.188  19.554  0.00  0.00     0.080 H 
ATOM     45  H   SGN d 378      18.931  23.170  19.223  0.00  0.00     0.080 H 
ATOM     46  H   SGN d 378      18.117  22.123  23.841  0.00  0.00     0.089 H 
ATOM     47  H   SGN d 378      19.213  22.614  21.552  0.00  0.00     0.090 H 
ATOM     48  H   SGN d 378      16.715  24.778  23.549  0.00  0.00     0.076 H 
ATOM     49  H   SGN d 378      18.862  25.771  23.181  0.00  0.00     0.131 H 
ATOM     50  H   SGN d 378      15.395  22.934  23.899  0.00  0.00     0.210 HD
ATOM     51  H   SGN d 378      15.524  24.706  26.519  0.00  0.00     0.231 HD
ATOM     52  H   SGN d 378      17.473  23.517  25.693  0.00  0.00     0.140 HD
ATOM     53  H   SGN d 378      19.826  23.102  23.242  0.00  0.00     0.212 HD
ATOM     54  H   SGN d 378      18.650  26.844  25.314  0.00  0.00     0.231 HD
ATOM     55  H   SGN d 378      18.746  25.590  27.364  0.00  0.00     0.231 HD
ENDROOT
TORSDOF 16
ENDMDL
MODEL 28
REMARK VINA RESULT:      -5.6      3.372      6.609
REMARK  0 active torsions:
REMARK  status: ('A' for Active; 'I' for Inactive)
REMARK       I    between atoms: C4_5  and  O4_20 
REMARK       I    between atoms: C6_6  and  C5_15 
REMARK       I    between atoms: C6_6  and  O6_25 
REMARK       I    between atoms: S1_7  and  N_21 
REMARK       I    between atoms: S1_7  and  O1S_34 
REMARK       I    between atoms: S1_7  and  O2S_27 
REMARK       I    between atoms: S1_7  and  O3S_19 
REMARK       I    between atoms: C5_8  and  C6_35 
REMARK       I    between atoms: S2_9  and  O6_25 
REMARK       I    between atoms: C1_10  and  O4_20 
REMARK       I    between atoms: C3_14  and  O3_18 
REMARK       I    between atoms: C2_16  and  N_21 
REMARK       I    between atoms: C1_17  and  O1_26 
REMARK       I    between atoms: C2_22  and  O2_29 
REMARK       I    between atoms: S_23  and  O2_29 
REMARK       I    between atoms: C3_30  and  O3_31 
ROOT
ATOM      1  O3S IXD d 379      18.758  24.117  19.548  0.00  0.00    -0.572 OA
ATOM      2  O2S IXD d 379      16.641  25.240  19.193  0.00  0.00    -0.572 OA
ATOM      3  O5  IXD d 379      16.575  21.634  21.871  0.00  0.00    -0.343 OA
ATOM      4  O62 IXD d 379      15.723  19.310  23.392  0.00  0.00    -0.646 OA
ATOM      5  C5  IXD d 379      15.660  20.571  21.490  0.00  0.00     0.127 C 
ATOM      6  C1  IXD d 379      17.780  21.745  21.105  0.00  0.00     0.161 C 
ATOM      7  O1S IXD d 379      17.752  24.104  17.375  0.00  0.00    -0.572 OA
ATOM      8  O61 IXD d 379      13.845  19.320  22.210  0.00  0.00    -0.646 OA
ATOM      9  C2  IXD d 379      17.460  21.628  19.617  0.00  0.00     0.132 C 
ATOM     10  S   IXD d 379      17.462  24.060  18.827  0.00  0.00     0.252 S 
ATOM     11  C4  IXD d 379      15.446  20.367  20.198  0.00  0.00    -0.005 C 
ATOM     12  O2  IXD d 379      16.712  22.768  19.204  0.00  0.00    -0.244 OA
ATOM     13  C3  IXD d 379      16.693  20.330  19.375  0.00  0.00     0.069 C 
ATOM     14  O3  IXD d 379      16.332  20.108  18.027  0.00  0.00    -0.393 OA
ATOM     15  C6  IXD d 379      15.030  19.686  22.433  0.00  0.00     0.203 C 
ATOM     16  H   IXD d 379      15.242  21.104  22.317  0.00  0.00     0.100 H 
ATOM     17  H   IXD d 379      18.319  22.523  21.604  0.00  0.00     0.133 H 
ATOM     18  H   IXD d 379      18.359  21.599  19.038  0.00  0.00     0.097 H 
ATOM     19  H   IXD d 379      14.824  21.156  19.831  0.00  0.00     0.041 H 
ATOM     20  H   IXD d 379      14.986  19.405  20.108  0.00  0.00     0.041 H 
ATOM     21  H   IXD d 379      17.349  19.529  19.647  0.00  0.00     0.087 H 
ATOM     22  H   IXD d 379      15.735  20.814  17.732  0.00  0.00     0.210 HD
ATOM     23  C4  SGN d 378      19.566  20.186  20.788  0.00  0.00     0.095 C 
ATOM     24  C6  SGN d 378      19.436  19.611  23.162  0.00  0.00     0.067 C 
ATOM     25  S1  SGN d 378      23.849  20.972  18.228  0.00  0.00     0.156 S 
ATOM     26  S2  SGN d 378      20.545  17.746  24.430  0.00  0.00     0.251 S 
ATOM     27  O4S SGN d 378      20.595  16.306  24.271  0.00  0.00    -0.572 OA
ATOM     28  C3  SGN d 378      20.336  20.949  19.719  0.00  0.00     0.083 C 
ATOM     29  C5  SGN d 378      20.106  20.531  22.167  0.00  0.00     0.091 C 
ATOM     30  C2  SGN d 378      21.827  20.731  19.912  0.00  0.00     0.081 C 
ATOM     31  C1  SGN d 378      22.249  21.067  21.336  0.00  0.00     0.147 C 
ATOM     32  O3  SGN d 378      20.000  20.491  18.432  0.00  0.00    -0.391 OA
ATOM     33  O3S SGN d 378      23.424  19.868  17.375  0.00  0.00    -0.296 OA
ATOM     34  O4  SGN d 378      18.191  20.513  20.770  0.00  0.00    -0.348 OA
ATOM     35  N   SGN d 378      22.553  21.552  18.964  0.00  0.00    -0.210 NA
ATOM     36  O6  SGN d 378      20.121  18.384  23.088  0.00  0.00    -0.254 OA
ATOM     37  O1  SGN d 378      22.057  22.441  21.570  0.00  0.00    -0.369 OA
ATOM     38  O2S SGN d 378      24.735  20.500  19.291  0.00  0.00    -0.296 OA
ATOM     39  O6S SGN d 378      19.564  18.177  25.418  0.00  0.00    -0.572 OA
ATOM     40  O5S SGN d 378      21.867  18.288  24.724  0.00  0.00    -0.572 OA
ATOM     41  O5  SGN d 378      21.498  20.314  22.262  0.00  0.00    -0.350 OA
ATOM     42  O1S SGN d 378      24.395  22.076  17.438  0.00  0.00    -0.296 OA
ATOM     43  H   SGN d 378      19.689  19.144  20.579  0.00  0.00     0.091 H 
ATOM     44  H   SGN d 378      18.406  19.476  22.907  0.00  0.00     0.080 H 
ATOM     45  H   SGN d 378      19.471  20.017  24.151  0.00  0.00     0.080 H 
ATOM     46  H   SGN d 378      20.084  21.985  19.811  0.00  0.00     0.089 H 
ATOM     47  H   SGN d 378      19.909  21.565  22.356  0.00  0.00     0.090 H 
ATOM     48  H   SGN d 378      22.052  19.699  19.741  0.00  0.00     0.076 H 
ATOM     49  H   SGN d 378      23.283  20.823  21.459  0.00  0.00     0.131 H 
ATOM     50  H   SGN d 378      20.231  19.553  18.353  0.00  0.00     0.210 HD
ATOM     51  H   SGN d 378      22.839  20.204  16.679  0.00  0.00     0.231 HD
ATOM     52  H   SGN d 378      21.891  21.812  18.233  0.00  0.00     0.140 HD
ATOM     53  H   SGN d 378      21.119  22.660  21.458  0.00  0.00     0.212 HD
ATOM     54  H   SGN d 378      25.004  21.249  19.845  0.00  0.00     0.231 HD
ATOM     55  H   SGN d 378      24.668  22.793  18.031  0.00  0.00     0.231 HD
ENDROOT
TORSDOF 16
ENDMDL
MODEL 29
REMARK VINA RESULT:      -4.9      3.440      5.088
REMARK  0 active torsions:
REMARK  status: ('A' for Active; 'I' for Inactive)
REMARK       I    between atoms: C4_5  and  O4_20 
REMARK       I    between atoms: C6_6  and  C5_15 
REMARK       I    between atoms: C6_6  and  O6_25 
REMARK       I    between atoms: S1_7  and  N_21 
REMARK       I    between atoms: S1_7  and  O1S_34 
REMARK       I    between atoms: S1_7  and  O2S_27 
REMARK       I    between atoms: S1_7  and  O3S_19 
REMARK       I    between atoms: C5_8  and  C6_35 
REMARK       I    between atoms: S2_9  and  O6_25 
REMARK       I    between atoms: C1_10  and  O4_20 
REMARK       I    between atoms: C3_14  and  O3_18 
REMARK       I    between atoms: C2_16  and  N_21 
REMARK       I    between atoms: C1_17  and  O1_26 
REMARK       I    between atoms: C2_22  and  O2_29 
REMARK       I    between atoms: S_23  and  O2_29 
REMARK       I    between atoms: C3_30  and  O3_31 
ROOT
ATOM      1  O3S IXD d 379      16.716  18.006  18.470  0.00  0.00    -0.572 OA
ATOM      2  O2S IXD d 379      14.758  16.882  17.588  0.00  0.00    -0.572 OA
ATOM      3  O5  IXD d 379      14.712  21.373  17.484  0.00  0.00    -0.343 OA
ATOM      4  O62 IXD d 379      13.857  24.147  17.375  0.00  0.00    -0.646 OA
ATOM      5  C5  IXD d 379      13.593  22.017  18.152  0.00  0.00     0.127 C 
ATOM      6  C1  IXD d 379      15.739  20.839  18.328  0.00  0.00     0.161 C 
ATOM      7  O1S IXD d 379      15.297  16.754  19.938  0.00  0.00    -0.572 OA
ATOM      8  O61 IXD d 379      11.799  23.451  17.831  0.00  0.00    -0.646 OA
ATOM      9  C2  IXD d 379      15.109  20.071  19.487  0.00  0.00     0.132 C 
ATOM     10  S   IXD d 379      15.305  17.632  18.745  0.00  0.00     0.252 S 
ATOM     11  C4  IXD d 379      13.092  21.433  19.232  0.00  0.00    -0.005 C 
ATOM     12  O2  IXD d 379      14.468  18.902  18.986  0.00  0.00    -0.244 OA
ATOM     13  C3  IXD d 379      14.127  20.987  20.215  0.00  0.00     0.069 C 
ATOM     14  O3  IXD d 379      13.471  20.385  21.312  0.00  0.00    -0.393 OA
ATOM     15  C6  IXD d 379      13.045  23.284  17.747  0.00  0.00     0.203 C 
ATOM     16  H   IXD d 379      13.434  22.062  17.096  0.00  0.00     0.100 H 
ATOM     17  H   IXD d 379      16.476  20.496  17.633  0.00  0.00     0.133 H 
ATOM     18  H   IXD d 379      15.857  19.760  20.185  0.00  0.00     0.097 H 
ATOM     19  H   IXD d 379      12.531  20.577  18.922  0.00  0.00     0.041 H 
ATOM     20  H   IXD d 379      12.488  22.163  19.727  0.00  0.00     0.041 H 
ATOM     21  H   IXD d 379      14.701  21.798  20.613  0.00  0.00     0.087 H 
ATOM     22  H   IXD d 379      12.936  19.639  20.998  0.00  0.00     0.210 HD
ATOM     23  C4  SGN d 378      17.175  21.927  19.902  0.00  0.00     0.095 C 
ATOM     24  C6  SGN d 378      17.449  23.773  18.319  0.00  0.00     0.067 C 
ATOM     25  S1  SGN d 378      20.914  19.807  22.553  0.00  0.00     0.156 S 
ATOM     26  S2  SGN d 378      18.507  26.029  18.645  0.00  0.00     0.251 S 
ATOM     27  O4S SGN d 378      18.312  27.110  19.591  0.00  0.00    -0.572 OA
ATOM     28  C3  SGN d 378      17.814  20.687  20.509  0.00  0.00     0.083 C 
ATOM     29  C5  SGN d 378      18.028  22.447  18.756  0.00  0.00     0.091 C 
ATOM     30  C2  SGN d 378      19.265  20.978  20.853  0.00  0.00     0.081 C 
ATOM     31  C1  SGN d 378      20.012  21.531  19.648  0.00  0.00     0.147 C 
ATOM     32  O3  SGN d 378      17.160  20.313  21.697  0.00  0.00    -0.391 OA
ATOM     33  O3S SGN d 378      20.168  20.211  23.739  0.00  0.00    -0.296 OA
ATOM     34  O4  SGN d 378      15.888  21.649  19.387  0.00  0.00    -0.348 OA
ATOM     35  N   SGN d 378      19.895  19.760  21.322  0.00  0.00    -0.210 NA
ATOM     36  O6  SGN d 378      17.917  24.730  19.238  0.00  0.00    -0.254 OA
ATOM     37  O1  SGN d 378      20.076  20.548  18.644  0.00  0.00    -0.369 OA
ATOM     38  O2S SGN d 378      21.919  20.809  22.202  0.00  0.00    -0.296 OA
ATOM     39  O6S SGN d 378      17.822  26.250  17.378  0.00  0.00    -0.572 OA
ATOM     40  O5S SGN d 378      19.926  25.759  18.440  0.00  0.00    -0.572 OA
ATOM     41  O5  SGN d 378      19.364  22.681  19.152  0.00  0.00    -0.350 OA
ATOM     42  O1S SGN d 378      21.444  18.450  22.693  0.00  0.00    -0.296 OA
ATOM     43  H   SGN d 378      17.098  22.655  20.682  0.00  0.00     0.091 H 
ATOM     44  H   SGN d 378      16.379  23.734  18.337  0.00  0.00     0.080 H 
ATOM     45  H   SGN d 378      17.743  24.016  17.320  0.00  0.00     0.080 H 
ATOM     46  H   SGN d 378      17.741  19.896  19.792  0.00  0.00     0.089 H 
ATOM     47  H   SGN d 378      18.028  21.714  17.977  0.00  0.00     0.090 H 
ATOM     48  H   SGN d 378      19.297  21.719  21.624  0.00  0.00     0.076 H 
ATOM     49  H   SGN d 378      21.003  21.802  19.947  0.00  0.00     0.131 H 
ATOM     50  H   SGN d 378      17.230  21.031  22.344  0.00  0.00     0.210 HD
ATOM     51  H   SGN d 378      19.509  19.533  23.952  0.00  0.00     0.231 HD
ATOM     52  H   SGN d 378      19.143  19.124  21.587  0.00  0.00     0.140 HD
ATOM     53  H   SGN d 378      19.177  20.303  18.374  0.00  0.00     0.212 HD
ATOM     54  H   SGN d 378      22.403  20.520  21.412  0.00  0.00     0.231 HD
ATOM     55  H   SGN d 378      21.934  18.211  21.891  0.00  0.00     0.231 HD
ENDROOT
TORSDOF 16
ENDMDL
MODEL 30
REMARK VINA RESULT:      -4.9      2.460      3.223
REMARK  0 active torsions:
REMARK  status: ('A' for Active; 'I' for Inactive)
REMARK       I    between atoms: C4_5  and  O4_20 
REMARK       I    between atoms: C6_6  and  C5_15 
REMARK       I    between atoms: C6_6  and  O6_25 
REMARK       I    between atoms: S1_7  and  N_21 
REMARK       I    between atoms: S1_7  and  O1S_34 
REMARK       I    between atoms: S1_7  and  O2S_27 
REMARK       I    between atoms: S1_7  and  O3S_19 
REMARK       I    between atoms: C5_8  and  C6_35 
REMARK       I    between atoms: S2_9  and  O6_25 
REMARK       I    between atoms: C1_10  and  O4_20 
REMARK       I    between atoms: C3_14  and  O3_18 
REMARK       I    between atoms: C2_16  and  N_21 
REMARK       I    between atoms: C1_17  and  O1_26 
REMARK       I    between atoms: C2_22  and  O2_29 
REMARK       I    between atoms: S_23  and  O2_29 
REMARK       I    between atoms: C3_30  and  O3_31 
ROOT
ATOM      1  O3S IXD d 379      15.487  16.875  20.245  0.00  0.00    -0.572 OA
ATOM      2  O2S IXD d 379      15.076  16.487  17.889  0.00  0.00    -0.572 OA
ATOM      3  O5  IXD d 379      16.457  20.606  19.032  0.00  0.00    -0.343 OA
ATOM      4  O62 IXD d 379      16.994  23.461  19.039  0.00  0.00    -0.646 OA
ATOM      5  C5  IXD d 379      15.594  21.705  18.629  0.00  0.00     0.127 C 
ATOM      6  C1  IXD d 379      16.017  19.827  20.152  0.00  0.00     0.161 C 
ATOM      7  O1S IXD d 379      13.259  16.450  19.478  0.00  0.00    -0.572 OA
ATOM      8  O61 IXD d 379      15.521  23.665  17.391  0.00  0.00    -0.646 OA
ATOM      9  C2  IXD d 379      14.532  19.505  20.008  0.00  0.00     0.132 C 
ATOM     10  S   IXD d 379      14.539  17.106  19.125  0.00  0.00     0.252 S 
ATOM     11  C4  IXD d 379      14.286  21.492  18.602  0.00  0.00    -0.005 C 
ATOM     12  O2  IXD d 379      14.346  18.618  18.909  0.00  0.00    -0.244 OA
ATOM     13  C3  IXD d 379      13.758  20.808  19.822  0.00  0.00     0.069 C 
ATOM     14  O3  IXD d 379      12.363  20.641  19.670  0.00  0.00    -0.393 OA
ATOM     15  C6  IXD d 379      16.077  23.025  18.324  0.00  0.00     0.203 C 
ATOM     16  H   IXD d 379      16.443  21.677  17.979  0.00  0.00     0.100 H 
ATOM     17  H   IXD d 379      16.827  19.147  20.312  0.00  0.00     0.133 H 
ATOM     18  H   IXD d 379      14.164  19.019  20.887  0.00  0.00     0.097 H 
ATOM     19  H   IXD d 379      14.061  20.884  17.751  0.00  0.00     0.041 H 
ATOM     20  H   IXD d 379      13.817  22.452  18.556  0.00  0.00     0.041 H 
ATOM     21  H   IXD d 379      13.898  21.381  20.715  0.00  0.00     0.087 H 
ATOM     22  H   IXD d 379      12.184  20.124  18.869  0.00  0.00     0.210 HD
ATOM     23  C4  SGN d 378      15.603  20.467  22.419  0.00  0.00     0.095 C 
ATOM     24  C6  SGN d 378      17.613  21.861  22.354  0.00  0.00     0.067 C 
ATOM     25  S1  SGN d 378      14.315  17.419  26.235  0.00  0.00     0.156 S 
ATOM     26  S2  SGN d 378      18.446  23.563  24.005  0.00  0.00     0.251 S 
ATOM     27  O4S SGN d 378      17.868  24.743  24.618  0.00  0.00    -0.572 OA
ATOM     28  C3  SGN d 378      14.995  19.160  22.908  0.00  0.00     0.083 C 
ATOM     29  C5  SGN d 378      17.100  20.478  22.685  0.00  0.00     0.091 C 
ATOM     30  C2  SGN d 378      15.405  18.914  24.349  0.00  0.00     0.081 C 
ATOM     31  C1  SGN d 378      16.918  18.989  24.507  0.00  0.00     0.147 C 
ATOM     32  O3  SGN d 378      13.589  19.212  22.867  0.00  0.00    -0.391 OA
ATOM     33  O3S SGN d 378      13.099  18.219  26.331  0.00  0.00    -0.296 OA
ATOM     34  O4  SGN d 378      15.412  20.641  21.029  0.00  0.00    -0.348 OA
ATOM     35  N   SGN d 378      14.918  17.616  24.767  0.00  0.00    -0.210 NA
ATOM     36  O6  SGN d 378      17.306  22.670  23.463  0.00  0.00    -0.254 OA
ATOM     37  O1  SGN d 378      17.517  17.942  23.783  0.00  0.00    -0.369 OA
ATOM     38  O2S SGN d 378      15.338  17.910  27.157  0.00  0.00    -0.296 OA
ATOM     39  O6S SGN d 378      19.301  23.873  22.867  0.00  0.00    -0.572 OA
ATOM     40  O5S SGN d 378      19.149  22.749  24.990  0.00  0.00    -0.572 OA
ATOM     41  O5  SGN d 378      17.401  20.230  24.042  0.00  0.00    -0.350 OA
ATOM     42  O1S SGN d 378      14.025  15.990  26.366  0.00  0.00    -0.296 OA
ATOM     43  H   SGN d 378      15.115  21.258  22.949  0.00  0.00     0.091 H 
ATOM     44  H   SGN d 378      17.129  22.235  21.476  0.00  0.00     0.080 H 
ATOM     45  H   SGN d 378      18.665  21.849  22.159  0.00  0.00     0.080 H 
ATOM     46  H   SGN d 378      15.346  18.377  22.269  0.00  0.00     0.089 H 
ATOM     47  H   SGN d 378      17.552  19.712  22.090  0.00  0.00     0.090 H 
ATOM     48  H   SGN d 378      14.976  19.675  24.967  0.00  0.00     0.076 H 
ATOM     49  H   SGN d 378      17.165  18.895  25.544  0.00  0.00     0.131 H 
ATOM     50  H   SGN d 378      13.275  19.922  23.447  0.00  0.00     0.210 HD
ATOM     51  H   SGN d 378      12.437  17.875  25.712  0.00  0.00     0.231 HD
ATOM     52  H   SGN d 378      14.185  17.352  24.109  0.00  0.00     0.140 HD
ATOM     53  H   SGN d 378      17.292  18.028  22.844  0.00  0.00     0.212 HD
ATOM     54  H   SGN d 378      16.136  17.365  27.075  0.00  0.00     0.231 HD
ATOM     55  H   SGN d 378      14.851  15.486  26.298  0.00  0.00     0.231 HD
ENDROOT
TORSDOF 16
ENDMDL
MODEL 31
REMARK VINA RESULT:      -4.9      3.770      6.563
REMARK  0 active torsions:
REMARK  status: ('A' for Active; 'I' for Inactive)
REMARK       I    between atoms: C4_5  and  O4_20 
REMARK       I    between atoms: C6_6  and  C5_15 
REMARK       I    between atoms: C6_6  and  O6_25 
REMARK       I    between atoms: S1_7  and  N_21 
REMARK       I    between atoms: S1_7  and  O1S_34 
REMARK       I    between atoms: S1_7  and  O2S_27 
REMARK       I    between atoms: S1_7  and  O3S_19 
REMARK       I    between atoms: C5_8  and  C6_35 
REMARK       I    between atoms: S2_9  and  O6_25 
REMARK       I    between atoms: C1_10  and  O4_20 
REMARK       I    between atoms: C3_14  and  O3_18 
REMARK       I    between atoms: C2_16  and  N_21 
REMARK       I    between atoms: C1_17  and  O1_26 
REMARK       I    between atoms: C2_22  and  O2_29 
REMARK       I    between atoms: S_23  and  O2_29 
REMARK       I    between atoms: C3_30  and  O3_31 
ROOT
ATOM      1  O3S IXD d 379      18.116  18.357  24.099  0.00  0.00    -0.572 OA
ATOM      2  O2S IXD d 379      15.798  18.701  24.719  0.00  0.00    -0.572 OA
ATOM      3  O5  IXD d 379      17.581  21.693  21.882  0.00  0.00    -0.343 OA
ATOM      4  O62 IXD d 379      18.106  24.097  20.338  0.00  0.00    -0.646 OA
ATOM      5  C5  IXD d 379      17.520  23.085  22.298  0.00  0.00     0.127 C 
ATOM      6  C1  IXD d 379      18.564  20.876  22.530  0.00  0.00     0.161 C 
ATOM      7  O1S IXD d 379      17.557  18.924  26.358  0.00  0.00    -0.572 OA
ATOM      8  O61 IXD d 379      16.728  25.181  21.700  0.00  0.00    -0.646 OA
ATOM      9  C2  IXD d 379      18.540  21.132  24.035  0.00  0.00     0.132 C 
ATOM     10  S   IXD d 379      17.192  19.158  24.941  0.00  0.00     0.252 S 
ATOM     11  C4  IXD d 379      17.611  23.352  23.594  0.00  0.00    -0.005 C 
ATOM     12  O2  IXD d 379      17.314  20.650  24.576  0.00  0.00    -0.244 OA
ATOM     13  C3  IXD d 379      18.721  22.627  24.286  0.00  0.00     0.069 C 
ATOM     14  O3  IXD d 379      18.710  22.995  25.650  0.00  0.00    -0.393 OA
ATOM     15  C6  IXD d 379      17.435  24.188  21.379  0.00  0.00     0.203 C 
ATOM     16  H   IXD d 379      16.780  22.918  21.545  0.00  0.00     0.100 H 
ATOM     17  H   IXD d 379      18.481  19.939  22.020  0.00  0.00     0.133 H 
ATOM     18  H   IXD d 379      19.339  20.612  24.519  0.00  0.00     0.097 H 
ATOM     19  H   IXD d 379      16.688  23.078  24.059  0.00  0.00     0.041 H 
ATOM     20  H   IXD d 379      17.821  24.397  23.680  0.00  0.00     0.041 H 
ATOM     21  H   IXD d 379      19.688  22.889  23.910  0.00  0.00     0.087 H 
ATOM     22  H   IXD d 379      17.848  22.776  26.038  0.00  0.00     0.210 HD
ATOM     23  C4  SGN d 378      20.947  21.067  22.589  0.00  0.00     0.095 C 
ATOM     24  C6  SGN d 378      20.923  21.651  20.214  0.00  0.00     0.067 C 
ATOM     25  S1  SGN d 378      24.188  17.850  24.748  0.00  0.00     0.156 S 
ATOM     26  S2  SGN d 378      22.772  22.520  18.750  0.00  0.00     0.251 S 
ATOM     27  O4S SGN d 378      23.679  23.647  18.831  0.00  0.00    -0.572 OA
ATOM     28  C3  SGN d 378      21.229  19.977  23.614  0.00  0.00     0.083 C 
ATOM     29  C5  SGN d 378      21.024  20.495  21.183  0.00  0.00     0.091 C 
ATOM     30  C2  SGN d 378      22.529  19.273  23.263  0.00  0.00     0.081 C 
ATOM     31  C1  SGN d 378      22.512  18.779  21.823  0.00  0.00     0.147 C 
ATOM     32  O3  SGN d 378      21.372  20.521  24.903  0.00  0.00    -0.391 OA
ATOM     33  O3S SGN d 378      24.594  18.975  25.582  0.00  0.00    -0.296 OA
ATOM     34  O4  SGN d 378      19.656  21.618  22.760  0.00  0.00    -0.348 OA
ATOM     35  N   SGN d 378      22.728  18.164  24.174  0.00  0.00    -0.210 NA
ATOM     36  O6  SGN d 378      22.203  22.232  20.158  0.00  0.00    -0.254 OA
ATOM     37  O1  SGN d 378      21.522  17.790  21.679  0.00  0.00    -0.369 OA
ATOM     38  O2S SGN d 378      25.058  17.725  23.580  0.00  0.00    -0.296 OA
ATOM     39  O6S SGN d 378      21.625  22.772  17.888  0.00  0.00    -0.572 OA
ATOM     40  O5S SGN d 378      23.476  21.305  18.354  0.00  0.00    -0.572 OA
ATOM     41  O5  SGN d 378      22.255  19.848  20.939  0.00  0.00    -0.350 OA
ATOM     42  O1S SGN d 378      24.059  16.623  25.534  0.00  0.00    -0.296 OA
ATOM     43  H   SGN d 378      21.683  21.830  22.733  0.00  0.00     0.091 H 
ATOM     44  H   SGN d 378      20.206  22.365  20.563  0.00  0.00     0.080 H 
ATOM     45  H   SGN d 378      20.602  21.322  19.248  0.00  0.00     0.080 H 
ATOM     46  H   SGN d 378      20.406  19.294  23.599  0.00  0.00     0.089 H 
ATOM     47  H   SGN d 378      20.235  19.782  21.067  0.00  0.00     0.090 H 
ATOM     48  H   SGN d 378      23.337  19.967  23.359  0.00  0.00     0.076 H 
ATOM     49  H   SGN d 378      23.469  18.364  21.586  0.00  0.00     0.131 H 
ATOM     50  H   SGN d 378      22.120  21.139  24.912  0.00  0.00     0.210 HD
ATOM     51  H   SGN d 378      24.003  19.039  26.349  0.00  0.00     0.231 HD
ATOM     52  H   SGN d 378      22.126  18.334  24.980  0.00  0.00     0.140 HD
ATOM     53  H   SGN d 378      20.654  18.168  21.894  0.00  0.00     0.212 HD
ATOM     54  H   SGN d 378      24.770  16.972  23.041  0.00  0.00     0.231 HD
ATOM     55  H   SGN d 378      23.788  15.895  24.954  0.00  0.00     0.231 HD
ENDROOT
TORSDOF 16
ENDMDL
MODEL 32
REMARK VINA RESULT:      -4.9      2.836      5.005
REMARK  0 active torsions:
REMARK  status: ('A' for Active; 'I' for Inactive)
REMARK       I    between atoms: C4_5  and  O4_20 
REMARK       I    between atoms: C6_6  and  C5_15 
REMARK       I    between atoms: C6_6  and  O6_25 
REMARK       I    between atoms: S1_7  and  N_21 
REMARK       I    between atoms: S1_7  and  O1S_34 
REMARK       I    between atoms: S1_7  and  O2S_27 
REMARK       I    between atoms: S1_7  and  O3S_19 
REMARK       I    between atoms: C5_8  and  C6_35 
REMARK       I    between atoms: S2_9  and  O6_25 
REMARK       I    between atoms: C1_10  and  O4_20 
REMARK       I    between atoms: C3_14  and  O3_18 
REMARK       I    between atoms: C2_16  and  N_21 
REMARK       I    between atoms: C1_17  and  O1_26 
REMARK       I    between atoms: C2_22  and  O2_29 
REMARK       I    between atoms: S_23  and  O2_29 
REMARK       I    between atoms: C3_30  and  O3_31 
ROOT
ATOM      1  O3S IXD d 379      20.294  19.600  24.011  0.00  0.00    -0.572 OA
ATOM      2  O2S IXD d 379      22.660  19.095  24.147  0.00  0.00    -0.572 OA
ATOM      3  O5  IXD d 379      21.338  21.589  20.653  0.00  0.00    -0.343 OA
ATOM      4  O62 IXD d 379      21.200  22.915  18.072  0.00  0.00    -0.646 OA
ATOM      5  C5  IXD d 379      21.675  21.074  19.336  0.00  0.00     0.127 C 
ATOM      6  C1  IXD d 379      20.251  20.947  21.330  0.00  0.00     0.161 C 
ATOM      7  O1S IXD d 379      21.048  17.342  23.748  0.00  0.00    -0.572 OA
ATOM      8  O61 IXD d 379      22.814  21.560  17.375  0.00  0.00    -0.646 OA
ATOM      9  C2  IXD d 379      20.389  19.431  21.210  0.00  0.00     0.132 C 
ATOM     10  S   IXD d 379      21.387  18.756  23.465  0.00  0.00     0.252 S 
ATOM     11  C4  IXD d 379      21.693  19.760  19.167  0.00  0.00    -0.005 C 
ATOM     12  O2  IXD d 379      21.527  19.001  21.951  0.00  0.00    -0.244 OA
ATOM     13  C3  IXD d 379      20.500  19.059  19.734  0.00  0.00     0.069 C 
ATOM     14  O3  IXD d 379      20.639  17.674  19.491  0.00  0.00    -0.393 OA
ATOM     15  C6  IXD d 379      21.922  21.912  18.193  0.00  0.00     0.203 C 
ATOM     16  H   IXD d 379      22.337  21.881  19.570  0.00  0.00     0.100 H 
ATOM     17  H   IXD d 379      20.136  21.530  22.220  0.00  0.00     0.133 H 
ATOM     18  H   IXD d 379      19.530  18.940  21.616  0.00  0.00     0.097 H 
ATOM     19  H   IXD d 379      22.570  19.371  19.642  0.00  0.00     0.041 H 
ATOM     20  H   IXD d 379      21.685  19.583  18.112  0.00  0.00     0.041 H 
ATOM     21  H   IXD d 379      19.583  19.356  19.271  0.00  0.00     0.087 H 
ATOM     22  H   IXD d 379      21.462  17.356  19.895  0.00  0.00     0.210 HD
ATOM     23  C4  SGN d 378      17.950  20.732  20.715  0.00  0.00     0.095 C 
ATOM     24  C6  SGN d 378      17.976  23.055  19.948  0.00  0.00     0.067 C 
ATOM     25  S1  SGN d 378      14.268  18.631  23.462  0.00  0.00     0.156 S 
ATOM     26  S2  SGN d 378      16.257  24.337  18.637  0.00  0.00     0.251 S 
ATOM     27  O4S SGN d 378      15.579  24.118  17.375  0.00  0.00    -0.572 OA
ATOM     28  C3  SGN d 378      17.516  19.777  21.819  0.00  0.00     0.083 C 
ATOM     29  C5  SGN d 378      17.706  22.170  21.143  0.00  0.00     0.091 C 
ATOM     30  C2  SGN d 378      16.095  20.101  22.244  0.00  0.00     0.081 C 
ATOM     31  C1  SGN d 378      15.955  21.573  22.609  0.00  0.00     0.147 C 
ATOM     32  O3  SGN d 378      17.534  18.444  21.369  0.00  0.00    -0.391 OA
ATOM     33  O3S SGN d 378      14.115  17.693  22.356  0.00  0.00    -0.296 OA
ATOM     34  O4  SGN d 378      19.327  20.598  20.424  0.00  0.00    -0.348 OA
ATOM     35  N   SGN d 378      15.734  19.265  23.371  0.00  0.00    -0.210 NA
ATOM     36  O6  SGN d 378      16.825  22.991  19.142  0.00  0.00    -0.254 OA
ATOM     37  O1  SGN d 378      16.737  21.850  23.745  0.00  0.00    -0.369 OA
ATOM     38  O2S SGN d 378      13.339  19.752  23.329  0.00  0.00    -0.296 OA
ATOM     39  O6S SGN d 378      17.391  25.245  18.526  0.00  0.00    -0.572 OA
ATOM     40  O5S SGN d 378      15.323  24.780  19.667  0.00  0.00    -0.572 OA
ATOM     41  O5  SGN d 378      16.366  22.388  21.534  0.00  0.00    -0.350 OA
ATOM     42  O1S SGN d 378      14.202  17.948  24.755  0.00  0.00    -0.296 OA
ATOM     43  H   SGN d 378      17.375  20.489  19.847  0.00  0.00     0.091 H 
ATOM     44  H   SGN d 378      18.828  22.697  19.407  0.00  0.00     0.080 H 
ATOM     45  H   SGN d 378      18.187  24.060  20.247  0.00  0.00     0.080 H 
ATOM     46  H   SGN d 378      18.197  19.892  22.637  0.00  0.00     0.089 H 
ATOM     47  H   SGN d 378      18.343  22.386  21.975  0.00  0.00     0.090 H 
ATOM     48  H   SGN d 378      15.434  19.906  21.425  0.00  0.00     0.076 H 
ATOM     49  H   SGN d 378      14.928  21.783  22.822  0.00  0.00     0.131 H 
ATOM     50  H   SGN d 378      16.915  18.345  20.629  0.00  0.00     0.210 HD
ATOM     51  H   SGN d 378      14.741  16.960  22.466  0.00  0.00     0.231 HD
ATOM     52  H   SGN d 378      16.392  18.487  23.382  0.00  0.00     0.140 HD
ATOM     53  H   SGN d 378      17.668  21.658  23.551  0.00  0.00     0.212 HD
ATOM     54  H   SGN d 378      13.458  20.362  24.073  0.00  0.00     0.231 HD
ATOM     55  H   SGN d 378      14.307  18.596  25.468  0.00  0.00     0.231 HD
ENDROOT
TORSDOF 16
ENDMDL
MODEL 33
REMARK VINA RESULT:      -4.8      2.977      5.150
REMARK  0 active torsions:
REMARK  status: ('A' for Active; 'I' for Inactive)
REMARK       I    between atoms: C4_5  and  O4_20 
REMARK       I    between atoms: C6_6  and  C5_15 
REMARK       I    between atoms: C6_6  and  O6_25 
REMARK       I    between atoms: S1_7  and  N_21 
REMARK       I    between atoms: S1_7  and  O1S_34 
REMARK       I    between atoms: S1_7  and  O2S_27 
REMARK       I    between atoms: S1_7  and  O3S_19 
REMARK       I    between atoms: C5_8  and  C6_35 
REMARK       I    between atoms: S2_9  and  O6_25 
REMARK       I    between atoms: C1_10  and  O4_20 
REMARK       I    between atoms: C3_14  and  O3_18 
REMARK       I    between atoms: C2_16  and  N_21 
REMARK       I    between atoms: C1_17  and  O1_26 
REMARK       I    between atoms: C2_22  and  O2_29 
REMARK       I    between atoms: S_23  and  O2_29 
REMARK       I    between atoms: C3_30  and  O3_31 
ROOT
ATOM      1  O3S IXD d 379      19.943  19.567  24.162  0.00  0.00    -0.572 OA
ATOM      2  O2S IXD d 379      22.199  18.896  24.737  0.00  0.00    -0.572 OA
ATOM      3  O5  IXD d 379      21.784  21.917  21.438  0.00  0.00    -0.343 OA
ATOM      4  O62 IXD d 379      22.276  23.583  19.110  0.00  0.00    -0.646 OA
ATOM      5  C5  IXD d 379      22.391  21.563  20.166  0.00  0.00     0.127 C 
ATOM      6  C1  IXD d 379      20.551  21.262  21.761  0.00  0.00     0.161 C 
ATOM      7  O1S IXD d 379      20.661  17.321  23.745  0.00  0.00    -0.572 OA
ATOM      8  O61 IXD d 379      23.959  22.232  18.593  0.00  0.00    -0.646 OA
ATOM      9  C2  IXD d 379      20.661  19.770  21.455  0.00  0.00     0.132 C 
ATOM     10  S   IXD d 379      21.102  18.735  23.751  0.00  0.00     0.252 S 
ATOM     11  C4  IXD d 379      22.403  20.284  19.816  0.00  0.00    -0.005 C 
ATOM     12  O2  IXD d 379      21.588  19.171  22.356  0.00  0.00    -0.244 OA
ATOM     13  C3  IXD d 379      21.090  19.592  20.001  0.00  0.00     0.069 C 
ATOM     14  O3  IXD d 379      21.234  18.246  19.595  0.00  0.00    -0.393 OA
ATOM     15  C6  IXD d 379      22.918  22.528  19.239  0.00  0.00     0.203 C 
ATOM     16  H   IXD d 379      23.010  22.285  20.654  0.00  0.00     0.100 H 
ATOM     17  H   IXD d 379      20.258  21.726  22.679  0.00  0.00     0.133 H 
ATOM     18  H   IXD d 379      19.717  19.286  21.587  0.00  0.00     0.097 H 
ATOM     19  H   IXD d 379      23.136  19.779  20.409  0.00  0.00     0.041 H 
ATOM     20  H   IXD d 379      22.627  20.251  18.770  0.00  0.00     0.041 H 
ATOM     21  H   IXD d 379      20.311  20.009  19.396  0.00  0.00     0.087 H 
ATOM     22  H   IXD d 379      21.934  17.824  20.119  0.00  0.00     0.210 HD
ATOM     23  C4  SGN d 378      18.441  21.281  20.634  0.00  0.00     0.095 C 
ATOM     24  C6  SGN d 378      18.718  23.679  20.236  0.00  0.00     0.067 C 
ATOM     25  S1  SGN d 378      14.167  19.075  22.175  0.00  0.00     0.156 S 
ATOM     26  S2  SGN d 378      17.382  25.235  18.782  0.00  0.00     0.251 S 
ATOM     27  O4S SGN d 378      17.000  25.232  17.384  0.00  0.00    -0.572 OA
ATOM     28  C3  SGN d 378      17.739  20.217  21.465  0.00  0.00     0.083 C 
ATOM     29  C5  SGN d 378      18.156  22.662  21.202  0.00  0.00     0.091 C 
ATOM     30  C2  SGN d 378      16.270  20.573  21.612  0.00  0.00     0.081 C 
ATOM     31  C1  SGN d 378      16.101  21.989  22.147  0.00  0.00     0.147 C 
ATOM     32  O3  SGN d 378      17.813  18.959  20.841  0.00  0.00    -0.391 OA
ATOM     33  O3S SGN d 378      14.237  18.305  20.938  0.00  0.00    -0.296 OA
ATOM     34  O4  SGN d 378      19.843  21.098  20.634  0.00  0.00    -0.348 OA
ATOM     35  N   SGN d 378      15.636  19.619  22.499  0.00  0.00    -0.210 NA
ATOM     36  O6  SGN d 378      17.776  23.799  19.197  0.00  0.00    -0.254 OA
ATOM     37  O1  SGN d 378      16.615  22.059  23.455  0.00  0.00    -0.369 OA
ATOM     38  O2S SGN d 378      13.330  20.261  22.006  0.00  0.00    -0.296 OA
ATOM     39  O6S SGN d 378      18.542  26.073  19.054  0.00  0.00    -0.572 OA
ATOM     40  O5S SGN d 378      16.256  25.595  19.636  0.00  0.00    -0.572 OA
ATOM     41  O5  SGN d 378      16.771  22.912  21.319  0.00  0.00    -0.350 OA
ATOM     42  O1S SGN d 378      13.789  18.230  23.308  0.00  0.00    -0.296 OA
ATOM     43  H   SGN d 378      18.069  21.194  19.634  0.00  0.00     0.091 H 
ATOM     44  H   SGN d 378      19.657  23.342  19.848  0.00  0.00     0.080 H 
ATOM     45  H   SGN d 378      18.890  24.619  20.717  0.00  0.00     0.080 H 
ATOM     46  H   SGN d 378      18.221  20.176  22.420  0.00  0.00     0.089 H 
ATOM     47  H   SGN d 378      18.596  22.722  22.175  0.00  0.00     0.090 H 
ATOM     48  H   SGN d 378      15.805  20.533  20.649  0.00  0.00     0.076 H 
ATOM     49  H   SGN d 378      15.060  22.234  22.159  0.00  0.00     0.131 H 
ATOM     50  H   SGN d 378      17.374  19.000  19.977  0.00  0.00     0.210 HD
ATOM     51  H   SGN d 378      14.796  17.525  21.074  0.00  0.00     0.231 HD
ATOM     52  H   SGN d 378      16.249  18.805  22.540  0.00  0.00     0.140 HD
ATOM     53  H   SGN d 378      17.559  21.835  23.443  0.00  0.00     0.212 HD
ATOM     54  H   SGN d 378      13.298  20.757  22.838  0.00  0.00     0.231 HD
ATOM     55  H   SGN d 378      13.751  18.769  24.114  0.00  0.00     0.231 HD
ENDROOT
TORSDOF 16
ENDMDL
MODEL 34
REMARK VINA RESULT:      -4.7      2.797      6.680
REMARK  0 active torsions:
REMARK  status: ('A' for Active; 'I' for Inactive)
REMARK       I    between atoms: C4_5  and  O4_20 
REMARK       I    between atoms: C6_6  and  C5_15 
REMARK       I    between atoms: C6_6  and  O6_25 
REMARK       I    between atoms: S1_7  and  N_21 
REMARK       I    between atoms: S1_7  and  O1S_34 
REMARK       I    between atoms: S1_7  and  O2S_27 
REMARK       I    between atoms: S1_7  and  O3S_19 
REMARK       I    between atoms: C5_8  and  C6_35 
REMARK       I    between atoms: S2_9  and  O6_25 
REMARK       I    between atoms: C1_10  and  O4_20 
REMARK       I    between atoms: C3_14  and  O3_18 
REMARK       I    between atoms: C2_16  and  N_21 
REMARK       I    between atoms: C1_17  and  O1_26 
REMARK       I    between atoms: C2_22  and  O2_29 
REMARK       I    between atoms: S_23  and  O2_29 
REMARK       I    between atoms: C3_30  and  O3_31 
ROOT
ATOM      1  O3S IXD d 379      18.201  23.401  24.664  0.00  0.00    -0.572 OA
ATOM      2  O2S IXD d 379      19.588  25.148  25.609  0.00  0.00    -0.572 OA
ATOM      3  O5  IXD d 379      21.291  22.908  22.108  0.00  0.00    -0.343 OA
ATOM      4  O62 IXD d 379      23.110  21.744  20.165  0.00  0.00    -0.646 OA
ATOM      5  C5  IXD d 379      22.580  22.271  22.322  0.00  0.00     0.127 C 
ATOM      6  C1  IXD d 379      20.154  22.260  22.693  0.00  0.00     0.161 C 
ATOM      7  O1S IXD d 379      19.081  23.158  26.878  0.00  0.00    -0.572 OA
ATOM      8  O61 IXD d 379      24.772  22.188  21.568  0.00  0.00    -0.646 OA
ATOM      9  C2  IXD d 379      20.475  21.845  24.127  0.00  0.00     0.132 C 
ATOM     10  S   IXD d 379      19.377  23.683  25.525  0.00  0.00     0.252 S 
ATOM     11  C4  IXD d 379      22.848  21.796  23.531  0.00  0.00    -0.005 C 
ATOM     12  O2  IXD d 379      20.630  23.010  24.932  0.00  0.00    -0.244 OA
ATOM     13  C3  IXD d 379      21.738  20.987  24.124  0.00  0.00     0.069 C 
ATOM     14  O3  IXD d 379      22.144  20.543  25.402  0.00  0.00    -0.393 OA
ATOM     15  C6  IXD d 379      23.551  22.067  21.280  0.00  0.00     0.203 C 
ATOM     16  H   IXD d 379      22.725  23.154  21.737  0.00  0.00     0.100 H 
ATOM     17  H   IXD d 379      19.330  22.848  22.346  0.00  0.00     0.133 H 
ATOM     18  H   IXD d 379      19.677  21.265  24.540  0.00  0.00     0.097 H 
ATOM     19  H   IXD d 379      23.047  22.622  24.181  0.00  0.00     0.041 H 
ATOM     20  H   IXD d 379      23.688  21.142  23.428  0.00  0.00     0.041 H 
ATOM     21  H   IXD d 379      21.513  20.109  23.556  0.00  0.00     0.087 H 
ATOM     22  H   IXD d 379      22.360  21.309  25.957  0.00  0.00     0.210 HD
ATOM     23  C4  SGN d 378      19.250  20.077  22.321  0.00  0.00     0.095 C 
ATOM     24  C6  SGN d 378      19.651  20.360  19.924  0.00  0.00     0.067 C 
ATOM     25  S1  SGN d 378      15.038  18.163  24.346  0.00  0.00     0.156 S 
ATOM     26  S2  SGN d 378      19.509  18.682  18.059  0.00  0.00     0.251 S 
ATOM     27  O4S SGN d 378      20.107  17.383  17.821  0.00  0.00    -0.572 OA
ATOM     28  C3  SGN d 378      18.207  20.080  23.430  0.00  0.00     0.083 C 
ATOM     29  C5  SGN d 378      18.630  20.561  21.020  0.00  0.00     0.091 C 
ATOM     30  C2  SGN d 378      16.974  19.322  22.972  0.00  0.00     0.081 C 
ATOM     31  C1  SGN d 378      16.464  19.861  21.642  0.00  0.00     0.147 C 
ATOM     32  O3  SGN d 378      18.698  19.441  24.584  0.00  0.00    -0.391 OA
ATOM     33  O3S SGN d 378      15.901  17.141  24.927  0.00  0.00    -0.296 OA
ATOM     34  O4  SGN d 378      20.334  20.933  22.624  0.00  0.00    -0.348 OA
ATOM     35  N   SGN d 378      15.947  19.429  23.987  0.00  0.00    -0.210 NA
ATOM     36  O6  SGN d 378      19.586  19.000  19.569  0.00  0.00    -0.254 OA
ATOM     37  O1  SGN d 378      16.023  21.186  21.812  0.00  0.00    -0.369 OA
ATOM     38  O2S SGN d 378      14.469  17.707  23.078  0.00  0.00    -0.296 OA
ATOM     39  O6S SGN d 378      20.205  19.764  17.375  0.00  0.00    -0.572 OA
ATOM     40  O5S SGN d 378      18.088  18.675  17.731  0.00  0.00    -0.572 OA
ATOM     41  O5  SGN d 378      17.483  19.816  20.669  0.00  0.00    -0.350 OA
ATOM     42  O1S SGN d 378      14.046  18.636  25.313  0.00  0.00    -0.296 OA
ATOM     43  H   SGN d 378      19.604  19.072  22.225  0.00  0.00     0.091 H 
ATOM     44  H   SGN d 378      20.630  20.604  20.281  0.00  0.00     0.080 H 
ATOM     45  H   SGN d 378      19.451  20.992  19.084  0.00  0.00     0.080 H 
ATOM     46  H   SGN d 378      17.971  21.099  23.654  0.00  0.00     0.089 H 
ATOM     47  H   SGN d 378      18.346  21.585  21.143  0.00  0.00     0.090 H 
ATOM     48  H   SGN d 378      17.232  18.294  22.828  0.00  0.00     0.076 H 
ATOM     49  H   SGN d 378      15.649  19.253  21.310  0.00  0.00     0.131 H 
ATOM     50  H   SGN d 378      18.910  18.518  24.377  0.00  0.00     0.210 HD
ATOM     51  H   SGN d 378      16.266  17.465  25.765  0.00  0.00     0.231 HD
ATOM     52  H   SGN d 378      16.413  19.709  24.849  0.00  0.00     0.140 HD
ATOM     53  H   SGN d 378      16.763  21.736  22.114  0.00  0.00     0.212 HD
ATOM     54  H   SGN d 378      13.900  18.400  22.711  0.00  0.00     0.231 HD
ATOM     55  H   SGN d 378      13.489  19.312  24.898  0.00  0.00     0.231 HD
ENDROOT
TORSDOF 16
ENDMDL
MODEL 35
REMARK VINA RESULT:      -4.5      3.280      4.440
REMARK  0 active torsions:
REMARK  status: ('A' for Active; 'I' for Inactive)
REMARK       I    between atoms: C4_5  and  O4_20 
REMARK       I    between atoms: C6_6  and  C5_15 
REMARK       I    between atoms: C6_6  and  O6_25 
REMARK       I    between atoms: S1_7  and  N_21 
REMARK       I    between atoms: S1_7  and  O1S_34 
REMARK       I    between atoms: S1_7  and  O2S_27 
REMARK       I    between atoms: S1_7  and  O3S_19 
REMARK       I    between atoms: C5_8  and  C6_35 
REMARK       I    between atoms: S2_9  and  O6_25 
REMARK       I    between atoms: C1_10  and  O4_20 
REMARK       I    between atoms: C3_14  and  O3_18 
REMARK       I    between atoms: C2_16  and  N_21 
REMARK       I    between atoms: C1_17  and  O1_26 
REMARK       I    between atoms: C2_22  and  O2_29 
REMARK       I    between atoms: S_23  and  O2_29 
REMARK       I    between atoms: C3_30  and  O3_31 
ROOT
ATOM      1  O3S IXD d 379      22.079  21.906  19.675  0.00  0.00    -0.572 OA
ATOM      2  O2S IXD d 379      21.517  22.422  17.375  0.00  0.00    -0.572 OA
ATOM      3  O5  IXD d 379      18.251  22.973  20.409  0.00  0.00    -0.343 OA
ATOM      4  O62 IXD d 379      15.658  23.254  21.690  0.00  0.00    -0.646 OA
ATOM      5  C5  IXD d 379      17.020  22.240  20.164  0.00  0.00     0.127 C 
ATOM      6  C1  IXD d 379      19.359  22.211  20.905  0.00  0.00     0.161 C 
ATOM      7  O1S IXD d 379      22.015  20.156  18.042  0.00  0.00    -0.572 OA
ATOM      8  O61 IXD d 379      14.738  22.480  19.825  0.00  0.00    -0.646 OA
ATOM      9  C2  IXD d 379      19.490  20.912  20.115  0.00  0.00     0.132 C 
ATOM     10  S   IXD d 379      21.372  21.423  18.462  0.00  0.00     0.252 S 
ATOM     11  C4  IXD d 379      17.107  21.053  19.579  0.00  0.00    -0.005 C 
ATOM     12  O2  IXD d 379      19.880  21.211  18.778  0.00  0.00    -0.244 OA
ATOM     13  C3  IXD d 379      18.159  20.165  20.163  0.00  0.00     0.069 C 
ATOM     14  O3  IXD d 379      18.151  18.941  19.457  0.00  0.00    -0.393 OA
ATOM     15  C6  IXD d 379      15.722  22.700  20.580  0.00  0.00     0.203 C 
ATOM     16  H   IXD d 379      16.864  23.268  19.914  0.00  0.00     0.100 H 
ATOM     17  H   IXD d 379      20.108  22.954  21.083  0.00  0.00     0.133 H 
ATOM     18  H   IXD d 379      20.242  20.284  20.542  0.00  0.00     0.097 H 
ATOM     19  H   IXD d 379      17.330  21.204  18.543  0.00  0.00     0.041 H 
ATOM     20  H   IXD d 379      16.168  20.563  19.730  0.00  0.00     0.041 H 
ATOM     21  H   IXD d 379      17.978  19.924  21.189  0.00  0.00     0.087 H 
ATOM     22  H   IXD d 379      18.313  19.110  18.516  0.00  0.00     0.210 HD
ATOM     23  C4  SGN d 378      19.592  20.945  22.921  0.00  0.00     0.095 C 
ATOM     24  C6  SGN d 378      18.433  22.727  24.131  0.00  0.00     0.067 C 
ATOM     25  S1  SGN d 378      23.748  18.574  24.539  0.00  0.00     0.156 S 
ATOM     26  S2  SGN d 378      17.547  22.763  26.483  0.00  0.00     0.251 S 
ATOM     27  O4S SGN d 378      16.646  21.914  27.236  0.00  0.00    -0.572 OA
ATOM     28  C3  SGN d 378      20.937  20.299  22.619  0.00  0.00     0.083 C 
ATOM     29  C5  SGN d 378      19.795  22.233  23.702  0.00  0.00     0.091 C 
ATOM     30  C2  SGN d 378      21.739  20.167  23.902  0.00  0.00     0.081 C 
ATOM     31  C1  SGN d 378      21.843  21.505  24.622  0.00  0.00     0.147 C 
ATOM     32  O3  SGN d 378      20.768  19.008  22.086  0.00  0.00    -0.391 OA
ATOM     33  O3S SGN d 378      22.955  17.352  24.475  0.00  0.00    -0.296 OA
ATOM     34  O4  SGN d 378      18.893  21.267  21.735  0.00  0.00    -0.348 OA
ATOM     35  N   SGN d 378      23.058  19.659  23.588  0.00  0.00    -0.210 NA
ATOM     36  O6  SGN d 378      18.081  21.974  25.267  0.00  0.00    -0.254 OA
ATOM     37  O1  SGN d 378      22.582  22.405  23.832  0.00  0.00    -0.369 OA
ATOM     38  O2S SGN d 378      23.719  19.146  25.884  0.00  0.00    -0.296 OA
ATOM     39  O6S SGN d 378      16.896  23.952  25.947  0.00  0.00    -0.572 OA
ATOM     40  O5S SGN d 378      18.723  23.113  27.272  0.00  0.00    -0.572 OA
ATOM     41  O5  SGN d 378      20.559  22.030  24.872  0.00  0.00    -0.350 OA
ATOM     42  O1S SGN d 378      25.094  18.364  24.005  0.00  0.00    -0.296 OA
ATOM     43  H   SGN d 378      19.026  20.238  23.490  0.00  0.00     0.091 H 
ATOM     44  H   SGN d 378      17.719  22.573  23.348  0.00  0.00     0.080 H 
ATOM     45  H   SGN d 378      18.449  23.774  24.348  0.00  0.00     0.080 H 
ATOM     46  H   SGN d 378      21.446  20.918  21.910  0.00  0.00     0.089 H 
ATOM     47  H   SGN d 378      20.312  22.929  23.074  0.00  0.00     0.090 H 
ATOM     48  H   SGN d 378      21.237  19.485  24.556  0.00  0.00     0.076 H 
ATOM     49  H   SGN d 378      22.340  21.359  25.558  0.00  0.00     0.131 H 
ATOM     50  H   SGN d 378      20.308  18.450  22.732  0.00  0.00     0.210 HD
ATOM     51  H   SGN d 378      22.989  16.992  23.575  0.00  0.00     0.231 HD
ATOM     52  H   SGN d 378      22.999  19.241  22.659  0.00  0.00     0.140 HD
ATOM     53  H   SGN d 378      22.131  22.536  22.983  0.00  0.00     0.212 HD
ATOM     54  H   SGN d 378      24.252  19.956  25.903  0.00  0.00     0.231 HD
ATOM     55  H   SGN d 378      25.596  19.192  24.061  0.00  0.00     0.231 HD
ENDROOT
TORSDOF 16
ENDMDL
MODEL 36
REMARK VINA RESULT:      -4.5      2.796      5.689
REMARK  0 active torsions:
REMARK  status: ('A' for Active; 'I' for Inactive)
REMARK       I    between atoms: C4_5  and  O4_20 
REMARK       I    between atoms: C6_6  and  C5_15 
REMARK       I    between atoms: C6_6  and  O6_25 
REMARK       I    between atoms: S1_7  and  N_21 
REMARK       I    between atoms: S1_7  and  O1S_34 
REMARK       I    between atoms: S1_7  and  O2S_27 
REMARK       I    between atoms: S1_7  and  O3S_19 
REMARK       I    between atoms: C5_8  and  C6_35 
REMARK       I    between atoms: S2_9  and  O6_25 
REMARK       I    between atoms: C1_10  and  O4_20 
REMARK       I    between atoms: C3_14  and  O3_18 
REMARK       I    between atoms: C2_16  and  N_21 
REMARK       I    between atoms: C1_17  and  O1_26 
REMARK       I    between atoms: C2_22  and  O2_29 
REMARK       I    between atoms: S_23  and  O2_29 
REMARK       I    between atoms: C3_30  and  O3_31 
ROOT
ATOM      1  O3S IXD d 379      16.781  18.514  24.311  0.00  0.00    -0.572 OA
ATOM      2  O2S IXD d 379      18.075  18.941  26.314  0.00  0.00    -0.572 OA
ATOM      3  O5  IXD d 379      17.073  22.508  23.775  0.00  0.00    -0.343 OA
ATOM      4  O62 IXD d 379      17.084  25.136  22.536  0.00  0.00    -0.646 OA
ATOM      5  C5  IXD d 379      18.200  23.304  23.316  0.00  0.00     0.127 C 
ATOM      6  C1  IXD d 379      16.857  21.261  23.104  0.00  0.00     0.161 C 
ATOM      7  O1S IXD d 379      19.014  17.669  24.490  0.00  0.00    -0.572 OA
ATOM      8  O61 IXD d 379      19.126  25.430  23.354  0.00  0.00    -0.646 OA
ATOM      9  C2  IXD d 379      18.184  20.524  22.941  0.00  0.00     0.132 C 
ATOM     10  S   IXD d 379      18.137  18.811  24.838  0.00  0.00     0.252 S 
ATOM     11  C4  IXD d 379      19.339  22.678  23.055  0.00  0.00    -0.005 C 
ATOM     12  O2  IXD d 379      18.661  20.121  24.222  0.00  0.00    -0.244 OA
ATOM     13  C3  IXD d 379      19.176  21.441  22.230  0.00  0.00     0.069 C 
ATOM     14  O3  IXD d 379      20.453  20.871  22.024  0.00  0.00    -0.393 OA
ATOM     15  C6  IXD d 379      18.127  24.718  23.065  0.00  0.00     0.203 C 
ATOM     16  H   IXD d 379      17.714  23.824  24.113  0.00  0.00     0.100 H 
ATOM     17  H   IXD d 379      15.951  20.898  23.544  0.00  0.00     0.133 H 
ATOM     18  H   IXD d 379      18.057  19.644  22.347  0.00  0.00     0.097 H 
ATOM     19  H   IXD d 379      19.794  22.405  23.984  0.00  0.00     0.041 H 
ATOM     20  H   IXD d 379      19.941  23.354  22.485  0.00  0.00     0.041 H 
ATOM     21  H   IXD d 379      18.773  21.638  21.259  0.00  0.00     0.087 H 
ATOM     22  H   IXD d 379      20.861  20.674  22.882  0.00  0.00     0.210 HD
ATOM     23  C4  SGN d 378      16.378  20.796  20.807  0.00  0.00     0.095 C 
ATOM     24  C6  SGN d 378      14.857  22.712  20.775  0.00  0.00     0.067 C 
ATOM     25  S1  SGN d 378      15.388  16.278  18.779  0.00  0.00     0.156 S 
ATOM     26  S2  SGN d 378      13.712  23.826  18.834  0.00  0.00     0.251 S 
ATOM     27  O4S SGN d 378      14.171  24.400  17.585  0.00  0.00    -0.572 OA
ATOM     28  C3  SGN d 378      16.488  19.278  20.864  0.00  0.00     0.083 C 
ATOM     29  C5  SGN d 378      14.936  21.223  21.026  0.00  0.00     0.091 C 
ATOM     30  C2  SGN d 378      15.472  18.659  19.920  0.00  0.00     0.081 C 
ATOM     31  C1  SGN d 378      14.072  19.188  20.201  0.00  0.00     0.147 C 
ATOM     32  O3  SGN d 378      17.765  18.850  20.457  0.00  0.00    -0.391 OA
ATOM     33  O3S SGN d 378      16.567  16.503  17.950  0.00  0.00    -0.296 OA
ATOM     34  O4  SGN d 378      17.165  21.411  21.808  0.00  0.00    -0.348 OA
ATOM     35  N   SGN d 378      15.505  17.218  20.067  0.00  0.00    -0.210 NA
ATOM     36  O6  SGN d 378      14.801  22.874  19.378  0.00  0.00    -0.254 OA
ATOM     37  O1  SGN d 378      13.664  18.777  21.483  0.00  0.00    -0.369 OA
ATOM     38  O2S SGN d 378      14.173  16.701  18.084  0.00  0.00    -0.296 OA
ATOM     39  O6S SGN d 378      13.485  24.824  19.872  0.00  0.00    -0.572 OA
ATOM     40  O5S SGN d 378      12.530  22.996  18.630  0.00  0.00    -0.572 OA
ATOM     41  O5  SGN d 378      14.053  20.596  20.120  0.00  0.00    -0.350 OA
ATOM     42  O1S SGN d 378      15.344  14.904  19.281  0.00  0.00    -0.296 OA
ATOM     43  H   SGN d 378      16.725  21.100  19.842  0.00  0.00     0.091 H 
ATOM     44  H   SGN d 378      15.724  23.200  21.170  0.00  0.00     0.080 H 
ATOM     45  H   SGN d 378      14.002  23.143  21.252  0.00  0.00     0.080 H 
ATOM     46  H   SGN d 378      16.310  18.975  21.874  0.00  0.00     0.089 H 
ATOM     47  H   SGN d 378      14.652  20.952  22.022  0.00  0.00     0.090 H 
ATOM     48  H   SGN d 378      15.724  18.925  18.915  0.00  0.00     0.076 H 
ATOM     49  H   SGN d 378      13.398  18.796  19.468  0.00  0.00     0.131 H 
ATOM     50  H   SGN d 378      17.922  19.127  19.541  0.00  0.00     0.210 HD
ATOM     51  H   SGN d 378      17.359  16.216  18.431  0.00  0.00     0.231 HD
ATOM     52  H   SGN d 378      16.390  16.989  20.519  0.00  0.00     0.140 HD
ATOM     53  H   SGN d 378      14.276  19.133  22.146  0.00  0.00     0.212 HD
ATOM     54  H   SGN d 378      13.404  16.542  18.652  0.00  0.00     0.231 HD
ATOM     55  H   SGN d 378      14.551  14.786  19.827  0.00  0.00     0.231 HD
ENDROOT
TORSDOF 16
ENDMDL
MODEL 37
REMARK VINA RESULT:      -4.4      2.684      5.558
REMARK  0 active torsions:
REMARK  status: ('A' for Active; 'I' for Inactive)
REMARK       I    between atoms: C4_5  and  O4_20 
REMARK       I    between atoms: C6_6  and  C5_15 
REMARK       I    between atoms: C6_6  and  O6_25 
REMARK       I    between atoms: S1_7  and  N_21 
REMARK       I    between atoms: S1_7  and  O1S_34 
REMARK       I    between atoms: S1_7  and  O2S_27 
REMARK       I    between atoms: S1_7  and  O3S_19 
REMARK       I    between atoms: C5_8  and  C6_35 
REMARK       I    between atoms: S2_9  and  O6_25 
REMARK       I    between atoms: C1_10  and  O4_20 
REMARK       I    between atoms: C3_14  and  O3_18 
REMARK       I    between atoms: C2_16  and  N_21 
REMARK       I    between atoms: C1_17  and  O1_26 
REMARK       I    between atoms: C2_22  and  O2_29 
REMARK       I    between atoms: S_23  and  O2_29 
REMARK       I    between atoms: C3_30  and  O3_31 
ROOT
ATOM      1  O3S IXD d 379      20.902  20.441  22.883  0.00  0.00    -0.572 OA
ATOM      2  O2S IXD d 379      21.796  18.419  21.890  0.00  0.00    -0.572 OA
ATOM      3  O5  IXD d 379      17.898  19.915  20.232  0.00  0.00    -0.343 OA
ATOM      4  O62 IXD d 379      15.314  20.084  18.915  0.00  0.00    -0.646 OA
ATOM      5  C5  IXD d 379      16.789  18.976  20.260  0.00  0.00     0.127 C 
ATOM      6  C1  IXD d 379      18.251  20.525  21.479  0.00  0.00     0.161 C 
ATOM      7  O1S IXD d 379      21.043  18.436  24.184  0.00  0.00    -0.572 OA
ATOM      8  O61 IXD d 379      15.246  17.866  18.932  0.00  0.00    -0.646 OA
ATOM      9  C2  IXD d 379      18.286  19.468  22.581  0.00  0.00     0.132 C 
ATOM     10  S   IXD d 379      20.780  18.963  22.825  0.00  0.00     0.252 S 
ATOM     11  C4  IXD d 379      16.726  18.116  21.267  0.00  0.00    -0.005 C 
ATOM     12  O2  IXD d 379      19.370  18.575  22.343  0.00  0.00    -0.244 OA
ATOM     13  C3  IXD d 379      16.946  18.737  22.610  0.00  0.00     0.069 C 
ATOM     14  O3  IXD d 379      16.855  17.724  23.590  0.00  0.00    -0.393 OA
ATOM     15  C6  IXD d 379      15.722  18.975  19.296  0.00  0.00     0.203 C 
ATOM     16  H   IXD d 379      17.158  19.041  19.259  0.00  0.00     0.100 H 
ATOM     17  H   IXD d 379      19.019  21.218  21.207  0.00  0.00     0.133 H 
ATOM     18  H   IXD d 379      18.440  19.923  23.536  0.00  0.00     0.097 H 
ATOM     19  H   IXD d 379      17.474  17.367  21.117  0.00  0.00     0.041 H 
ATOM     20  H   IXD d 379      15.735  17.714  21.270  0.00  0.00     0.041 H 
ATOM     21  H   IXD d 379      16.202  19.466  22.858  0.00  0.00     0.087 H 
ATOM     22  H   IXD d 379      17.514  17.036  23.406  0.00  0.00     0.210 HD
ATOM     23  C4  SGN d 378      16.973  21.925  22.938  0.00  0.00     0.095 C 
ATOM     24  C6  SGN d 378      16.090  23.096  20.980  0.00  0.00     0.067 C 
ATOM     25  S1  SGN d 378      18.592  24.165  27.166  0.00  0.00     0.156 S 
ATOM     26  S2  SGN d 378      14.227  24.775  20.812  0.00  0.00     0.251 S 
ATOM     27  O4S SGN d 378      12.836  24.784  21.219  0.00  0.00    -0.572 OA
ATOM     28  C3  SGN d 378      17.954  21.982  24.101  0.00  0.00     0.083 C 
ATOM     29  C5  SGN d 378      17.203  23.101  22.003  0.00  0.00     0.091 C 
ATOM     30  C2  SGN d 378      17.896  23.355  24.749  0.00  0.00     0.081 C 
ATOM     31  C1  SGN d 378      18.096  24.456  23.716  0.00  0.00     0.147 C 
ATOM     32  O3  SGN d 378      17.625  21.031  25.084  0.00  0.00    -0.391 OA
ATOM     33  O3S SGN d 378      17.562  23.392  27.850  0.00  0.00    -0.296 OA
ATOM     34  O4  SGN d 378      17.131  20.740  22.184  0.00  0.00    -0.348 OA
ATOM     35  N   SGN d 378      18.912  23.437  25.778  0.00  0.00    -0.210 NA
ATOM     36  O6  SGN d 378      14.975  23.681  21.608  0.00  0.00    -0.254 OA
ATOM     37  O1  SGN d 378      19.396  24.368  23.185  0.00  0.00    -0.369 OA
ATOM     38  O2S SGN d 378      18.100  25.496  26.815  0.00  0.00    -0.296 OA
ATOM     39  O6S SGN d 378      14.407  24.453  19.403  0.00  0.00    -0.572 OA
ATOM     40  O5S SGN d 378      14.885  26.030  21.157  0.00  0.00    -0.572 OA
ATOM     41  O5  SGN d 378      17.146  24.338  22.681  0.00  0.00    -0.350 OA
ATOM     42  O1S SGN d 378      19.846  24.168  27.920  0.00  0.00    -0.296 OA
ATOM     43  H   SGN d 378      15.989  21.955  23.356  0.00  0.00     0.091 H 
ATOM     44  H   SGN d 378      15.865  22.093  20.683  0.00  0.00     0.080 H 
ATOM     45  H   SGN d 378      16.369  23.635  20.099  0.00  0.00     0.080 H 
ATOM     46  H   SGN d 378      18.931  21.780  23.715  0.00  0.00     0.089 H 
ATOM     47  H   SGN d 378      18.174  22.998  21.564  0.00  0.00     0.090 H 
ATOM     48  H   SGN d 378      16.929  23.492  25.186  0.00  0.00     0.076 H 
ATOM     49  H   SGN d 378      17.967  25.406  24.191  0.00  0.00     0.131 H 
ATOM     50  H   SGN d 378      16.740  21.218  25.432  0.00  0.00     0.210 HD
ATOM     51  H   SGN d 378      17.910  22.515  28.072  0.00  0.00     0.231 HD
ATOM     52  H   SGN d 378      19.180  22.479  26.003  0.00  0.00     0.140 HD
ATOM     53  H   SGN d 378      19.512  23.506  22.755  0.00  0.00     0.212 HD
ATOM     54  H   SGN d 378      18.800  25.991  26.361  0.00  0.00     0.231 HD
ATOM     55  H   SGN d 378      20.509  24.688  27.441  0.00  0.00     0.231 HD
ENDROOT
TORSDOF 16
ENDMDL
MODEL 38
REMARK VINA RESULT:      -3.9      2.415      3.159
REMARK  0 active torsions:
REMARK  status: ('A' for Active; 'I' for Inactive)
REMARK       I    between atoms: C4_5  and  O4_20 
REMARK       I    between atoms: C6_6  and  C5_15 
REMARK       I    between atoms: C6_6  and  O6_25 
REMARK       I    between atoms: S1_7  and  N_21 
REMARK       I    between atoms: S1_7  and  O1S_34 
REMARK       I    between atoms: S1_7  and  O2S_27 
REMARK       I    between atoms: S1_7  and  O3S_19 
REMARK       I    between atoms: C5_8  and  C6_35 
REMARK       I    between atoms: S2_9  and  O6_25 
REMARK       I    between atoms: C1_10  and  O4_20 
REMARK       I    between atoms: C3_14  and  O3_18 
REMARK       I    between atoms: C2_16  and  N_21 
REMARK       I    between atoms: C1_17  and  O1_26 
REMARK       I    between atoms: C2_22  and  O2_29 
REMARK       I    between atoms: S_23  and  O2_29 
REMARK       I    between atoms: C3_30  and  O3_31 
ROOT
ATOM      1  O3S IXD d 379      18.248  20.061  19.310  0.00  0.00    -0.572 OA
ATOM      2  O2S IXD d 379      16.790  20.100  17.375  0.00  0.00    -0.572 OA
ATOM      3  O5  IXD d 379      16.107  23.287  20.466  0.00  0.00    -0.343 OA
ATOM      4  O62 IXD d 379      14.910  25.365  22.105  0.00  0.00    -0.646 OA
ATOM      5  C5  IXD d 379      14.766  23.360  21.024  0.00  0.00     0.127 C 
ATOM      6  C1  IXD d 379      16.935  22.216  20.934  0.00  0.00     0.161 C 
ATOM      7  O1S IXD d 379      16.689  18.278  18.957  0.00  0.00    -0.572 OA
ATOM      8  O61 IXD d 379      12.933  24.752  21.304  0.00  0.00    -0.646 OA
ATOM      9  C2  IXD d 379      16.138  20.914  20.954  0.00  0.00     0.132 C 
ATOM     10  S   IXD d 379      16.888  19.739  18.811  0.00  0.00     0.252 S 
ATOM     11  C4  IXD d 379      14.086  22.230  21.160  0.00  0.00    -0.005 C 
ATOM     12  O2  IXD d 379      15.837  20.525  19.617  0.00  0.00    -0.244 OA
ATOM     13  C3  IXD d 379      14.871  21.120  21.782  0.00  0.00     0.069 C 
ATOM     14  O3  IXD d 379      14.041  19.981  21.871  0.00  0.00    -0.393 OA
ATOM     15  C6  IXD d 379      14.166  24.579  21.497  0.00  0.00     0.203 C 
ATOM     16  H   IXD d 379      14.894  24.162  20.328  0.00  0.00     0.100 H 
ATOM     17  H   IXD d 379      17.876  22.406  20.460  0.00  0.00     0.133 H 
ATOM     18  H   IXD d 379      16.707  20.128  21.403  0.00  0.00     0.097 H 
ATOM     19  H   IXD d 379      13.763  21.913  20.191  0.00  0.00     0.041 H 
ATOM     20  H   IXD d 379      13.269  22.439  21.818  0.00  0.00     0.041 H 
ATOM     21  H   IXD d 379      15.189  21.342  22.780  0.00  0.00     0.087 H 
ATOM     22  H   IXD d 379      13.727  19.740  20.985  0.00  0.00     0.210 HD
ATOM     23  C4  SGN d 378      17.716  21.707  23.138  0.00  0.00     0.095 C 
ATOM     24  C6  SGN d 378      18.128  24.090  23.502  0.00  0.00     0.067 C 
ATOM     25  S1  SGN d 378      20.873  17.988  24.444  0.00  0.00     0.156 S 
ATOM     26  S2  SGN d 378      18.712  25.319  25.616  0.00  0.00     0.251 S 
ATOM     27  O4S SGN d 378      18.110  25.408  26.931  0.00  0.00    -0.572 OA
ATOM     28  C3  SGN d 378      18.345  20.353  22.840  0.00  0.00     0.083 C 
ATOM     29  C5  SGN d 378      18.759  22.805  23.017  0.00  0.00     0.091 C 
ATOM     30  C2  SGN d 378      19.588  20.170  23.692  0.00  0.00     0.081 C 
ATOM     31  C1  SGN d 378      20.542  21.346  23.526  0.00  0.00     0.147 C 
ATOM     32  O3  SGN d 378      17.457  19.306  23.149  0.00  0.00    -0.391 OA
ATOM     33  O3S SGN d 378      19.783  17.490  25.275  0.00  0.00    -0.296 OA
ATOM     34  O4  SGN d 378      16.672  22.005  22.232  0.00  0.00    -0.348 OA
ATOM     35  N   SGN d 378      20.242  18.933  23.319  0.00  0.00    -0.210 NA
ATOM     36  O6  SGN d 378      18.184  24.051  24.907  0.00  0.00    -0.254 OA
ATOM     37  O1  SGN d 378      21.020  21.377  22.203  0.00  0.00    -0.369 OA
ATOM     38  O2S SGN d 378      21.775  18.838  25.220  0.00  0.00    -0.296 OA
ATOM     39  O6S SGN d 378      18.369  26.443  24.754  0.00  0.00    -0.572 OA
ATOM     40  O5S SGN d 378      20.157  25.144  25.709  0.00  0.00    -0.572 OA
ATOM     41  O5  SGN d 378      19.888  22.557  23.828  0.00  0.00    -0.350 OA
ATOM     42  O1S SGN d 378      21.541  16.898  23.731  0.00  0.00    -0.296 OA
ATOM     43  H   SGN d 378      17.324  21.659  24.132  0.00  0.00     0.091 H 
ATOM     44  H   SGN d 378      17.112  24.151  23.172  0.00  0.00     0.080 H 
ATOM     45  H   SGN d 378      18.641  24.946  23.116  0.00  0.00     0.080 H 
ATOM     46  H   SGN d 378      18.586  20.326  21.798  0.00  0.00     0.089 H 
ATOM     47  H   SGN d 378      19.078  22.856  21.997  0.00  0.00     0.090 H 
ATOM     48  H   SGN d 378      19.301  20.129  24.722  0.00  0.00     0.076 H 
ATOM     49  H   SGN d 378      21.364  21.225  24.200  0.00  0.00     0.131 H 
ATOM     50  H   SGN d 378      17.242  19.333  24.095  0.00  0.00     0.210 HD
ATOM     51  H   SGN d 378      19.199  16.930  24.740  0.00  0.00     0.231 HD
ATOM     52  H   SGN d 378      19.551  18.374  22.820  0.00  0.00     0.140 HD
ATOM     53  H   SGN d 378      20.274  21.486  21.593  0.00  0.00     0.212 HD
ATOM     54  H   SGN d 378      22.491  19.157  24.649  0.00  0.00     0.231 HD
ATOM     55  H   SGN d 378      22.259  17.260  23.189  0.00  0.00     0.231 HD
ENDROOT
TORSDOF 16
ENDMDL
MODEL 39
REMARK VINA RESULT:      -3.7      3.186      7.424
REMARK  0 active torsions:
REMARK  status: ('A' for Active; 'I' for Inactive)
REMARK       I    between atoms: C4_5  and  O4_20 
REMARK       I    between atoms: C6_6  and  C5_15 
REMARK       I    between atoms: C6_6  and  O6_25 
REMARK       I    between atoms: S1_7  and  N_21 
REMARK       I    between atoms: S1_7  and  O1S_34 
REMARK       I    between atoms: S1_7  and  O2S_27 
REMARK       I    between atoms: S1_7  and  O3S_19 
REMARK       I    between atoms: C5_8  and  C6_35 
REMARK       I    between atoms: S2_9  and  O6_25 
REMARK       I    between atoms: C1_10  and  O4_20 
REMARK       I    between atoms: C3_14  and  O3_18 
REMARK       I    between atoms: C2_16  and  N_21 
REMARK       I    between atoms: C1_17  and  O1_26 
REMARK       I    between atoms: C2_22  and  O2_29 
REMARK       I    between atoms: S_23  and  O2_29 
REMARK       I    between atoms: C3_30  and  O3_31 
ROOT
ATOM      1  O3S IXD d 379      17.337  21.424  24.192  0.00  0.00    -0.572 OA
ATOM      2  O2S IXD d 379      17.639  21.309  26.594  0.00  0.00    -0.572 OA
ATOM      3  O5  IXD d 379      21.315  20.726  24.079  0.00  0.00    -0.343 OA
ATOM      4  O62 IXD d 379      23.963  19.973  23.148  0.00  0.00    -0.646 OA
ATOM      5  C5  IXD d 379      22.047  19.489  24.293  0.00  0.00     0.127 C 
ATOM      6  C1  IXD d 379      20.098  20.626  23.329  0.00  0.00     0.161 C 
ATOM      7  O1S IXD d 379      16.349  19.630  25.434  0.00  0.00    -0.572 OA
ATOM      8  O61 IXD d 379      24.110  18.619  24.901  0.00  0.00    -0.646 OA
ATOM      9  C2  IXD d 379      19.283  19.434  23.823  0.00  0.00     0.132 C 
ATOM     10  S   IXD d 379      17.536  20.512  25.347  0.00  0.00     0.252 S 
ATOM     11  C4  IXD d 379      21.357  18.403  24.613  0.00  0.00    -0.005 C 
ATOM     12  O2  IXD d 379      18.824  19.691  25.146  0.00  0.00    -0.244 OA
ATOM     13  C3  IXD d 379      20.150  18.179  23.758  0.00  0.00     0.069 C 
ATOM     14  O3  IXD d 379      19.506  17.001  24.197  0.00  0.00    -0.393 OA
ATOM     15  C6  IXD d 379      23.469  19.363  24.111  0.00  0.00     0.203 C 
ATOM     16  H   IXD d 379      22.581  20.289  24.760  0.00  0.00     0.100 H 
ATOM     17  H   IXD d 379      19.784  21.645  23.232  0.00  0.00     0.133 H 
ATOM     18  H   IXD d 379      18.425  19.280  23.203  0.00  0.00     0.097 H 
ATOM     19  H   IXD d 379      21.036  18.496  25.629  0.00  0.00     0.041 H 
ATOM     20  H   IXD d 379      22.005  17.567  24.460  0.00  0.00     0.041 H 
ATOM     21  H   IXD d 379      20.393  18.024  22.727  0.00  0.00     0.087 H 
ATOM     22  H   IXD d 379      19.265  17.094  25.132  0.00  0.00     0.210 HD
ATOM     23  C4  SGN d 378      19.713  19.893  21.085  0.00  0.00     0.095 C 
ATOM     24  C6  SGN d 378      21.721  21.101  20.385  0.00  0.00     0.067 C 
ATOM     25  S1  SGN d 378      15.310  19.912  18.611  0.00  0.00     0.156 S 
ATOM     26  S2  SGN d 378      22.946  21.053  18.191  0.00  0.00     0.251 S 
ATOM     27  O4S SGN d 378      23.516  19.999  17.375  0.00  0.00    -0.572 OA
ATOM     28  C3  SGN d 378      18.191  19.893  21.113  0.00  0.00     0.083 C 
ATOM     29  C5  SGN d 378      20.226  21.226  20.566  0.00  0.00     0.091 C 
ATOM     30  C2  SGN d 378      17.657  20.315  19.756  0.00  0.00     0.081 C 
ATOM     31  C1  SGN d 378      18.267  21.639  19.316  0.00  0.00     0.147 C 
ATOM     32  O3  SGN d 378      17.692  18.606  21.387  0.00  0.00    -0.391 OA
ATOM     33  O3S SGN d 378      15.478  18.467  18.505  0.00  0.00    -0.296 OA
ATOM     34  O4  SGN d 378      20.256  19.697  22.376  0.00  0.00    -0.348 OA
ATOM     35  N   SGN d 378      16.214  20.424  19.827  0.00  0.00    -0.210 NA
ATOM     36  O6  SGN d 378      21.916  20.433  19.162  0.00  0.00    -0.254 OA
ATOM     37  O1  SGN d 378      17.855  22.659  20.194  0.00  0.00    -0.369 OA
ATOM     38  O2S SGN d 378      15.823  20.586  17.419  0.00  0.00    -0.296 OA
ATOM     39  O6S SGN d 378      23.934  21.731  19.019  0.00  0.00    -0.572 OA
ATOM     40  O5S SGN d 378      22.197  22.002  17.375  0.00  0.00    -0.572 OA
ATOM     41  O5  SGN d 378      19.675  21.554  19.308  0.00  0.00    -0.350 OA
ATOM     42  O1S SGN d 378      13.932  20.265  18.953  0.00  0.00    -0.296 OA
ATOM     43  H   SGN d 378      20.015  19.091  20.445  0.00  0.00     0.091 H 
ATOM     44  H   SGN d 378      22.146  20.535  21.188  0.00  0.00     0.080 H 
ATOM     45  H   SGN d 378      22.195  22.060  20.385  0.00  0.00     0.080 H 
ATOM     46  H   SGN d 378      17.878  20.572  21.878  0.00  0.00     0.089 H 
ATOM     47  H   SGN d 378      19.952  21.987  21.267  0.00  0.00     0.090 H 
ATOM     48  H   SGN d 378      17.927  19.577  19.031  0.00  0.00     0.076 H 
ATOM     49  H   SGN d 378      17.934  21.864  18.325  0.00  0.00     0.131 H 
ATOM     50  H   SGN d 378      17.977  17.994  20.691  0.00  0.00     0.210 HD
ATOM     51  H   SGN d 378      15.131  18.042  19.305  0.00  0.00     0.231 HD
ATOM     52  H   SGN d 378      15.920  19.902  20.652  0.00  0.00     0.140 HD
ATOM     53  H   SGN d 378      18.158  22.454  21.092  0.00  0.00     0.212 HD
ATOM     54  H   SGN d 378      15.702  21.544  17.512  0.00  0.00     0.231 HD
ATOM     55  H   SGN d 378      13.852  21.229  19.016  0.00  0.00     0.231 HD
ENDROOT
TORSDOF 16
ENDMDL
MODEL 40
REMARK VINA RESULT:      -3.5      2.941      6.720
REMARK  0 active torsions:
REMARK  status: ('A' for Active; 'I' for Inactive)
REMARK       I    between atoms: C4_5  and  O4_20 
REMARK       I    between atoms: C6_6  and  C5_15 
REMARK       I    between atoms: C6_6  and  O6_25 
REMARK       I    between atoms: S1_7  and  N_21 
REMARK       I    between atoms: S1_7  and  O1S_34 
REMARK       I    between atoms: S1_7  and  O2S_27 
REMARK       I    between atoms: S1_7  and  O3S_19 
REMARK       I    between atoms: C5_8  and  C6_35 
REMARK       I    between atoms: S2_9  and  O6_25 
REMARK       I    between atoms: C1_10  and  O4_20 
REMARK       I    between atoms: C3_14  and  O3_18 
REMARK       I    between atoms: C2_16  and  N_21 
REMARK       I    between atoms: C1_17  and  O1_26 
REMARK       I    between atoms: C2_22  and  O2_29 
REMARK       I    between atoms: S_23  and  O2_29 
REMARK       I    between atoms: C3_30  and  O3_31 
ROOT
ATOM      1  O3S IXD d 379      13.432  19.070  24.920  0.00  0.00    -0.572 OA
ATOM      2  O2S IXD d 379      14.087  19.059  27.254  0.00  0.00    -0.572 OA
ATOM      3  O5  IXD d 379      16.832  21.194  24.411  0.00  0.00    -0.343 OA
ATOM      4  O62 IXD d 379      19.156  22.437  23.187  0.00  0.00    -0.646 OA
ATOM      5  C5  IXD d 379      18.214  20.745  24.396  0.00  0.00     0.127 C 
ATOM      6  C1  IXD d 379      15.880  20.352  23.749  0.00  0.00     0.161 C 
ATOM      7  O1S IXD d 379      14.048  17.011  25.976  0.00  0.00    -0.572 OA
ATOM      8  O61 IXD d 379      20.406  21.431  24.721  0.00  0.00    -0.646 OA
ATOM      9  C2  IXD d 379      16.122  18.895  24.135  0.00  0.00     0.132 C 
ATOM     10  S   IXD d 379      14.345  18.461  25.921  0.00  0.00     0.252 S 
ATOM     11  C4  IXD d 379      18.454  19.459  24.616  0.00  0.00    -0.005 C 
ATOM     12  O2  IXD d 379      15.809  18.713  25.512  0.00  0.00    -0.244 OA
ATOM     13  C3  IXD d 379      17.576  18.537  23.833  0.00  0.00     0.069 C 
ATOM     14  O3  IXD d 379      17.927  17.206  24.154  0.00  0.00    -0.393 OA
ATOM     15  C6  IXD d 379      19.328  21.603  24.091  0.00  0.00     0.203 C 
ATOM     16  H   IXD d 379      18.159  21.671  24.927  0.00  0.00     0.100 H 
ATOM     17  H   IXD d 379      14.969  20.909  23.816  0.00  0.00     0.133 H 
ATOM     18  H   IXD d 379      15.492  18.243  23.567  0.00  0.00     0.097 H 
ATOM     19  H   IXD d 379      18.305  19.263  25.657  0.00  0.00     0.041 H 
ATOM     20  H   IXD d 379      19.459  19.273  24.302  0.00  0.00     0.041 H 
ATOM     21  H   IXD d 379      17.704  18.636  22.775  0.00  0.00     0.087 H 
ATOM     22  H   IXD d 379      17.826  17.067  25.109  0.00  0.00     0.210 HD
ATOM     23  C4  SGN d 378      15.740  19.666  21.462  0.00  0.00     0.095 C 
ATOM     24  C6  SGN d 378      16.345  21.937  20.783  0.00  0.00     0.067 C 
ATOM     25  S1  SGN d 378      12.084  16.890  19.355  0.00  0.00     0.156 S 
ATOM     26  S2  SGN d 378      16.964  22.829  18.516  0.00  0.00     0.251 S 
ATOM     27  O4S SGN d 378      17.954  22.464  17.523  0.00  0.00    -0.572 OA
ATOM     28  C3  SGN d 378      14.610  18.655  21.605  0.00  0.00     0.083 C 
ATOM     29  C5  SGN d 378      15.177  21.029  21.093  0.00  0.00     0.091 C 
ATOM     30  C2  SGN d 378      13.737  18.688  20.363  0.00  0.00     0.081 C 
ATOM     31  C1  SGN d 378      13.265  20.105  20.064  0.00  0.00     0.147 C 
ATOM     32  O3  SGN d 378      15.117  17.349  21.737  0.00  0.00    -0.391 OA
ATOM     33  O3S SGN d 378      13.134  15.929  19.039  0.00  0.00    -0.296 OA
ATOM     34  O4  SGN d 378      16.462  19.812  22.668  0.00  0.00    -0.348 OA
ATOM     35  N   SGN d 378      12.603  17.808  20.557  0.00  0.00    -0.210 NA
ATOM     36  O6  SGN d 378      16.743  21.632  19.468  0.00  0.00    -0.254 OA
ATOM     37  O1  SGN d 378      12.424  20.547  21.102  0.00  0.00    -0.369 OA
ATOM     38  O2S SGN d 378      11.851  17.797  18.231  0.00  0.00    -0.296 OA
ATOM     39  O6S SGN d 378      17.381  23.947  19.352  0.00  0.00    -0.572 OA
ATOM     40  O5S SGN d 378      15.668  23.084  17.898  0.00  0.00    -0.572 OA
ATOM     41  O5  SGN d 378      14.367  20.974  19.937  0.00  0.00    -0.350 OA
ATOM     42  O1S SGN d 378      10.878  16.222  19.846  0.00  0.00    -0.296 OA
ATOM     43  H   SGN d 378      16.392  19.302  20.696  0.00  0.00     0.091 H 
ATOM     44  H   SGN d 378      17.148  21.754  21.466  0.00  0.00     0.080 H 
ATOM     45  H   SGN d 378      16.073  22.968  20.878  0.00  0.00     0.080 H 
ATOM     46  H   SGN d 378      14.048  18.915  22.478  0.00  0.00     0.089 H 
ATOM     47  H   SGN d 378      14.581  21.379  21.910  0.00  0.00     0.090 H 
ATOM     48  H   SGN d 378      14.312  18.354  19.525  0.00  0.00     0.076 H 
ATOM     49  H   SGN d 378      12.724  20.103  19.141  0.00  0.00     0.131 H 
ATOM     50  H   SGN d 378      15.625  17.118  20.944  0.00  0.00     0.210 HD
ATOM     51  H   SGN d 378      13.270  15.340  19.797  0.00  0.00     0.231 HD
ATOM     52  H   SGN d 378      12.846  17.180  21.323  0.00  0.00     0.140 HD
ATOM     53  H   SGN d 378      12.915  20.547  21.938  0.00  0.00     0.212 HD
ATOM     54  H   SGN d 378      11.151  18.426  18.463  0.00  0.00     0.231 HD
ATOM     55  H   SGN d 378      10.200  16.886  20.046  0.00  0.00     0.231 HD
ENDROOT
TORSDOF 16
ENDMDL
MODEL 41
REMARK VINA RESULT:      -3.3      2.130      6.003
REMARK  0 active torsions:
REMARK  status: ('A' for Active; 'I' for Inactive)
REMARK       I    between atoms: C4_5  and  O4_20 
REMARK       I    between atoms: C6_6  and  C5_15 
REMARK       I    between atoms: C6_6  and  O6_25 
REMARK       I    between atoms: S1_7  and  N_21 
REMARK       I    between atoms: S1_7  and  O1S_34 
REMARK       I    between atoms: S1_7  and  O2S_27 
REMARK       I    between atoms: S1_7  and  O3S_19 
REMARK       I    between atoms: C5_8  and  C6_35 
REMARK       I    between atoms: S2_9  and  O6_25 
REMARK       I    between atoms: C1_10  and  O4_20 
REMARK       I    between atoms: C3_14  and  O3_18 
REMARK       I    between atoms: C2_16  and  N_21 
REMARK       I    between atoms: C1_17  and  O1_26 
REMARK       I    between atoms: C2_22  and  O2_29 
REMARK       I    between atoms: S_23  and  O2_29 
REMARK       I    between atoms: C3_30  and  O3_31 
ROOT
ATOM      1  O3S IXD d 379      16.434  19.884  24.130  0.00  0.00    -0.572 OA
ATOM      2  O2S IXD d 379      16.289  19.968  26.548  0.00  0.00    -0.572 OA
ATOM      3  O5  IXD d 379      17.287  23.820  24.463  0.00  0.00    -0.343 OA
ATOM      4  O62 IXD d 379      18.238  26.500  23.870  0.00  0.00    -0.646 OA
ATOM      5  C5  IXD d 379      18.519  24.471  24.878  0.00  0.00     0.127 C 
ATOM      6  C1  IXD d 379      17.426  22.670  23.620  0.00  0.00     0.161 C 
ATOM      7  O1S IXD d 379      18.039  18.707  25.463  0.00  0.00    -0.572 OA
ATOM      8  O61 IXD d 379      19.391  26.428  25.766  0.00  0.00    -0.646 OA
ATOM      9  C2  IXD d 379      18.524  21.759  24.162  0.00  0.00     0.132 C 
ATOM     10  S   IXD d 379      17.217  19.938  25.391  0.00  0.00     0.252 S 
ATOM     11  C4  IXD d 379      19.535  23.704  25.249  0.00  0.00    -0.005 C 
ATOM     12  O2  IXD d 379      18.102  21.198  25.401  0.00  0.00    -0.244 OA
ATOM     13  C3  IXD d 379      19.809  22.569  24.315  0.00  0.00     0.069 C 
ATOM     14  O3  IXD d 379      20.906  21.833  24.818  0.00  0.00    -0.393 OA
ATOM     15  C6  IXD d 379      18.717  25.895  24.843  0.00  0.00     0.203 C 
ATOM     16  H   IXD d 379      17.691  24.998  25.303  0.00  0.00     0.100 H 
ATOM     17  H   IXD d 379      16.414  22.414  23.383  0.00  0.00     0.133 H 
ATOM     18  H   IXD d 379      18.714  20.953  23.486  0.00  0.00     0.097 H 
ATOM     19  H   IXD d 379      19.317  23.300  26.215  0.00  0.00     0.041 H 
ATOM     20  H   IXD d 379      20.407  24.324  25.249  0.00  0.00     0.041 H 
ATOM     21  H   IXD d 379      20.088  22.894  23.334  0.00  0.00     0.087 H 
ATOM     22  H   IXD d 379      20.699  21.515  25.711  0.00  0.00     0.210 HD
ATOM     23  C4  SGN d 378      18.393  22.450  21.443  0.00  0.00     0.095 C 
ATOM     24  C6  SGN d 378      17.346  24.567  20.805  0.00  0.00     0.067 C 
ATOM     25  S1  SGN d 378      18.489  18.288  18.583  0.00  0.00     0.156 S 
ATOM     26  S2  SGN d 378      17.687  25.977  18.752  0.00  0.00     0.251 S 
ATOM     27  O4S SGN d 378      18.846  26.566  18.112  0.00  0.00    -0.572 OA
ATOM     28  C3  SGN d 378      18.333  20.933  21.329  0.00  0.00     0.083 C 
ATOM     29  C5  SGN d 378      17.146  23.069  20.832  0.00  0.00     0.091 C 
ATOM     30  C2  SGN d 378      18.046  20.541  19.890  0.00  0.00     0.081 C 
ATOM     31  C1  SGN d 378      16.804  21.250  19.368  0.00  0.00     0.147 C 
ATOM     32  O3  SGN d 378      19.561  20.352  21.694  0.00  0.00    -0.391 OA
ATOM     33  O3S SGN d 378      19.942  18.396  18.651  0.00  0.00    -0.296 OA
ATOM     34  O4  SGN d 378      18.462  22.867  22.792  0.00  0.00    -0.348 OA
ATOM     35  N   SGN d 378      17.877  19.104  19.815  0.00  0.00    -0.210 NA
ATOM     36  O6  SGN d 378      18.154  24.837  19.684  0.00  0.00    -0.254 OA
ATOM     37  O1  SGN d 378      15.677  20.811  20.087  0.00  0.00    -0.369 OA
ATOM     38  O2S SGN d 378      17.973  18.936  17.378  0.00  0.00    -0.296 OA
ATOM     39  O6S SGN d 378      16.957  26.919  19.590  0.00  0.00    -0.572 OA
ATOM     40  O5S SGN d 378      16.808  25.348  17.772  0.00  0.00    -0.572 OA
ATOM     41  O5  SGN d 378      16.942  22.647  19.500  0.00  0.00    -0.350 OA
ATOM     42  O1S SGN d 378      18.049  16.903  18.755  0.00  0.00    -0.296 OA
ATOM     43  H   SGN d 378      19.272  22.769  20.924  0.00  0.00     0.091 H 
ATOM     44  H   SGN d 378      17.833  24.892  21.700  0.00  0.00     0.080 H 
ATOM     45  H   SGN d 378      16.411  25.083  20.744  0.00  0.00     0.080 H 
ATOM     46  H   SGN d 378      17.561  20.586  21.984  0.00  0.00     0.089 H 
ATOM     47  H   SGN d 378      16.301  22.771  21.416  0.00  0.00     0.090 H 
ATOM     48  H   SGN d 378      18.872  20.839  19.278  0.00  0.00     0.076 H 
ATOM     49  H   SGN d 378      16.680  21.016  18.331  0.00  0.00     0.131 H 
ATOM     50  H   SGN d 378      20.258  20.668  21.098  0.00  0.00     0.210 HD
ATOM     51  H   SGN d 378      20.261  17.961  19.457  0.00  0.00     0.231 HD
ATOM     52  H   SGN d 378      18.292  18.715  20.661  0.00  0.00     0.140 HD
ATOM     53  H   SGN d 378      15.791  21.023  21.027  0.00  0.00     0.212 HD
ATOM     54  H   SGN d 378      17.007  18.852  17.354  0.00  0.00     0.231 HD
ATOM     55  H   SGN d 378      17.081  16.864  18.705  0.00  0.00     0.231 HD
ENDROOT
TORSDOF 16
ENDMDL
MODEL 42
REMARK VINA RESULT:      -3.2      2.249      5.954
REMARK  0 active torsions:
REMARK  status: ('A' for Active; 'I' for Inactive)
REMARK       I    between atoms: C4_5  and  O4_20 
REMARK       I    between atoms: C6_6  and  C5_15 
REMARK       I    between atoms: C6_6  and  O6_25 
REMARK       I    between atoms: S1_7  and  N_21 
REMARK       I    between atoms: S1_7  and  O1S_34 
REMARK       I    between atoms: S1_7  and  O2S_27 
REMARK       I    between atoms: S1_7  and  O3S_19 
REMARK       I    between atoms: C5_8  and  C6_35 
REMARK       I    between atoms: S2_9  and  O6_25 
REMARK       I    between atoms: C1_10  and  O4_20 
REMARK       I    between atoms: C3_14  and  O3_18 
REMARK       I    between atoms: C2_16  and  N_21 
REMARK       I    between atoms: C1_17  and  O1_26 
REMARK       I    between atoms: C2_22  and  O2_29 
REMARK       I    between atoms: S_23  and  O2_29 
REMARK       I    between atoms: C3_30  and  O3_31 
ROOT
ATOM      1  O3S IXD d 379      16.867  25.208  19.789  0.00  0.00    -0.572 OA
ATOM      2  O2S IXD d 379      16.868  25.420  17.375  0.00  0.00    -0.572 OA
ATOM      3  O5  IXD d 379      17.698  21.327  19.030  0.00  0.00    -0.343 OA
ATOM      4  O62 IXD d 379      18.583  18.579  19.347  0.00  0.00    -0.646 OA
ATOM      5  C5  IXD d 379      18.946  20.710  18.613  0.00  0.00     0.127 C 
ATOM      6  C1  IXD d 379      17.797  22.364  20.014  0.00  0.00     0.161 C 
ATOM      7  O1S IXD d 379      18.562  26.509  18.707  0.00  0.00    -0.572 OA
ATOM      8  O61 IXD d 379      19.850  18.859  17.546  0.00  0.00    -0.646 OA
ATOM      9  C2  IXD d 379      18.936  23.314  19.652  0.00  0.00     0.132 C 
ATOM     10  S   IXD d 379      17.724  25.294  18.580  0.00  0.00     0.252 S 
ATOM     11  C4  IXD d 379      19.990  21.497  18.399  0.00  0.00    -0.005 C 
ATOM     12  O2  IXD d 379      18.596  24.029  18.468  0.00  0.00    -0.244 OA
ATOM     13  C3  IXD d 379      20.220  22.507  19.478  0.00  0.00     0.069 C 
ATOM     14  O3  IXD d 379      21.352  23.279  19.134  0.00  0.00    -0.393 OA
ATOM     15  C6  IXD d 379      19.127  19.288  18.485  0.00  0.00     0.203 C 
ATOM     16  H   IXD d 379      18.140  20.253  18.079  0.00  0.00     0.100 H 
ATOM     17  H   IXD d 379      16.776  22.607  20.220  0.00  0.00     0.133 H 
ATOM     18  H   IXD d 379      19.093  24.030  20.432  0.00  0.00     0.097 H 
ATOM     19  H   IXD d 379      19.835  22.019  17.477  0.00  0.00     0.041 H 
ATOM     20  H   IXD d 379      20.854  20.867  18.374  0.00  0.00     0.041 H 
ATOM     21  H   IXD d 379      20.435  22.061  20.427  0.00  0.00     0.087 H 
ATOM     22  H   IXD d 379      21.203  23.706  18.275  0.00  0.00     0.210 HD
ATOM     23  C4  SGN d 378      18.633  22.302  22.255  0.00  0.00     0.095 C 
ATOM     24  C6  SGN d 378      17.527  20.142  22.568  0.00  0.00     0.067 C 
ATOM     25  S1  SGN d 378      18.599  26.085  25.601  0.00  0.00     0.156 S 
ATOM     26  S2  SGN d 378      17.729  18.489  24.450  0.00  0.00     0.251 S 
ATOM     27  O4S SGN d 378      18.841  17.806  25.080  0.00  0.00    -0.572 OA
ATOM     28  C3  SGN d 378      18.582  23.795  22.549  0.00  0.00     0.083 C 
ATOM     29  C5  SGN d 378      17.345  21.636  22.712  0.00  0.00     0.091 C 
ATOM     30  C2  SGN d 378      18.213  24.015  24.005  0.00  0.00     0.081 C 
ATOM     31  C1  SGN d 378      16.934  23.271  24.363  0.00  0.00     0.147 C 
ATOM     32  O3  SGN d 378      19.836  24.395  22.330  0.00  0.00    -0.391 OA
ATOM     33  O3S SGN d 378      20.052  25.961  25.606  0.00  0.00    -0.296 OA
ATOM     34  O4  SGN d 378      18.779  22.050  20.871  0.00  0.00    -0.348 OA
ATOM     35  N   SGN d 378      18.054  25.435  24.245  0.00  0.00    -0.210 NA
ATOM     36  O6  SGN d 378      18.263  19.725  23.692  0.00  0.00    -0.254 OA
ATOM     37  O1  SGN d 378      15.857  23.813  23.638  0.00  0.00    -0.369 OA
ATOM     38  O2S SGN d 378      18.004  25.306  26.685  0.00  0.00    -0.296 OA
ATOM     39  O6S SGN d 378      17.041  17.668  23.462  0.00  0.00    -0.572 OA
ATOM     40  O5S SGN d 378      16.799  19.010  25.446  0.00  0.00    -0.572 OA
ATOM     41  O5  SGN d 378      17.065  21.897  24.071  0.00  0.00    -0.350 OA
ATOM     42  O1S SGN d 378      18.184  27.488  25.573  0.00  0.00    -0.296 OA
ATOM     43  H   SGN d 378      19.476  21.907  22.782  0.00  0.00     0.091 H 
ATOM     44  H   SGN d 378      18.065  19.920  21.669  0.00  0.00     0.080 H 
ATOM     45  H   SGN d 378      16.585  19.639  22.510  0.00  0.00     0.080 H 
ATOM     46  H   SGN d 378      17.854  24.232  21.897  0.00  0.00     0.089 H 
ATOM     47  H   SGN d 378      16.540  22.017  22.119  0.00  0.00     0.090 H 
ATOM     48  H   SGN d 378      18.996  23.631  24.624  0.00  0.00     0.076 H 
ATOM     49  H   SGN d 378      16.750  23.379  25.412  0.00  0.00     0.131 H 
ATOM     50  H   SGN d 378      20.492  23.996  22.923  0.00  0.00     0.210 HD
ATOM     51  H   SGN d 378      20.424  26.485  24.879  0.00  0.00     0.231 HD
ATOM     52  H   SGN d 378      18.523  25.917  23.479  0.00  0.00     0.140 HD
ATOM     53  H   SGN d 378      16.026  23.714  22.688  0.00  0.00     0.212 HD
ATOM     54  H   SGN d 378      17.039  25.403  26.663  0.00  0.00     0.231 HD
ATOM     55  H   SGN d 378      17.216  27.539  25.570  0.00  0.00     0.231 HD
ENDROOT
TORSDOF 16
ENDMDL
MODEL 43
REMARK VINA RESULT:      -3.1      2.760      4.032
REMARK  0 active torsions:
REMARK  status: ('A' for Active; 'I' for Inactive)
REMARK       I    between atoms: C4_5  and  O4_20 
REMARK       I    between atoms: C6_6  and  C5_15 
REMARK       I    between atoms: C6_6  and  O6_25 
REMARK       I    between atoms: S1_7  and  N_21 
REMARK       I    between atoms: S1_7  and  O1S_34 
REMARK       I    between atoms: S1_7  and  O2S_27 
REMARK       I    between atoms: S1_7  and  O3S_19 
REMARK       I    between atoms: C5_8  and  C6_35 
REMARK       I    between atoms: S2_9  and  O6_25 
REMARK       I    between atoms: C1_10  and  O4_20 
REMARK       I    between atoms: C3_14  and  O3_18 
REMARK       I    between atoms: C2_16  and  N_21 
REMARK       I    between atoms: C1_17  and  O1_26 
REMARK       I    between atoms: C2_22  and  O2_29 
REMARK       I    between atoms: S_23  and  O2_29 
REMARK       I    between atoms: C3_30  and  O3_31 
ROOT
ATOM      1  O3S IXD d 379      18.710  17.823  19.702  0.00  0.00    -0.572 OA
ATOM      2  O2S IXD d 379      20.704  17.150  18.502  0.00  0.00    -0.572 OA
ATOM      3  O5  IXD d 379      21.241  20.259  21.699  0.00  0.00    -0.343 OA
ATOM      4  O62 IXD d 379      22.278  22.433  23.323  0.00  0.00    -0.646 OA
ATOM      5  C5  IXD d 379      21.851  21.510  21.279  0.00  0.00     0.127 C 
ATOM      6  C1  IXD d 379      19.871  20.061  21.330  0.00  0.00     0.161 C 
ATOM      7  O1S IXD d 379      18.933  18.342  17.375  0.00  0.00    -0.572 OA
ATOM      8  O61 IXD d 379      23.648  22.929  21.648  0.00  0.00    -0.646 OA
ATOM      9  C2  IXD d 379      19.666  20.458  19.870  0.00  0.00     0.132 C 
ATOM     10  S   IXD d 379      19.680  18.213  18.648  0.00  0.00     0.252 S 
ATOM     11  C4  IXD d 379      21.602  21.943  20.052  0.00  0.00    -0.005 C 
ATOM     12  O2  IXD d 379      20.359  19.541  19.030  0.00  0.00    -0.244 OA
ATOM     13  C3  IXD d 379      20.156  21.890  19.672  0.00  0.00     0.069 C 
ATOM     14  O3  IXD d 379      20.024  22.375  18.351  0.00  0.00    -0.393 OA
ATOM     15  C6  IXD d 379      22.653  22.334  22.143  0.00  0.00     0.203 C 
ATOM     16  H   IXD d 379      22.577  20.936  21.815  0.00  0.00     0.100 H 
ATOM     17  H   IXD d 379      19.619  19.135  21.803  0.00  0.00     0.133 H 
ATOM     18  H   IXD d 379      18.629  20.420  19.611  0.00  0.00     0.097 H 
ATOM     19  H   IXD d 379      22.153  21.338  19.362  0.00  0.00     0.041 H 
ATOM     20  H   IXD d 379      21.894  22.972  20.021  0.00  0.00     0.041 H 
ATOM     21  H   IXD d 379      19.541  22.515  20.286  0.00  0.00     0.087 H 
ATOM     22  H   IXD d 379      20.567  21.836  17.754  0.00  0.00     0.210 HD
ATOM     23  C4  SGN d 378      17.916  21.319  21.891  0.00  0.00     0.095 C 
ATOM     24  C6  SGN d 378      18.757  21.537  24.178  0.00  0.00     0.067 C 
ATOM     25  S1  SGN d 378      13.147  20.209  20.653  0.00  0.00     0.156 S 
ATOM     26  S2  SGN d 378      17.925  22.967  26.070  0.00  0.00     0.251 S 
ATOM     27  O4S SGN d 378      17.663  24.384  26.226  0.00  0.00    -0.572 OA
ATOM     28  C3  SGN d 378      16.928  20.608  20.977  0.00  0.00     0.083 C 
ATOM     29  C5  SGN d 378      17.905  20.679  23.270  0.00  0.00     0.091 C 
ATOM     30  C2  SGN d 378      15.570  20.534  21.653  0.00  0.00     0.081 C 
ATOM     31  C1  SGN d 378      15.684  19.916  23.041  0.00  0.00     0.147 C 
ATOM     32  O3  SGN d 378      16.765  21.309  19.768  0.00  0.00    -0.391 OA
ATOM     33  O3S SGN d 378      13.137  21.488  19.951  0.00  0.00    -0.296 OA
ATOM     34  O4  SGN d 378      19.236  21.240  21.391  0.00  0.00    -0.348 OA
ATOM     35  N   SGN d 378      14.670  19.755  20.827  0.00  0.00    -0.210 NA
ATOM     36  O6  SGN d 378      17.951  22.624  24.563  0.00  0.00    -0.254 OA
ATOM     37  O1  SGN d 378      16.097  18.576  22.925  0.00  0.00    -0.369 OA
ATOM     38  O2S SGN d 378      12.614  20.353  22.007  0.00  0.00    -0.296 OA
ATOM     39  O6S SGN d 378      19.220  22.565  26.605  0.00  0.00    -0.572 OA
ATOM     40  O5S SGN d 378      16.846  22.166  26.637  0.00  0.00    -0.572 OA
ATOM     41  O5  SGN d 378      16.608  20.637  23.826  0.00  0.00    -0.350 OA
ATOM     42  O1S SGN d 378      12.499  19.162  19.862  0.00  0.00    -0.296 OA
ATOM     43  H   SGN d 378      17.613  22.344  21.942  0.00  0.00     0.091 H 
ATOM     44  H   SGN d 378      19.623  21.884  23.654  0.00  0.00     0.080 H 
ATOM     45  H   SGN d 378      19.098  20.984  25.028  0.00  0.00     0.080 H 
ATOM     46  H   SGN d 378      17.312  19.629  20.778  0.00  0.00     0.089 H 
ATOM     47  H   SGN d 378      18.270  19.678  23.179  0.00  0.00     0.090 H 
ATOM     48  H   SGN d 378      15.185  21.525  21.770  0.00  0.00     0.076 H 
ATOM     49  H   SGN d 378      14.727  19.956  23.519  0.00  0.00     0.131 H 
ATOM     50  H   SGN d 378      16.416  22.194  19.952  0.00  0.00     0.210 HD
ATOM     51  H   SGN d 378      13.494  21.368  19.057  0.00  0.00     0.231 HD
ATOM     52  H   SGN d 378      15.078  19.729  19.893  0.00  0.00     0.140 HD
ATOM     53  H   SGN d 378      16.964  18.542  22.491  0.00  0.00     0.212 HD
ATOM     54  H   SGN d 378      12.630  19.493  22.454  0.00  0.00     0.231 HD
ATOM     55  H   SGN d 378      12.521  18.326  20.353  0.00  0.00     0.231 HD
ENDROOT
TORSDOF 16
ENDMDL
MODEL 44
REMARK VINA RESULT:      -3.1      2.896      3.797
REMARK  0 active torsions:
REMARK  status: ('A' for Active; 'I' for Inactive)
REMARK       I    between atoms: C4_5  and  O4_20 
REMARK       I    between atoms: C6_6  and  C5_15 
REMARK       I    between atoms: C6_6  and  O6_25 
REMARK       I    between atoms: S1_7  and  N_21 
REMARK       I    between atoms: S1_7  and  O1S_34 
REMARK       I    between atoms: S1_7  and  O2S_27 
REMARK       I    between atoms: S1_7  and  O3S_19 
REMARK       I    between atoms: C5_8  and  C6_35 
REMARK       I    between atoms: S2_9  and  O6_25 
REMARK       I    between atoms: C1_10  and  O4_20 
REMARK       I    between atoms: C3_14  and  O3_18 
REMARK       I    between atoms: C2_16  and  N_21 
REMARK       I    between atoms: C1_17  and  O1_26 
REMARK       I    between atoms: C2_22  and  O2_29 
REMARK       I    between atoms: S_23  and  O2_29 
REMARK       I    between atoms: C3_30  and  O3_31 
ROOT
ATOM      1  O3S IXD d 379      20.701  22.540  19.449  0.00  0.00    -0.572 OA
ATOM      2  O2S IXD d 379      19.745  23.352  17.375  0.00  0.00    -0.572 OA
ATOM      3  O5  IXD d 379      17.534  24.390  21.145  0.00  0.00    -0.343 OA
ATOM      4  O62 IXD d 379      15.472  25.153  23.044  0.00  0.00    -0.646 OA
ATOM      5  C5  IXD d 379      16.141  23.979  21.203  0.00  0.00     0.127 C 
ATOM      6  C1  IXD d 379      18.512  23.359  21.331  0.00  0.00     0.161 C 
ATOM      7  O1S IXD d 379      19.828  20.986  17.850  0.00  0.00    -0.572 OA
ATOM      8  O61 IXD d 379      13.972  24.759  21.455  0.00  0.00    -0.646 OA
ATOM      9  C2  IXD d 379      18.133  22.131  20.507  0.00  0.00     0.132 C 
ATOM     10  S   IXD d 379      19.629  22.329  18.443  0.00  0.00     0.252 S 
ATOM     11  C4  IXD d 379      15.797  22.854  20.592  0.00  0.00    -0.005 C 
ATOM     12  O2  IXD d 379      18.250  22.438  19.121  0.00  0.00    -0.244 OA
ATOM     13  C3  IXD d 379      16.713  21.706  20.874  0.00  0.00     0.069 C 
ATOM     14  O3  IXD d 379      16.242  20.576  20.170  0.00  0.00    -0.393 OA
ATOM     15  C6  IXD d 379      15.132  24.689  21.943  0.00  0.00     0.203 C 
ATOM     16  H   IXD d 379      16.182  25.032  21.022  0.00  0.00     0.100 H 
ATOM     17  H   IXD d 379      19.438  23.895  21.328  0.00  0.00     0.133 H 
ATOM     18  H   IXD d 379      18.792  21.316  20.719  0.00  0.00     0.097 H 
ATOM     19  H   IXD d 379      15.795  23.031  19.537  0.00  0.00     0.041 H 
ATOM     20  H   IXD d 379      14.833  22.581  20.965  0.00  0.00     0.041 H 
ATOM     21  H   IXD d 379      16.731  21.432  21.908  0.00  0.00     0.087 H 
ATOM     22  H   IXD d 379      16.208  20.777  19.221  0.00  0.00     0.210 HD
ATOM     23  C4  SGN d 378      18.911  21.917  23.197  0.00  0.00     0.095 C 
ATOM     24  C6  SGN d 378      18.540  23.815  24.695  0.00  0.00     0.067 C 
ATOM     25  S1  SGN d 378      22.638  18.540  23.667  0.00  0.00     0.156 S 
ATOM     26  S2  SGN d 378      18.280  23.865  27.195  0.00  0.00     0.251 S 
ATOM     27  O4S SGN d 378      17.410  23.187  28.134  0.00  0.00    -0.572 OA
ATOM     28  C3  SGN d 378      19.948  21.007  22.553  0.00  0.00     0.083 C 
ATOM     29  C5  SGN d 378      19.600  23.059  23.926  0.00  0.00     0.091 C 
ATOM     30  C2  SGN d 378      20.978  20.595  23.590  0.00  0.00     0.081 C 
ATOM     31  C1  SGN d 378      21.571  21.812  24.286  0.00  0.00     0.147 C 
ATOM     32  O3  SGN d 378      19.350  19.835  22.054  0.00  0.00    -0.391 OA
ATOM     33  O3S SGN d 378      21.582  17.540  23.781  0.00  0.00    -0.296 OA
ATOM     34  O4  SGN d 378      18.046  22.483  22.232  0.00  0.00    -0.348 OA
ATOM     35  N   SGN d 378      22.021  19.826  22.942  0.00  0.00    -0.210 NA
ATOM     36  O6  SGN d 378      18.300  23.074  25.868  0.00  0.00    -0.254 OA
ATOM     37  O1  SGN d 378      22.293  22.580  23.353  0.00  0.00    -0.369 OA
ATOM     38  O2S SGN d 378      23.071  18.995  24.987  0.00  0.00    -0.296 OA
ATOM     39  O6S SGN d 378      17.826  25.210  26.864  0.00  0.00    -0.572 OA
ATOM     40  O5S SGN d 378      19.660  23.874  27.668  0.00  0.00    -0.572 OA
ATOM     41  O5  SGN d 378      20.550  22.595  24.863  0.00  0.00    -0.350 OA
ATOM     42  O1S SGN d 378      23.725  18.072  22.807  0.00  0.00    -0.296 OA
ATOM     43  H   SGN d 378      18.345  21.315  23.876  0.00  0.00     0.091 H 
ATOM     44  H   SGN d 378      17.644  23.890  24.115  0.00  0.00     0.080 H 
ATOM     45  H   SGN d 378      18.859  24.810  24.922  0.00  0.00     0.080 H 
ATOM     46  H   SGN d 378      20.405  21.549  21.751  0.00  0.00     0.089 H 
ATOM     47  H   SGN d 378      20.103  23.666  23.203  0.00  0.00     0.090 H 
ATOM     48  H   SGN d 378      20.499  19.995  24.336  0.00  0.00     0.076 H 
ATOM     49  H   SGN d 378      22.228  21.483  25.063  0.00  0.00     0.131 H 
ATOM     50  H   SGN d 378      18.938  19.347  22.784  0.00  0.00     0.210 HD
ATOM     51  H   SGN d 378      21.311  17.255  22.895  0.00  0.00     0.231 HD
ATOM     52  H   SGN d 378      21.642  19.507  22.051  0.00  0.00     0.140 HD
ATOM     53  H   SGN d 378      21.696  22.877  22.649  0.00  0.00     0.212 HD
ATOM     54  H   SGN d 378      23.772  19.658  24.888  0.00  0.00     0.231 HD
ATOM     55  H   SGN d 378      24.410  18.756  22.751  0.00  0.00     0.231 HD
ENDROOT
TORSDOF 16
ENDMDL
MODEL 45
REMARK VINA RESULT:      -2.8      2.809      4.928
REMARK  0 active torsions:
REMARK  status: ('A' for Active; 'I' for Inactive)
REMARK       I    between atoms: C4_5  and  O4_20 
REMARK       I    between atoms: C6_6  and  C5_15 
REMARK       I    between atoms: C6_6  and  O6_25 
REMARK       I    between atoms: S1_7  and  N_21 
REMARK       I    between atoms: S1_7  and  O1S_34 
REMARK       I    between atoms: S1_7  and  O2S_27 
REMARK       I    between atoms: S1_7  and  O3S_19 
REMARK       I    between atoms: C5_8  and  C6_35 
REMARK       I    between atoms: S2_9  and  O6_25 
REMARK       I    between atoms: C1_10  and  O4_20 
REMARK       I    between atoms: C3_14  and  O3_18 
REMARK       I    between atoms: C2_16  and  N_21 
REMARK       I    between atoms: C1_17  and  O1_26 
REMARK       I    between atoms: C2_22  and  O2_29 
REMARK       I    between atoms: S_23  and  O2_29 
REMARK       I    between atoms: C3_30  and  O3_31 
ROOT
ATOM      1  O3S IXD d 379      16.479  23.018  17.749  0.00  0.00    -0.572 OA
ATOM      2  O2S IXD d 379      16.333  25.407  17.375  0.00  0.00    -0.572 OA
ATOM      3  O5  IXD d 379      18.349  24.090  21.166  0.00  0.00    -0.343 OA
ATOM      4  O62 IXD d 379      19.451  24.014  23.854  0.00  0.00    -0.646 OA
ATOM      5  C5  IXD d 379      17.795  24.616  22.403  0.00  0.00     0.127 C 
ATOM      6  C1  IXD d 379      17.608  23.042  20.529  0.00  0.00     0.161 C 
ATOM      7  O1S IXD d 379      14.341  24.097  17.756  0.00  0.00    -0.572 OA
ATOM      8  O61 IXD d 379      18.297  25.857  24.296  0.00  0.00    -0.646 OA
ATOM      9  C2  IXD d 379      16.123  23.398  20.508  0.00  0.00     0.132 C 
ATOM     10  S   IXD d 379      15.765  24.263  18.129  0.00  0.00     0.252 S 
ATOM     11  C4  IXD d 379      16.488  24.831  22.457  0.00  0.00    -0.005 C 
ATOM     12  O2  IXD d 379      15.917  24.510  19.641  0.00  0.00    -0.244 OA
ATOM     13  C3  IXD d 379      15.665  23.698  21.933  0.00  0.00     0.069 C 
ATOM     14  O3  IXD d 379      14.300  24.049  22.045  0.00  0.00    -0.393 OA
ATOM     15  C6  IXD d 379      18.574  24.852  23.588  0.00  0.00     0.203 C 
ATOM     16  H   IXD d 379      18.703  25.136  22.184  0.00  0.00     0.100 H 
ATOM     17  H   IXD d 379      18.231  22.765  19.705  0.00  0.00     0.133 H 
ATOM     18  H   IXD d 379      15.544  22.580  20.135  0.00  0.00     0.097 H 
ATOM     19  H   IXD d 379      16.266  25.704  21.880  0.00  0.00     0.041 H 
ATOM     20  H   IXD d 379      16.235  24.947  23.490  0.00  0.00     0.041 H 
ATOM     21  H   IXD d 379      15.792  22.796  22.494  0.00  0.00     0.087 H 
ATOM     22  H   IXD d 379      14.135  24.866  21.549  0.00  0.00     0.210 HD
ATOM     23  C4  SGN d 378      17.018  20.860  21.312  0.00  0.00     0.095 C 
ATOM     24  C6  SGN d 378      19.258  20.639  22.270  0.00  0.00     0.067 C 
ATOM     25  S1  SGN d 378      14.612  17.261  18.711  0.00  0.00     0.156 S 
ATOM     26  S2  SGN d 378      20.180  18.891  23.823  0.00  0.00     0.251 S 
ATOM     27  O4S SGN d 378      19.775  18.371  25.113  0.00  0.00    -0.572 OA
ATOM     28  C3  SGN d 378      16.093  20.461  20.171  0.00  0.00     0.083 C 
ATOM     29  C5  SGN d 378      18.433  20.382  21.030  0.00  0.00     0.091 C 
ATOM     30  C2  SGN d 378      16.238  18.974  19.895  0.00  0.00     0.081 C 
ATOM     31  C1  SGN d 378      17.697  18.600  19.669  0.00  0.00     0.147 C 
ATOM     32  O3  SGN d 378      14.748  20.704  20.503  0.00  0.00    -0.391 OA
ATOM     33  O3S SGN d 378      13.583  17.344  19.742  0.00  0.00    -0.296 OA
ATOM     34  O4  SGN d 378      17.064  22.264  21.476  0.00  0.00    -0.348 OA
ATOM     35  N   SGN d 378      15.443  18.628  18.735  0.00  0.00    -0.210 NA
ATOM     36  O6  SGN d 378      18.970  19.588  23.160  0.00  0.00    -0.254 OA
ATOM     37  O1  SGN d 378      18.165  19.226  18.499  0.00  0.00    -0.369 OA
ATOM     38  O2S SGN d 378      15.573  16.203  19.016  0.00  0.00    -0.296 OA
ATOM     39  O6S SGN d 378      21.232  19.895  23.916  0.00  0.00    -0.572 OA
ATOM     40  O5S SGN d 378      20.557  17.812  22.916  0.00  0.00    -0.572 OA
ATOM     41  O5  SGN d 378      18.483  18.995  20.771  0.00  0.00    -0.350 OA
ATOM     42  O1S SGN d 378      14.022  17.169  17.375  0.00  0.00    -0.296 OA
ATOM     43  H   SGN d 378      16.632  20.409  22.202  0.00  0.00     0.091 H 
ATOM     44  H   SGN d 378      18.989  21.579  22.706  0.00  0.00     0.080 H 
ATOM     45  H   SGN d 378      20.302  20.681  22.041  0.00  0.00     0.080 H 
ATOM     46  H   SGN d 378      16.364  21.040  19.312  0.00  0.00     0.089 H 
ATOM     47  H   SGN d 378      18.799  20.902  20.170  0.00  0.00     0.090 H 
ATOM     48  H   SGN d 378      15.891  18.427  20.746  0.00  0.00     0.076 H 
ATOM     49  H   SGN d 378      17.771  17.538  19.560  0.00  0.00     0.131 H 
ATOM     50  H   SGN d 378      14.507  20.177  21.281  0.00  0.00     0.210 HD
ATOM     51  H   SGN d 378      12.959  18.051  19.519  0.00  0.00     0.231 HD
ATOM     52  H   SGN d 378      14.771  19.383  18.603  0.00  0.00     0.140 HD
ATOM     53  H   SGN d 378      18.097  20.189  18.599  0.00  0.00     0.212 HD
ATOM     54  H   SGN d 378      16.247  16.166  18.319  0.00  0.00     0.231 HD
ATOM     55  H   SGN d 378      14.728  17.115  16.713  0.00  0.00     0.231 HD
ENDROOT
TORSDOF 16
ENDMDL
MODEL 46
REMARK VINA RESULT:      -2.8      3.129      6.610
REMARK  0 active torsions:
REMARK  status: ('A' for Active; 'I' for Inactive)
REMARK       I    between atoms: C4_5  and  O4_20 
REMARK       I    between atoms: C6_6  and  C5_15 
REMARK       I    between atoms: C6_6  and  O6_25 
REMARK       I    between atoms: S1_7  and  N_21 
REMARK       I    between atoms: S1_7  and  O1S_34 
REMARK       I    between atoms: S1_7  and  O2S_27 
REMARK       I    between atoms: S1_7  and  O3S_19 
REMARK       I    between atoms: C5_8  and  C6_35 
REMARK       I    between atoms: S2_9  and  O6_25 
REMARK       I    between atoms: C1_10  and  O4_20 
REMARK       I    between atoms: C3_14  and  O3_18 
REMARK       I    between atoms: C2_16  and  N_21 
REMARK       I    between atoms: C1_17  and  O1_26 
REMARK       I    between atoms: C2_22  and  O2_29 
REMARK       I    between atoms: S_23  and  O2_29 
REMARK       I    between atoms: C3_30  and  O3_31 
ROOT
ATOM      1  O3S IXD d 379      17.853  20.682  25.952  0.00  0.00    -0.572 OA
ATOM      2  O2S IXD d 379      15.970  21.760  27.031  0.00  0.00    -0.572 OA
ATOM      3  O5  IXD d 379      16.693  22.824  22.728  0.00  0.00    -0.343 OA
ATOM      4  O62 IXD d 379      16.718  24.186  20.162  0.00  0.00    -0.646 OA
ATOM      5  C5  IXD d 379      16.871  24.237  22.439  0.00  0.00     0.127 C 
ATOM      6  C1  IXD d 379      17.803  22.152  23.336  0.00  0.00     0.161 C 
ATOM      7  O1S IXD d 379      18.231  22.244  27.728  0.00  0.00    -0.572 OA
ATOM      8  O61 IXD d 379      16.026  26.015  21.212  0.00  0.00    -0.646 OA
ATOM      9  C2  IXD d 379      18.370  23.008  24.466  0.00  0.00     0.132 C 
ATOM     10  S   IXD d 379      17.366  21.944  26.563  0.00  0.00     0.252 S 
ATOM     11  C4  IXD d 379      17.464  24.990  23.355  0.00  0.00    -0.005 C 
ATOM     12  O2  IXD d 379      17.420  23.081  25.525  0.00  0.00    -0.244 OA
ATOM     13  C3  IXD d 379      18.713  24.390  23.917  0.00  0.00     0.069 C 
ATOM     14  O3  IXD d 379      19.245  25.283  24.875  0.00  0.00    -0.393 OA
ATOM     15  C6  IXD d 379      16.501  24.848  21.190  0.00  0.00     0.203 C 
ATOM     16  H   IXD d 379      15.891  23.943  22.128  0.00  0.00     0.100 H 
ATOM     17  H   IXD d 379      17.481  21.132  23.379  0.00  0.00     0.133 H 
ATOM     18  H   IXD d 379      19.264  22.572  24.858  0.00  0.00     0.097 H 
ATOM     19  H   IXD d 379      16.775  25.148  24.158  0.00  0.00     0.041 H 
ATOM     20  H   IXD d 379      17.747  25.901  22.871  0.00  0.00     0.041 H 
ATOM     21  H   IXD d 379      19.476  24.249  23.179  0.00  0.00     0.087 H 
ATOM     22  H   IXD d 379      18.586  25.443  25.568  0.00  0.00     0.210 HD
ATOM     23  C4  SGN d 378      20.035  21.813  22.546  0.00  0.00     0.095 C 
ATOM     24  C6  SGN d 378      19.136  21.347  20.319  0.00  0.00     0.067 C 
ATOM     25  S1  SGN d 378      23.675  19.147  24.816  0.00  0.00     0.156 S 
ATOM     26  S2  SGN d 378      20.330  21.093  18.122  0.00  0.00     0.251 S 
ATOM     27  O4S SGN d 378      21.259  21.918  17.375  0.00  0.00    -0.572 OA
ATOM     28  C3  SGN d 378      20.628  21.213  23.814  0.00  0.00     0.083 C 
ATOM     29  C5  SGN d 378      19.538  20.708  21.628  0.00  0.00     0.091 C 
ATOM     30  C2  SGN d 378      21.655  20.157  23.445  0.00  0.00     0.081 C 
ATOM     31  C1  SGN d 378      21.062  19.127  22.492  0.00  0.00     0.147 C 
ATOM     32  O3  SGN d 378      21.282  22.196  24.579  0.00  0.00    -0.391 OA
ATOM     33  O3S SGN d 378      24.430  20.395  24.850  0.00  0.00    -0.296 OA
ATOM     34  O4  SGN d 378      18.939  22.658  22.834  0.00  0.00    -0.348 OA
ATOM     35  N   SGN d 378      22.127  19.512  24.654  0.00  0.00    -0.210 NA
ATOM     36  O6  SGN d 378      20.328  21.550  19.598  0.00  0.00    -0.254 OA
ATOM     37  O1  SGN d 378      20.040  18.416  23.148  0.00  0.00    -0.369 OA
ATOM     38  O2S SGN d 378      24.025  18.357  23.636  0.00  0.00    -0.296 OA
ATOM     39  O6S SGN d 378      18.956  21.214  17.652  0.00  0.00    -0.572 OA
ATOM     40  O5S SGN d 378      20.763  19.700  18.142  0.00  0.00    -0.572 OA
ATOM     41  O5  SGN d 378      20.545  19.760  21.343  0.00  0.00    -0.350 OA
ATOM     42  O1S SGN d 378      23.790  18.420  26.080  0.00  0.00    -0.296 OA
ATOM     43  H   SGN d 378      20.810  22.381  22.076  0.00  0.00     0.091 H 
ATOM     44  H   SGN d 378      18.647  22.282  20.498  0.00  0.00     0.080 H 
ATOM     45  H   SGN d 378      18.454  20.728  19.776  0.00  0.00     0.080 H 
ATOM     46  H   SGN d 378      19.826  20.789  24.381  0.00  0.00     0.089 H 
ATOM     47  H   SGN d 378      18.727  20.207  22.114  0.00  0.00     0.090 H 
ATOM     48  H   SGN d 378      22.474  20.628  22.945  0.00  0.00     0.076 H 
ATOM     49  H   SGN d 378      21.832  18.449  22.190  0.00  0.00     0.131 H 
ATOM     50  H   SGN d 378      22.008  22.578  24.061  0.00  0.00     0.210 HD
ATOM     51  H   SGN d 378      24.181  20.901  25.639  0.00  0.00     0.231 HD
ATOM     52  H   SGN d 378      21.888  20.130  25.429  0.00  0.00     0.140 HD
ATOM     53  H   SGN d 378      19.343  19.032  23.422  0.00  0.00     0.212 HD
ATOM     54  H   SGN d 378      23.513  17.534  23.634  0.00  0.00     0.231 HD
ATOM     55  H   SGN d 378      23.280  17.597  26.027  0.00  0.00     0.231 HD
ENDROOT
TORSDOF 16
ENDMDL
MODEL 47
REMARK VINA RESULT:      -2.7      3.280      6.588
REMARK  0 active torsions:
REMARK  status: ('A' for Active; 'I' for Inactive)
REMARK       I    between atoms: C4_5  and  O4_20 
REMARK       I    between atoms: C6_6  and  C5_15 
REMARK       I    between atoms: C6_6  and  O6_25 
REMARK       I    between atoms: S1_7  and  N_21 
REMARK       I    between atoms: S1_7  and  O1S_34 
REMARK       I    between atoms: S1_7  and  O2S_27 
REMARK       I    between atoms: S1_7  and  O3S_19 
REMARK       I    between atoms: C5_8  and  C6_35 
REMARK       I    between atoms: S2_9  and  O6_25 
REMARK       I    between atoms: C1_10  and  O4_20 
REMARK       I    between atoms: C3_14  and  O3_18 
REMARK       I    between atoms: C2_16  and  N_21 
REMARK       I    between atoms: C1_17  and  O1_26 
REMARK       I    between atoms: C2_22  and  O2_29 
REMARK       I    between atoms: S_23  and  O2_29 
REMARK       I    between atoms: C3_30  and  O3_31 
ROOT
ATOM      1  O3S IXD d 379      17.167  24.103  21.209  0.00  0.00    -0.572 OA
ATOM      2  O2S IXD d 379      16.089  25.843  22.507  0.00  0.00    -0.572 OA
ATOM      3  O5  IXD d 379      19.812  24.046  24.263  0.00  0.00    -0.343 OA
ATOM      4  O62 IXD d 379      21.887  23.184  26.105  0.00  0.00    -0.646 OA
ATOM      5  C5  IXD d 379      19.681  23.476  25.594  0.00  0.00     0.127 C 
ATOM      6  C1  IXD d 379      19.270  23.276  23.183  0.00  0.00     0.161 C 
ATOM      7  O1S IXD d 379      15.001  23.716  22.155  0.00  0.00    -0.572 OA
ATOM      8  O61 IXD d 379      20.479  23.605  27.768  0.00  0.00    -0.646 OA
ATOM      9  C2  IXD d 379      17.887  22.753  23.564  0.00  0.00     0.132 C 
ATOM     10  S   IXD d 379      16.305  24.380  22.386  0.00  0.00     0.252 S 
ATOM     11  C4  IXD d 379      18.527  22.912  25.920  0.00  0.00    -0.005 C 
ATOM     12  O2  IXD d 379      16.980  23.847  23.664  0.00  0.00    -0.244 OA
ATOM     13  C3  IXD d 379      17.992  21.983  24.878  0.00  0.00     0.069 C 
ATOM     14  O3  IXD d 379      16.767  21.450  25.341  0.00  0.00    -0.393 OA
ATOM     15  C6  IXD d 379      20.755  23.433  26.551  0.00  0.00     0.203 C 
ATOM     16  H   IXD d 379      20.184  24.417  25.670  0.00  0.00     0.100 H 
ATOM     17  H   IXD d 379      19.547  23.838  22.316  0.00  0.00     0.133 H 
ATOM     18  H   IXD d 379      17.515  22.087  22.814  0.00  0.00     0.097 H 
ATOM     19  H   IXD d 379      17.807  23.687  26.082  0.00  0.00     0.041 H 
ATOM     20  H   IXD d 379      18.705  22.326  26.797  0.00  0.00     0.041 H 
ATOM     21  H   IXD d 379      18.634  21.147  24.695  0.00  0.00     0.087 H 
ATOM     22  H   IXD d 379      16.148  22.175  25.521  0.00  0.00     0.210 HD
ATOM     23  C4  SGN d 378      19.826  21.082  22.409  0.00  0.00     0.095 C 
ATOM     24  C6  SGN d 378      22.193  21.608  22.735  0.00  0.00     0.067 C 
ATOM     25  S1  SGN d 378      17.913  18.722  18.375  0.00  0.00     0.156 S 
ATOM     26  S2  SGN d 378      24.203  20.101  22.654  0.00  0.00     0.251 S 
ATOM     27  O4S SGN d 378      24.571  18.871  23.326  0.00  0.00    -0.572 OA
ATOM     28  C3  SGN d 378      18.703  20.916  21.395  0.00  0.00     0.083 C 
ATOM     29  C5  SGN d 378      21.066  21.641  21.729  0.00  0.00     0.091 C 
ATOM     30  C2  SGN d 378      19.208  20.125  20.201  0.00  0.00     0.081 C 
ATOM     31  C1  SGN d 378      20.472  20.749  19.627  0.00  0.00     0.147 C 
ATOM     32  O3  SGN d 378      17.622  20.207  21.952  0.00  0.00    -0.391 OA
ATOM     33  O3S SGN d 378      17.444  17.709  19.314  0.00  0.00    -0.296 OA
ATOM     34  O4  SGN d 378      19.464  21.975  23.444  0.00  0.00    -0.348 OA
ATOM     35  N   SGN d 378      18.168  20.072  19.194  0.00  0.00    -0.210 NA
ATOM     36  O6  SGN d 378      22.672  20.284  22.747  0.00  0.00    -0.254 OA
ATOM     37  O1  SGN d 378      20.172  22.022  19.108  0.00  0.00    -0.369 OA
ATOM     38  O2S SGN d 378      19.207  18.348  17.806  0.00  0.00    -0.296 OA
ATOM     39  O6S SGN d 378      24.796  21.284  23.265  0.00  0.00    -0.572 OA
ATOM     40  O5S SGN d 378      24.505  20.032  21.229  0.00  0.00    -0.572 OA
ATOM     41  O5  SGN d 378      21.464  20.858  20.624  0.00  0.00    -0.350 OA
ATOM     42  O1S SGN d 378      16.889  19.040  17.379  0.00  0.00    -0.296 OA
ATOM     43  H   SGN d 378      20.021  20.115  22.823  0.00  0.00     0.091 H 
ATOM     44  H   SGN d 378      21.833  21.881  23.705  0.00  0.00     0.080 H 
ATOM     45  H   SGN d 378      22.967  22.299  22.476  0.00  0.00     0.080 H 
ATOM     46  H   SGN d 378      18.381  21.893  21.101  0.00  0.00     0.089 H 
ATOM     47  H   SGN d 378      20.843  22.629  21.385  0.00  0.00     0.090 H 
ATOM     48  H   SGN d 378      19.451  19.133  20.520  0.00  0.00     0.076 H 
ATOM     49  H   SGN d 378      20.845  20.122  18.844  0.00  0.00     0.131 H 
ATOM     50  H   SGN d 378      17.918  19.323  22.216  0.00  0.00     0.210 HD
ATOM     51  H   SGN d 378      16.586  17.979  19.678  0.00  0.00     0.231 HD
ATOM     52  H   SGN d 378      17.293  20.302  19.662  0.00  0.00     0.140 HD
ATOM     53  H   SGN d 378      19.834  22.588  19.819  0.00  0.00     0.212 HD
ATOM     54  H   SGN d 378      19.498  19.034  17.186  0.00  0.00     0.231 HD
ATOM     55  H   SGN d 378      17.229  19.714  16.770  0.00  0.00     0.231 HD
ENDROOT
TORSDOF 16
ENDMDL
MODEL 48
REMARK VINA RESULT:      -2.5      2.987      7.134
REMARK  0 active torsions:
REMARK  status: ('A' for Active; 'I' for Inactive)
REMARK       I    between atoms: C4_5  and  O4_20 
REMARK       I    between atoms: C6_6  and  C5_15 
REMARK       I    between atoms: C6_6  and  O6_25 
REMARK       I    between atoms: S1_7  and  N_21 
REMARK       I    between atoms: S1_7  and  O1S_34 
REMARK       I    between atoms: S1_7  and  O2S_27 
REMARK       I    between atoms: S1_7  and  O3S_19 
REMARK       I    between atoms: C5_8  and  C6_35 
REMARK       I    between atoms: S2_9  and  O6_25 
REMARK       I    between atoms: C1_10  and  O4_20 
REMARK       I    between atoms: C3_14  and  O3_18 
REMARK       I    between atoms: C2_16  and  N_21 
REMARK       I    between atoms: C1_17  and  O1_26 
REMARK       I    between atoms: C2_22  and  O2_29 
REMARK       I    between atoms: S_23  and  O2_29 
REMARK       I    between atoms: C3_30  and  O3_31 
ROOT
ATOM      1  O3S IXD d 379      14.019  19.486  23.976  0.00  0.00    -0.572 OA
ATOM      2  O2S IXD d 379      12.163  17.951  24.243  0.00  0.00    -0.572 OA
ATOM      3  O5  IXD d 379      14.994  17.109  20.858  0.00  0.00    -0.343 OA
ATOM      4  O62 IXD d 379      16.162  16.144  18.379  0.00  0.00    -0.646 OA
ATOM      5  C5  IXD d 379      14.401  17.025  19.533  0.00  0.00     0.127 C 
ATOM      6  C1  IXD d 379      15.147  18.424  21.407  0.00  0.00     0.161 C 
ATOM      7  O1S IXD d 379      11.780  20.246  23.601  0.00  0.00    -0.572 OA
ATOM      8  O61 IXD d 379      14.111  15.634  17.700  0.00  0.00    -0.646 OA
ATOM      9  C2  IXD d 379      13.869  19.229  21.184  0.00  0.00     0.132 C 
ATOM     10  S   IXD d 379      12.690  19.088  23.448  0.00  0.00     0.252 S 
ATOM     11  C4  IXD d 379      13.356  17.797  19.269  0.00  0.00    -0.005 C 
ATOM     12  O2  IXD d 379      12.819  18.674  21.970  0.00  0.00    -0.244 OA
ATOM     13  C3  IXD d 379      13.529  19.219  19.696  0.00  0.00     0.069 C 
ATOM     14  O3  IXD d 379      12.355  19.931  19.361  0.00  0.00    -0.393 OA
ATOM     15  C6  IXD d 379      14.926  16.203  18.476  0.00  0.00     0.203 C 
ATOM     16  H   IXD d 379      14.625  16.036  19.873  0.00  0.00     0.100 H 
ATOM     17  H   IXD d 379      15.664  18.248  22.327  0.00  0.00     0.133 H 
ATOM     18  H   IXD d 379      14.005  20.245  21.490  0.00  0.00     0.097 H 
ATOM     19  H   IXD d 379      12.503  17.394  19.775  0.00  0.00     0.041 H 
ATOM     20  H   IXD d 379      13.237  17.804  18.206  0.00  0.00     0.041 H 
ATOM     21  H   IXD d 379      14.335  19.710  19.192  0.00  0.00     0.087 H 
ATOM     22  H   IXD d 379      11.592  19.521  19.798  0.00  0.00     0.210 HD
ATOM     23  C4  SGN d 378      16.403  20.299  20.615  0.00  0.00     0.095 C 
ATOM     24  C6  SGN d 378      18.228  18.781  20.026  0.00  0.00     0.067 C 
ATOM     25  S1  SGN d 378      16.971  24.752  22.929  0.00  0.00     0.156 S 
ATOM     26  S2  SGN d 378      20.316  19.214  18.695  0.00  0.00     0.251 S 
ATOM     27  O4S SGN d 378      20.580  19.751  17.375  0.00  0.00    -0.572 OA
ATOM     28  C3  SGN d 378      15.901  21.335  21.611  0.00  0.00     0.083 C 
ATOM     29  C5  SGN d 378      17.680  19.655  21.130  0.00  0.00     0.091 C 
ATOM     30  C2  SGN d 378      17.024  22.296  21.956  0.00  0.00     0.081 C 
ATOM     31  C1  SGN d 378      18.265  21.544  22.419  0.00  0.00     0.147 C 
ATOM     32  O3  SGN d 378      14.846  22.089  21.065  0.00  0.00    -0.391 OA
ATOM     33  O3S SGN d 378      16.342  25.333  21.749  0.00  0.00    -0.296 OA
ATOM     34  O4  SGN d 378      15.454  19.270  20.413  0.00  0.00    -0.348 OA
ATOM     35  N   SGN d 378      16.571  23.205  22.989  0.00  0.00    -0.210 NA
ATOM     36  O6  SGN d 378      18.899  19.642  19.137  0.00  0.00    -0.254 OA
ATOM     37  O1  SGN d 378      17.985  20.876  23.626  0.00  0.00    -0.369 OA
ATOM     38  O2S SGN d 378      18.429  24.784  22.813  0.00  0.00    -0.296 OA
ATOM     39  O6S SGN d 378      20.335  17.758  18.732  0.00  0.00    -0.572 OA
ATOM     40  O5S SGN d 378      21.225  19.781  19.685  0.00  0.00    -0.572 OA
ATOM     41  O5  SGN d 378      18.670  20.614  21.440  0.00  0.00    -0.350 OA
ATOM     42  O1S SGN d 378      16.454  25.353  24.159  0.00  0.00    -0.296 OA
ATOM     43  H   SGN d 378      16.577  20.811  19.692  0.00  0.00     0.091 H 
ATOM     44  H   SGN d 378      17.430  18.276  19.522  0.00  0.00     0.080 H 
ATOM     45  H   SGN d 378      18.886  18.032  20.413  0.00  0.00     0.080 H 
ATOM     46  H   SGN d 378      15.559  20.814  22.481  0.00  0.00     0.089 H 
ATOM     47  H   SGN d 378      17.446  19.108  22.019  0.00  0.00     0.090 H 
ATOM     48  H   SGN d 378      17.289  22.850  21.080  0.00  0.00     0.076 H 
ATOM     49  H   SGN d 378      19.059  22.244  22.573  0.00  0.00     0.131 H 
ATOM     50  H   SGN d 378      15.159  22.561  20.278  0.00  0.00     0.210 HD
ATOM     51  H   SGN d 378      15.378  25.301  21.848  0.00  0.00     0.231 HD
ATOM     52  H   SGN d 378      15.552  23.165  22.990  0.00  0.00     0.140 HD
ATOM     53  H   SGN d 378      17.264  20.243  23.484  0.00  0.00     0.212 HD
ATOM     54  H   SGN d 378      18.825  24.394  23.607  0.00  0.00     0.231 HD
ATOM     55  H   SGN d 378      16.891  24.948  24.925  0.00  0.00     0.231 HD
ENDROOT
TORSDOF 16
ENDMDL
MODEL 49
REMARK VINA RESULT:      -2.3      2.623      7.250
REMARK  0 active torsions:
REMARK  status: ('A' for Active; 'I' for Inactive)
REMARK       I    between atoms: C4_5  and  O4_20 
REMARK       I    between atoms: C6_6  and  C5_15 
REMARK       I    between atoms: C6_6  and  O6_25 
REMARK       I    between atoms: S1_7  and  N_21 
REMARK       I    between atoms: S1_7  and  O1S_34 
REMARK       I    between atoms: S1_7  and  O2S_27 
REMARK       I    between atoms: S1_7  and  O3S_19 
REMARK       I    between atoms: C5_8  and  C6_35 
REMARK       I    between atoms: S2_9  and  O6_25 
REMARK       I    between atoms: C1_10  and  O4_20 
REMARK       I    between atoms: C3_14  and  O3_18 
REMARK       I    between atoms: C2_16  and  N_21 
REMARK       I    between atoms: C1_17  and  O1_26 
REMARK       I    between atoms: C2_22  and  O2_29 
REMARK       I    between atoms: S_23  and  O2_29 
REMARK       I    between atoms: C3_30  and  O3_31 
ROOT
ATOM      1  O3S IXD d 379      17.168  25.535  24.189  0.00  0.00    -0.572 OA
ATOM      2  O2S IXD d 379      17.814  25.999  26.478  0.00  0.00    -0.572 OA
ATOM      3  O5  IXD d 379      20.503  23.254  24.152  0.00  0.00    -0.343 OA
ATOM      4  O62 IXD d 379      22.466  21.242  23.417  0.00  0.00    -0.646 OA
ATOM      5  C5  IXD d 379      20.738  21.943  24.735  0.00  0.00     0.127 C 
ATOM      6  C1  IXD d 379      19.229  23.456  23.529  0.00  0.00     0.161 C 
ATOM      7  O1S IXD d 379      15.806  24.749  25.996  0.00  0.00    -0.572 OA
ATOM      8  O61 IXD d 379      22.390  20.514  25.513  0.00  0.00    -0.646 OA
ATOM      9  C2  IXD d 379      18.122  22.904  24.423  0.00  0.00     0.132 C 
ATOM     10  S   IXD d 379      17.204  24.996  25.572  0.00  0.00     0.252 S 
ATOM     11  C4  IXD d 379      19.755  21.383  25.425  0.00  0.00    -0.005 C 
ATOM     12  O2  IXD d 379      18.030  23.696  25.604  0.00  0.00    -0.244 OA
ATOM     13  C3  IXD d 379      18.425  21.443  24.744  0.00  0.00     0.069 C 
ATOM     14  O3  IXD d 379      17.470  20.817  25.575  0.00  0.00    -0.393 OA
ATOM     15  C6  IXD d 379      21.952  21.194  24.547  0.00  0.00     0.203 C 
ATOM     16  H   IXD d 379      21.607  22.549  24.887  0.00  0.00     0.100 H 
ATOM     17  H   IXD d 379      19.311  24.438  23.111  0.00  0.00     0.133 H 
ATOM     18  H   IXD d 379      17.176  22.949  23.925  0.00  0.00     0.097 H 
ATOM     19  H   IXD d 379      19.674  21.887  26.365  0.00  0.00     0.041 H 
ATOM     20  H   IXD d 379      20.003  20.348  25.533  0.00  0.00     0.041 H 
ATOM     21  H   IXD d 379      18.410  20.913  23.814  0.00  0.00     0.087 H 
ATOM     22  H   IXD d 379      17.447  21.266  26.436  0.00  0.00     0.210 HD
ATOM     23  C4  SGN d 378      18.214  22.338  21.674  0.00  0.00     0.095 C 
ATOM     24  C6  SGN d 378      20.376  22.351  20.530  0.00  0.00     0.067 C 
ATOM     25  S1  SGN d 378      13.789  23.465  19.516  0.00  0.00     0.156 S 
ATOM     26  S2  SGN d 378      21.093  21.173  18.428  0.00  0.00     0.251 S 
ATOM     27  O4S SGN d 378      21.072  19.793  17.987  0.00  0.00    -0.572 OA
ATOM     28  C3  SGN d 378      16.834  22.975  21.762  0.00  0.00     0.083 C 
ATOM     29  C5  SGN d 378      19.094  23.129  20.720  0.00  0.00     0.091 C 
ATOM     30  C2  SGN d 378      16.273  23.172  20.365  0.00  0.00     0.081 C 
ATOM     31  C1  SGN d 378      17.253  23.938  19.485  0.00  0.00     0.147 C 
ATOM     32  O3  SGN d 378      15.941  22.148  22.468  0.00  0.00    -0.391 OA
ATOM     33  O3S SGN d 378      13.377  22.117  19.889  0.00  0.00    -0.296 OA
ATOM     34  O4  SGN d 378      18.856  22.314  22.933  0.00  0.00    -0.348 OA
ATOM     35  N   SGN d 378      15.014  23.883  20.454  0.00  0.00    -0.210 NA
ATOM     36  O6  SGN d 378      20.089  21.342  19.591  0.00  0.00    -0.254 OA
ATOM     37  O1  SGN d 378      17.416  25.241  19.990  0.00  0.00    -0.369 OA
ATOM     38  O2S SGN d 378      14.304  23.494  18.148  0.00  0.00    -0.296 OA
ATOM     39  O6S SGN d 378      22.391  21.588  18.943  0.00  0.00    -0.572 OA
ATOM     40  O5S SGN d 378      20.629  22.069  17.375  0.00  0.00    -0.572 OA
ATOM     41  O5  SGN d 378      18.500  23.279  19.449  0.00  0.00    -0.350 OA
ATOM     42  O1S SGN d 378      12.728  24.438  19.777  0.00  0.00    -0.296 OA
ATOM     43  H   SGN d 378      18.075  21.336  21.324  0.00  0.00     0.091 H 
ATOM     44  H   SGN d 378      20.687  21.916  21.457  0.00  0.00     0.080 H 
ATOM     45  H   SGN d 378      21.169  22.984  20.191  0.00  0.00     0.080 H 
ATOM     46  H   SGN d 378      16.938  23.911  22.270  0.00  0.00     0.089 H 
ATOM     47  H   SGN d 378      19.254  24.101  21.139  0.00  0.00     0.090 H 
ATOM     48  H   SGN d 378      16.115  22.214  19.916  0.00  0.00     0.076 H 
ATOM     49  H   SGN d 378      16.864  23.985  18.490  0.00  0.00     0.131 H 
ATOM     50  H   SGN d 378      15.849  21.302  22.004  0.00  0.00     0.210 HD
ATOM     51  H   SGN d 378      13.039  22.122  20.798  0.00  0.00     0.231 HD
ATOM     52  H   SGN d 378      14.692  23.790  21.417  0.00  0.00     0.140 HD
ATOM     53  H   SGN d 378      17.768  25.196  20.893  0.00  0.00     0.212 HD
ATOM     54  H   SGN d 378      14.572  24.398  17.921  0.00  0.00     0.231 HD
ATOM     55  H   SGN d 378      13.030  25.323  19.519  0.00  0.00     0.231 HD
ENDROOT
TORSDOF 16
ENDMDL
MODEL 50
REMARK VINA RESULT:      -2.3      2.842      4.317
REMARK  0 active torsions:
REMARK  status: ('A' for Active; 'I' for Inactive)
REMARK       I    between atoms: C4_5  and  O4_20 
REMARK       I    between atoms: C6_6  and  C5_15 
REMARK       I    between atoms: C6_6  and  O6_25 
REMARK       I    between atoms: S1_7  and  N_21 
REMARK       I    between atoms: S1_7  and  O1S_34 
REMARK       I    between atoms: S1_7  and  O2S_27 
REMARK       I    between atoms: S1_7  and  O3S_19 
REMARK       I    between atoms: C5_8  and  C6_35 
REMARK       I    between atoms: S2_9  and  O6_25 
REMARK       I    between atoms: C1_10  and  O4_20 
REMARK       I    between atoms: C3_14  and  O3_18 
REMARK       I    between atoms: C2_16  and  N_21 
REMARK       I    between atoms: C1_17  and  O1_26 
REMARK       I    between atoms: C2_22  and  O2_29 
REMARK       I    between atoms: S_23  and  O2_29 
REMARK       I    between atoms: C3_30  and  O3_31 
ROOT
ATOM      1  O3S IXD d 379      21.247  18.951  24.065  0.00  0.00    -0.572 OA
ATOM      2  O2S IXD d 379      23.493  18.324  23.408  0.00  0.00    -0.572 OA
ATOM      3  O5  IXD d 379      21.482  21.477  20.920  0.00  0.00    -0.343 OA
ATOM      4  O62 IXD d 379      20.745  23.262  18.749  0.00  0.00    -0.646 OA
ATOM      5  C5  IXD d 379      21.378  21.200  19.496  0.00  0.00     0.127 C 
ATOM      6  C1  IXD d 379      20.575  20.771  21.775  0.00  0.00     0.161 C 
ATOM      7  O1S IXD d 379      21.672  16.750  23.225  0.00  0.00    -0.572 OA
ATOM      8  O61 IXD d 379      21.955  21.987  17.393  0.00  0.00    -0.646 OA
ATOM      9  C2  IXD d 379      20.525  19.299  21.374  0.00  0.00     0.132 C 
ATOM     10  S   IXD d 379      22.052  18.175  23.089  0.00  0.00     0.252 S 
ATOM     11  C4  IXD d 379      21.220  19.939  19.117  0.00  0.00    -0.005 C 
ATOM     12  O2  IXD d 379      21.779  18.688  21.663  0.00  0.00    -0.244 OA
ATOM     13  C3  IXD d 379      20.175  19.200  19.891  0.00  0.00     0.069 C 
ATOM     14  O3  IXD d 379      20.104  17.879  19.395  0.00  0.00    -0.393 OA
ATOM     15  C6  IXD d 379      21.371  22.222  18.484  0.00  0.00     0.203 C 
ATOM     16  H   IXD d 379      22.155  21.918  19.652  0.00  0.00     0.100 H 
ATOM     17  H   IXD d 379      20.775  21.184  22.742  0.00  0.00     0.133 H 
ATOM     18  H   IXD d 379      19.773  18.781  21.930  0.00  0.00     0.097 H 
ATOM     19  H   IXD d 379      22.153  19.431  19.241  0.00  0.00     0.041 H 
ATOM     20  H   IXD d 379      20.895  19.961  18.098  0.00  0.00     0.041 H 
ATOM     21  H   IXD d 379      19.197  19.619  19.776  0.00  0.00     0.087 H 
ATOM     22  H   IXD d 379      20.973  17.455  19.478  0.00  0.00     0.210 HD
ATOM     23  C4  SGN d 378      18.184  20.777  21.845  0.00  0.00     0.095 C 
ATOM     24  C6  SGN d 378      18.217  23.198  21.494  0.00  0.00     0.067 C 
ATOM     25  S1  SGN d 378      15.249  18.373  25.180  0.00  0.00     0.156 S 
ATOM     26  S2  SGN d 378      16.329  24.776  20.981  0.00  0.00     0.251 S 
ATOM     27  O4S SGN d 378      15.302  24.825  19.959  0.00  0.00    -0.572 OA
ATOM     28  C3  SGN d 378      17.992  19.655  22.856  0.00  0.00     0.083 C 
ATOM     29  C5  SGN d 378      18.213  22.121  22.555  0.00  0.00     0.091 C 
ATOM     30  C2  SGN d 378      16.788  19.959  23.731  0.00  0.00     0.081 C 
ATOM     31  C1  SGN d 378      16.902  21.343  24.356  0.00  0.00     0.147 C 
ATOM     32  O3  SGN d 378      17.751  18.429  22.209  0.00  0.00    -0.391 OA
ATOM     33  O3S SGN d 378      14.698  17.663  24.031  0.00  0.00    -0.296 OA
ATOM     34  O4  SGN d 378      19.401  20.637  21.140  0.00  0.00    -0.348 OA
ATOM     35  N   SGN d 378      16.683  18.947  24.762  0.00  0.00    -0.210 NA
ATOM     36  O6  SGN d 378      16.883  23.336  21.067  0.00  0.00    -0.254 OA
ATOM     37  O1  SGN d 378      17.998  21.370  25.238  0.00  0.00    -0.369 OA
ATOM     38  O2S SGN d 378      14.433  19.540  25.513  0.00  0.00    -0.296 OA
ATOM     39  O6S SGN d 378      17.467  25.637  20.687  0.00  0.00    -0.572 OA
ATOM     40  O5S SGN d 378      15.774  25.063  22.299  0.00  0.00    -0.572 OA
ATOM     41  O5  SGN d 378      17.068  22.323  23.356  0.00  0.00    -0.350 OA
ATOM     42  O1S SGN d 378      15.487  17.467  26.303  0.00  0.00    -0.296 OA
ATOM     43  H   SGN d 378      17.365  20.724  21.158  0.00  0.00     0.091 H 
ATOM     44  H   SGN d 378      18.840  22.908  20.674  0.00  0.00     0.080 H 
ATOM     45  H   SGN d 378      18.601  24.120  21.877  0.00  0.00     0.080 H 
ATOM     46  H   SGN d 378      18.885  19.586  23.442  0.00  0.00     0.089 H 
ATOM     47  H   SGN d 378      19.078  22.151  23.183  0.00  0.00     0.090 H 
ATOM     48  H   SGN d 378      15.906  19.949  23.124  0.00  0.00     0.076 H 
ATOM     49  H   SGN d 378      16.003  21.556  24.896  0.00  0.00     0.131 H 
ATOM     50  H   SGN d 378      16.941  18.496  21.681  0.00  0.00     0.210 HD
ATOM     51  H   SGN d 378      15.255  16.895  23.829  0.00  0.00     0.231 HD
ATOM     52  H   SGN d 378      17.238  18.151  24.450  0.00  0.00     0.140 HD
ATOM     53  H   SGN d 378      18.812  21.176  24.748  0.00  0.00     0.212 HD
ATOM     54  H   SGN d 378      14.818  19.996  26.277  0.00  0.00     0.231 HD
ATOM     55  H   SGN d 378      15.853  17.967  27.050  0.00  0.00     0.231 HD
ENDROOT
TORSDOF 16
ENDMDL
MODEL 51
REMARK VINA RESULT:      -2.1      2.943      5.822
REMARK  0 active torsions:
REMARK  status: ('A' for Active; 'I' for Inactive)
REMARK       I    between atoms: C4_5  and  O4_20 
REMARK       I    between atoms: C6_6  and  C5_15 
REMARK       I    between atoms: C6_6  and  O6_25 
REMARK       I    between atoms: S1_7  and  N_21 
REMARK       I    between atoms: S1_7  and  O1S_34 
REMARK       I    between atoms: S1_7  and  O2S_27 
REMARK       I    between atoms: S1_7  and  O3S_19 
REMARK       I    between atoms: C5_8  and  C6_35 
REMARK       I    between atoms: S2_9  and  O6_25 
REMARK       I    between atoms: C1_10  and  O4_20 
REMARK       I    between atoms: C3_14  and  O3_18 
REMARK       I    between atoms: C2_16  and  N_21 
REMARK       I    between atoms: C1_17  and  O1_26 
REMARK       I    between atoms: C2_22  and  O2_29 
REMARK       I    between atoms: S_23  and  O2_29 
REMARK       I    between atoms: C3_30  and  O3_31 
ROOT
ATOM      1  O3S IXD d 379      15.863  19.583  23.662  0.00  0.00    -0.572 OA
ATOM      2  O2S IXD d 379      17.113  18.578  25.478  0.00  0.00    -0.572 OA
ATOM      3  O5  IXD d 379      19.220  21.764  23.114  0.00  0.00    -0.343 OA
ATOM      4  O62 IXD d 379      21.256  23.441  21.898  0.00  0.00    -0.646 OA
ATOM      5  C5  IXD d 379      20.487  21.382  22.513  0.00  0.00     0.127 C 
ATOM      6  C1  IXD d 379      18.036  21.275  22.471  0.00  0.00     0.161 C 
ATOM      7  O1S IXD d 379      16.500  17.278  23.539  0.00  0.00    -0.572 OA
ATOM      8  O61 IXD d 379      22.749  21.890  22.439  0.00  0.00    -0.646 OA
ATOM      9  C2  IXD d 379      18.205  19.797  22.129  0.00  0.00     0.132 C 
ATOM     10  S   IXD d 379      16.935  18.615  24.006  0.00  0.00     0.252 S 
ATOM     11  C4  IXD d 379      20.629  20.130  22.100  0.00  0.00    -0.005 C 
ATOM     12  O2  IXD d 379      18.254  19.036  23.332  0.00  0.00    -0.244 OA
ATOM     13  C3  IXD d 379      19.474  19.622  21.297  0.00  0.00     0.069 C 
ATOM     14  O3  IXD d 379      19.745  18.288  20.920  0.00  0.00    -0.393 OA
ATOM     15  C6  IXD d 379      21.568  22.302  22.281  0.00  0.00     0.203 C 
ATOM     16  H   IXD d 379      20.682  21.989  23.371  0.00  0.00     0.100 H 
ATOM     17  H   IXD d 379      17.246  21.737  23.025  0.00  0.00     0.133 H 
ATOM     18  H   IXD d 379      17.376  19.445  21.553  0.00  0.00     0.097 H 
ATOM     19  H   IXD d 379      20.744  19.503  22.959  0.00  0.00     0.041 H 
ATOM     20  H   IXD d 379      21.485  20.110  21.458  0.00  0.00     0.041 H 
ATOM     21  H   IXD d 379      19.325  20.169  20.389  0.00  0.00     0.087 H 
ATOM     22  H   IXD d 379      19.888  17.750  21.715  0.00  0.00     0.210 HD
ATOM     23  C4  SGN d 378      17.210  21.638  20.256  0.00  0.00     0.095 C 
ATOM     24  C6  SGN d 378      17.865  23.988  20.436  0.00  0.00     0.067 C 
ATOM     25  S1  SGN d 378      12.832  19.989  18.353  0.00  0.00     0.156 S 
ATOM     26  S2  SGN d 378      17.951  25.775  18.671  0.00  0.00     0.251 S 
ATOM     27  O4S SGN d 378      18.590  25.885  17.375  0.00  0.00    -0.572 OA
ATOM     28  C3  SGN d 378      16.053  20.649  20.289  0.00  0.00     0.083 C 
ATOM     29  C5  SGN d 378      16.728  23.019  20.667  0.00  0.00     0.091 C 
ATOM     30  C2  SGN d 378      14.888  21.200  19.486  0.00  0.00     0.081 C 
ATOM     31  C1  SGN d 378      14.517  22.602  19.953  0.00  0.00     0.147 C 
ATOM     32  O3  SGN d 378      16.424  19.419  19.714  0.00  0.00    -0.391 OA
ATOM     33  O3S SGN d 378      13.642  19.270  17.376  0.00  0.00    -0.296 OA
ATOM     34  O4  SGN d 378      18.241  21.260  21.146  0.00  0.00    -0.348 OA
ATOM     35  N   SGN d 378      13.755  20.308  19.619  0.00  0.00    -0.210 NA
ATOM     36  O6  SGN d 378      17.859  24.282  19.060  0.00  0.00    -0.254 OA
ATOM     37  O1  SGN d 378      14.042  22.544  21.276  0.00  0.00    -0.369 OA
ATOM     38  O2S SGN d 378      12.411  21.288  17.828  0.00  0.00    -0.296 OA
ATOM     39  O6S SGN d 378      18.702  26.431  19.734  0.00  0.00    -0.572 OA
ATOM     40  O5S SGN d 378      16.574  26.254  18.621  0.00  0.00    -0.572 OA
ATOM     41  O5  SGN d 378      15.637  23.456  19.883  0.00  0.00    -0.350 OA
ATOM     42  O1S SGN d 378      11.734  19.159  18.850  0.00  0.00    -0.296 OA
ATOM     43  H   SGN d 378      17.587  21.646  19.255  0.00  0.00     0.091 H 
ATOM     44  H   SGN d 378      18.796  23.539  20.715  0.00  0.00     0.080 H 
ATOM     45  H   SGN d 378      17.748  24.873  21.025  0.00  0.00     0.080 H 
ATOM     46  H   SGN d 378      15.779  20.500  21.312  0.00  0.00     0.089 H 
ATOM     47  H   SGN d 378      16.417  22.977  21.690  0.00  0.00     0.090 H 
ATOM     48  H   SGN d 378      15.176  21.267  18.457  0.00  0.00     0.076 H 
ATOM     49  H   SGN d 378      13.752  22.990  19.314  0.00  0.00     0.131 H 
ATOM     50  H   SGN d 378      16.671  19.558  18.786  0.00  0.00     0.210 HD
ATOM     51  H   SGN d 378      13.909  18.414  17.746  0.00  0.00     0.231 HD
ATOM     52  H   SGN d 378      14.121  19.415  19.948  0.00  0.00     0.140 HD
ATOM     53  H   SGN d 378      14.736  22.191  21.854  0.00  0.00     0.212 HD
ATOM     54  H   SGN d 378      11.875  21.747  18.492  0.00  0.00     0.231 HD
ATOM     55  H   SGN d 378      11.215  19.663  19.495  0.00  0.00     0.231 HD
ENDROOT
TORSDOF 16
ENDMDL
MODEL 52
REMARK VINA RESULT:      -2.1      3.089      6.352
REMARK  0 active torsions:
REMARK  status: ('A' for Active; 'I' for Inactive)
REMARK       I    between atoms: C4_5  and  O4_20 
REMARK       I    between atoms: C6_6  and  C5_15 
REMARK       I    between atoms: C6_6  and  O6_25 
REMARK       I    between atoms: S1_7  and  N_21 
REMARK       I    between atoms: S1_7  and  O1S_34 
REMARK       I    between atoms: S1_7  and  O2S_27 
REMARK       I    between atoms: S1_7  and  O3S_19 
REMARK       I    between atoms: C5_8  and  C6_35 
REMARK       I    between atoms: S2_9  and  O6_25 
REMARK       I    between atoms: C1_10  and  O4_20 
REMARK       I    between atoms: C3_14  and  O3_18 
REMARK       I    between atoms: C2_16  and  N_21 
REMARK       I    between atoms: C1_17  and  O1_26 
REMARK       I    between atoms: C2_22  and  O2_29 
REMARK       I    between atoms: S_23  and  O2_29 
REMARK       I    between atoms: C3_30  and  O3_31 
ROOT
ATOM      1  O3S IXD d 379      15.732  17.383  17.951  0.00  0.00    -0.572 OA
ATOM      2  O2S IXD d 379      14.184  15.524  18.087  0.00  0.00    -0.572 OA
ATOM      3  O5  IXD d 379      13.258  19.096  20.647  0.00  0.00    -0.343 OA
ATOM      4  O62 IXD d 379      12.221  20.837  22.730  0.00  0.00    -0.646 OA
ATOM      5  C5  IXD d 379      13.120  18.844  22.072  0.00  0.00     0.127 C 
ATOM      6  C1  IXD d 379      14.594  19.106  20.127  0.00  0.00     0.161 C 
ATOM      7  O1S IXD d 379      16.451  15.300  18.888  0.00  0.00    -0.572 OA
ATOM      8  O61 IXD d 379      11.662  19.015  23.867  0.00  0.00    -0.646 OA
ATOM      9  C2  IXD d 379      15.375  17.919  20.684  0.00  0.00     0.132 C 
ATOM     10  S   IXD d 379      15.299  16.224  18.771  0.00  0.00     0.252 S 
ATOM     11  C4  IXD d 379      13.869  17.892  22.612  0.00  0.00    -0.005 C 
ATOM     12  O2  IXD d 379      14.835  16.710  20.157  0.00  0.00    -0.244 OA
ATOM     13  C3  IXD d 379      15.307  17.951  22.209  0.00  0.00     0.069 C 
ATOM     14  O3  IXD d 379      15.993  16.892  22.845  0.00  0.00    -0.393 OA
ATOM     15  C6  IXD d 379      12.267  19.613  22.938  0.00  0.00     0.203 C 
ATOM     16  H   IXD d 379      12.147  18.982  21.651  0.00  0.00     0.100 H 
ATOM     17  H   IXD d 379      14.457  19.385  19.103  0.00  0.00     0.133 H 
ATOM     18  H   IXD d 379      16.402  17.972  20.392  0.00  0.00     0.097 H 
ATOM     19  H   IXD d 379      13.474  16.944  22.313  0.00  0.00     0.041 H 
ATOM     20  H   IXD d 379      13.837  18.036  23.671  0.00  0.00     0.041 H 
ATOM     21  H   IXD d 379      15.791  18.854  22.519  0.00  0.00     0.087 H 
ATOM     22  H   IXD d 379      15.588  16.047  22.592  0.00  0.00     0.210 HD
ATOM     23  C4  SGN d 378      16.456  20.511  20.659  0.00  0.00     0.095 C 
ATOM     24  C6  SGN d 378      14.940  22.430  20.730  0.00  0.00     0.067 C 
ATOM     25  S1  SGN d 378      20.995  20.483  18.444  0.00  0.00     0.156 S 
ATOM     26  S2  SGN d 378      15.352  24.778  21.528  0.00  0.00     0.251 S 
ATOM     27  O4S SGN d 378      15.845  25.353  22.763  0.00  0.00    -0.572 OA
ATOM     28  C3  SGN d 378      17.520  19.777  19.855  0.00  0.00     0.083 C 
ATOM     29  C5  SGN d 378      15.846  21.626  19.825  0.00  0.00     0.091 C 
ATOM     30  C2  SGN d 378      18.507  20.780  19.283  0.00  0.00     0.081 C 
ATOM     31  C1  SGN d 378      17.786  21.873  18.504  0.00  0.00     0.147 C 
ATOM     32  O3  SGN d 378      18.241  18.885  20.669  0.00  0.00    -0.391 OA
ATOM     33  O3S SGN d 378      21.525  20.158  19.764  0.00  0.00    -0.296 OA
ATOM     34  O4  SGN d 378      15.408  19.644  21.047  0.00  0.00    -0.348 OA
ATOM     35  N   SGN d 378      19.446  20.085  18.426  0.00  0.00    -0.210 NA
ATOM     36  O6  SGN d 378      15.778  23.294  21.460  0.00  0.00    -0.254 OA
ATOM     37  O1  SGN d 378      17.159  21.310  17.378  0.00  0.00    -0.369 OA
ATOM     38  O2S SGN d 378      21.040  21.924  18.204  0.00  0.00    -0.296 OA
ATOM     39  O6S SGN d 378      13.898  24.792  21.432  0.00  0.00    -0.572 OA
ATOM     40  O5S SGN d 378      15.965  25.416  20.368  0.00  0.00    -0.572 OA
ATOM     41  O5  SGN d 378      16.827  22.508  19.320  0.00  0.00    -0.350 OA
ATOM     42  O1S SGN d 378      21.632  19.680  17.401  0.00  0.00    -0.296 OA
ATOM     43  H   SGN d 378      16.936  20.903  21.531  0.00  0.00     0.091 H 
ATOM     44  H   SGN d 378      14.408  21.781  21.393  0.00  0.00     0.080 H 
ATOM     45  H   SGN d 378      14.214  22.977  20.166  0.00  0.00     0.080 H 
ATOM     46  H   SGN d 378      17.025  19.237  19.075  0.00  0.00     0.089 H 
ATOM     47  H   SGN d 378      15.328  21.185  19.000  0.00  0.00     0.090 H 
ATOM     48  H   SGN d 378      19.033  21.248  20.088  0.00  0.00     0.076 H 
ATOM     49  H   SGN d 378      18.501  22.603  18.188  0.00  0.00     0.131 H 
ATOM     50  H   SGN d 378      18.688  19.379  21.373  0.00  0.00     0.210 HD
ATOM     51  H   SGN d 378      21.485  19.199  19.901  0.00  0.00     0.231 HD
ATOM     52  H   SGN d 378      19.393  19.097  18.672  0.00  0.00     0.140 HD
ATOM     53  H   SGN d 378      16.512  20.647  17.667  0.00  0.00     0.212 HD
ATOM     54  H   SGN d 378      20.683  22.117  17.323  0.00  0.00     0.231 HD
ATOM     55  H   SGN d 378      21.260  19.918  16.538  0.00  0.00     0.231 HD
ENDROOT
TORSDOF 16
ENDMDL
MODEL 53
REMARK VINA RESULT:      -1.5      1.778      2.066
REMARK  0 active torsions:
REMARK  status: ('A' for Active; 'I' for Inactive)
REMARK       I    between atoms: C4_5  and  O4_20 
REMARK       I    between atoms: C6_6  and  C5_15 
REMARK       I    between atoms: C6_6  and  O6_25 
REMARK       I    between atoms: S1_7  and  N_21 
REMARK       I    between atoms: S1_7  and  O1S_34 
REMARK       I    between atoms: S1_7  and  O2S_27 
REMARK       I    between atoms: S1_7  and  O3S_19 
REMARK       I    between atoms: C5_8  and  C6_35 
REMARK       I    between atoms: S2_9  and  O6_25 
REMARK       I    between atoms: C1_10  and  O4_20 
REMARK       I    between atoms: C3_14  and  O3_18 
REMARK       I    between atoms: C2_16  and  N_21 
REMARK       I    between atoms: C1_17  and  O1_26 
REMARK       I    between atoms: C2_22  and  O2_29 
REMARK       I    between atoms: S_23  and  O2_29 
REMARK       I    between atoms: C3_30  and  O3_31 
ROOT
ATOM      1  O3S IXD d 379      16.386  18.320  19.979  0.00  0.00    -0.572 OA
ATOM      2  O2S IXD d 379      16.150  18.429  17.570  0.00  0.00    -0.572 OA
ATOM      3  O5  IXD d 379      16.972  22.307  19.683  0.00  0.00    -0.343 OA
ATOM      4  O62 IXD d 379      17.168  25.128  20.351  0.00  0.00    -0.646 OA
ATOM      5  C5  IXD d 379      16.009  23.373  19.462  0.00  0.00     0.127 C 
ATOM      6  C1  IXD d 379      16.569  21.256  20.570  0.00  0.00     0.161 C 
ATOM      7  O1S IXD d 379      14.268  17.849  18.966  0.00  0.00    -0.572 OA
ATOM      8  O61 IXD d 379      15.771  25.542  18.677  0.00  0.00    -0.646 OA
ATOM      9  C2  IXD d 379      15.142  20.823  20.244  0.00  0.00     0.132 C 
ATOM     10  S   IXD d 379      15.479  18.696  18.866  0.00  0.00     0.252 S 
ATOM     11  C4  IXD d 379      14.739  23.038  19.287  0.00  0.00    -0.005 C 
ATOM     12  O2  IXD d 379      15.121  20.191  18.968  0.00  0.00    -0.244 OA
ATOM     13  C3  IXD d 379      14.230  22.047  20.284  0.00  0.00     0.069 C 
ATOM     14  O3  IXD d 379      12.875  21.775  19.992  0.00  0.00    -0.393 OA
ATOM     15  C6  IXD d 379      16.348  24.771  19.489  0.00  0.00     0.203 C 
ATOM     16  H   IXD d 379      16.889  23.580  18.890  0.00  0.00     0.100 H 
ATOM     17  H   IXD d 379      17.444  20.644  20.642  0.00  0.00     0.133 H 
ATOM     18  H   IXD d 379      14.787  20.117  20.965  0.00  0.00     0.097 H 
ATOM     19  H   IXD d 379      14.633  22.617  18.309  0.00  0.00     0.041 H 
ATOM     20  H   IXD d 379      14.163  23.930  19.414  0.00  0.00     0.041 H 
ATOM     21  H   IXD d 379      14.255  22.416  21.289  0.00  0.00     0.087 H 
ATOM     22  H   IXD d 379      12.802  21.435  19.086  0.00  0.00     0.210 HD
ATOM     23  C4  SGN d 378      15.962  21.325  22.883  0.00  0.00     0.095 C 
ATOM     24  C6  SGN d 378      17.794  22.898  23.278  0.00  0.00     0.067 C 
ATOM     25  S1  SGN d 378      14.840  17.383  25.834  0.00  0.00     0.156 S 
ATOM     26  S2  SGN d 378      18.330  24.264  25.319  0.00  0.00     0.251 S 
ATOM     27  O4S SGN d 378      17.586  25.210  26.126  0.00  0.00    -0.572 OA
ATOM     28  C3  SGN d 378      15.487  19.886  23.027  0.00  0.00     0.083 C 
ATOM     29  C5  SGN d 378      17.431  21.431  23.260  0.00  0.00     0.091 C 
ATOM     30  C2  SGN d 378      15.846  19.368  24.409  0.00  0.00     0.081 C 
ATOM     31  C1  SGN d 378      17.329  19.561  24.697  0.00  0.00     0.147 C 
ATOM     32  O3  SGN d 378      14.089  19.801  22.889  0.00  0.00    -0.391 OA
ATOM     33  O3S SGN d 378      13.535  18.011  26.006  0.00  0.00    -0.296 OA
ATOM     34  O4  SGN d 378      15.826  21.786  21.553  0.00  0.00    -0.348 OA
ATOM     35  N   SGN d 378      15.494  17.965  24.495  0.00  0.00    -0.210 NA
ATOM     36  O6  SGN d 378      17.335  23.402  24.509  0.00  0.00    -0.254 OA
ATOM     37  O1  SGN d 378      18.084  18.770  23.813  0.00  0.00    -0.369 OA
ATOM     38  O2S SGN d 378      15.747  17.758  26.918  0.00  0.00    -0.296 OA
ATOM     39  O6S SGN d 378      19.203  24.907  24.345  0.00  0.00    -0.572 OA
ATOM     40  O5S SGN d 378      19.071  23.326  26.156  0.00  0.00    -0.572 OA
ATOM     41  O5  SGN d 378      17.685  20.917  24.551  0.00  0.00    -0.350 OA
ATOM     42  O1S SGN d 378      14.715  15.940  25.630  0.00  0.00    -0.296 OA
ATOM     43  H   SGN d 378      15.356  21.922  23.531  0.00  0.00     0.091 H 
ATOM     44  H   SGN d 378      17.316  23.408  22.468  0.00  0.00     0.080 H 
ATOM     45  H   SGN d 378      18.848  23.039  23.168  0.00  0.00     0.080 H 
ATOM     46  H   SGN d 378      15.962  19.306  22.263  0.00  0.00     0.089 H 
ATOM     47  H   SGN d 378      18.001  20.868  22.551  0.00  0.00     0.090 H 
ATOM     48  H   SGN d 378      15.298  19.922  25.141  0.00  0.00     0.076 H 
ATOM     49  H   SGN d 378      17.529  19.263  25.705  0.00  0.00     0.131 H 
ATOM     50  H   SGN d 378      13.663  20.327  23.583  0.00  0.00     0.210 HD
ATOM     51  H   SGN d 378      12.952  17.748  25.277  0.00  0.00     0.231 HD
ATOM     52  H   SGN d 378      14.833  17.781  23.741  0.00  0.00     0.140 HD
ATOM     53  H   SGN d 378      17.901  19.041  22.899  0.00  0.00     0.212 HD
ATOM     54  H   SGN d 378      16.607  17.330  26.783  0.00  0.00     0.231 HD
ATOM     55  H   SGN d 378      15.597  15.551  25.519  0.00  0.00     0.231 HD
ENDROOT
TORSDOF 16
ENDMDL
MODEL 54
REMARK VINA RESULT:      -1.4      2.497      6.136
REMARK  0 active torsions:
REMARK  status: ('A' for Active; 'I' for Inactive)
REMARK       I    between atoms: C4_5  and  O4_20 
REMARK       I    between atoms: C6_6  and  C5_15 
REMARK       I    between atoms: C6_6  and  O6_25 
REMARK       I    between atoms: S1_7  and  N_21 
REMARK       I    between atoms: S1_7  and  O1S_34 
REMARK       I    between atoms: S1_7  and  O2S_27 
REMARK       I    between atoms: S1_7  and  O3S_19 
REMARK       I    between atoms: C5_8  and  C6_35 
REMARK       I    between atoms: S2_9  and  O6_25 
REMARK       I    between atoms: C1_10  and  O4_20 
REMARK       I    between atoms: C3_14  and  O3_18 
REMARK       I    between atoms: C2_16  and  N_21 
REMARK       I    between atoms: C1_17  and  O1_26 
REMARK       I    between atoms: C2_22  and  O2_29 
REMARK       I    between atoms: S_23  and  O2_29 
REMARK       I    between atoms: C3_30  and  O3_31 
ROOT
ATOM      1  O3S IXD d 379      15.237  18.933  19.818  0.00  0.00    -0.572 OA
ATOM      2  O2S IXD d 379      13.377  17.382  19.907  0.00  0.00    -0.572 OA
ATOM      3  O5  IXD d 379      14.329  19.592  23.700  0.00  0.00    -0.343 OA
ATOM      4  O62 IXD d 379      14.533  20.377  26.490  0.00  0.00    -0.646 OA
ATOM      5  C5  IXD d 379      14.599  18.771  24.869  0.00  0.00     0.127 C 
ATOM      6  C1  IXD d 379      15.374  19.674  22.723  0.00  0.00     0.161 C 
ATOM      7  O1S IXD d 379      15.632  16.583  19.584  0.00  0.00    -0.572 OA
ATOM      8  O61 IXD d 379      13.905  18.319  27.035  0.00  0.00    -0.646 OA
ATOM      9  C2  IXD d 379      15.943  18.283  22.457  0.00  0.00     0.132 C 
ATOM     10  S   IXD d 379      14.798  17.591  20.278  0.00  0.00     0.252 S 
ATOM     11  C4  IXD d 379      15.196  17.602  24.685  0.00  0.00    -0.005 C 
ATOM     12  O2  IXD d 379      14.958  17.486  21.806  0.00  0.00    -0.244 OA
ATOM     13  C3  IXD d 379      16.386  17.666  23.781  0.00  0.00     0.069 C 
ATOM     14  O3  IXD d 379      16.929  16.366  23.667  0.00  0.00    -0.393 OA
ATOM     15  C6  IXD d 379      14.313  19.186  26.217  0.00  0.00     0.203 C 
ATOM     16  H   IXD d 379      13.617  19.185  24.958  0.00  0.00     0.100 H 
ATOM     17  H   IXD d 379      14.993  20.377  22.012  0.00  0.00     0.133 H 
ATOM     18  H   IXD d 379      16.795  18.340  21.812  0.00  0.00     0.097 H 
ATOM     19  H   IXD d 379      14.487  16.924  24.260  0.00  0.00     0.041 H 
ATOM     20  H   IXD d 379      15.550  17.281  25.642  0.00  0.00     0.041 H 
ATOM     21  H   IXD d 379      17.168  18.288  24.165  0.00  0.00     0.087 H 
ATOM     22  H   IXD d 379      16.253  15.763  23.321  0.00  0.00     0.210 HD
ATOM     23  C4  SGN d 378      17.613  20.495  22.909  0.00  0.00     0.095 C 
ATOM     24  C6  SGN d 378      16.778  22.356  24.260  0.00  0.00     0.067 C 
ATOM     25  S1  SGN d 378      21.002  20.908  19.188  0.00  0.00     0.156 S 
ATOM     26  S2  SGN d 378      18.042  24.073  25.591  0.00  0.00     0.251 S 
ATOM     27  O4S SGN d 378      19.045  24.004  26.635  0.00  0.00    -0.572 OA
ATOM     28  C3  SGN d 378      18.119  20.063  21.540  0.00  0.00     0.083 C 
ATOM     29  C5  SGN d 378      17.090  21.921  22.846  0.00  0.00     0.091 C 
ATOM     30  C2  SGN d 378      19.098  21.095  21.010  0.00  0.00     0.081 C 
ATOM     31  C1  SGN d 378      18.487  22.490  21.031  0.00  0.00     0.147 C 
ATOM     32  O3  SGN d 378      18.797  18.832  21.619  0.00  0.00    -0.391 OA
ATOM     33  O3S SGN d 378      21.825  19.992  19.970  0.00  0.00    -0.296 OA
ATOM     34  O4  SGN d 378      16.556  19.670  23.356  0.00  0.00    -0.348 OA
ATOM     35  N   SGN d 378      19.485  20.734  19.661  0.00  0.00    -0.210 NA
ATOM     36  O6  SGN d 378      18.007  22.724  24.839  0.00  0.00    -0.254 OA
ATOM     37  O1  SGN d 378      17.400  22.538  20.138  0.00  0.00    -0.369 OA
ATOM     38  O2S SGN d 378      21.354  22.299  19.474  0.00  0.00    -0.296 OA
ATOM     39  O6S SGN d 378      16.696  24.291  26.107  0.00  0.00    -0.572 OA
ATOM     40  O5S SGN d 378      18.393  25.073  24.589  0.00  0.00    -0.572 OA
ATOM     41  O5  SGN d 378      18.052  22.817  22.332  0.00  0.00    -0.350 OA
ATOM     42  O1S SGN d 378      21.026  20.564  17.766  0.00  0.00    -0.296 OA
ATOM     43  H   SGN d 378      18.437  20.420  23.587  0.00  0.00     0.091 H 
ATOM     44  H   SGN d 378      16.336  21.550  24.807  0.00  0.00     0.080 H 
ATOM     45  H   SGN d 378      16.083  23.170  24.272  0.00  0.00     0.080 H 
ATOM     46  H   SGN d 378      17.273  19.968  20.893  0.00  0.00     0.089 H 
ATOM     47  H   SGN d 378      16.233  21.937  22.206  0.00  0.00     0.090 H 
ATOM     48  H   SGN d 378      19.963  21.111  21.640  0.00  0.00     0.076 H 
ATOM     49  H   SGN d 378      19.228  23.200  20.731  0.00  0.00     0.131 H 
ATOM     50  H   SGN d 378      19.564  18.923  22.206  0.00  0.00     0.210 HD
ATOM     51  H   SGN d 378      21.574  19.078  19.765  0.00  0.00     0.231 HD
ATOM     52  H   SGN d 378      19.251  19.749  19.543  0.00  0.00     0.140 HD
ATOM     53  H   SGN d 378      16.729  21.893  20.411  0.00  0.00     0.212 HD
ATOM     54  H   SGN d 378      20.796  22.889  18.944  0.00  0.00     0.231 HD
ATOM     55  H   SGN d 378      20.472  21.189  17.273  0.00  0.00     0.231 HD
ENDROOT
TORSDOF 16
ENDMDL
MODEL 55
REMARK VINA RESULT:      -0.7      3.182      6.332
REMARK  0 active torsions:
REMARK  status: ('A' for Active; 'I' for Inactive)
REMARK       I    between atoms: C4_5  and  O4_20 
REMARK       I    between atoms: C6_6  and  C5_15 
REMARK       I    between atoms: C6_6  and  O6_25 
REMARK       I    between atoms: S1_7  and  N_21 
REMARK       I    between atoms: S1_7  and  O1S_34 
REMARK       I    between atoms: S1_7  and  O2S_27 
REMARK       I    between atoms: S1_7  and  O3S_19 
REMARK       I    between atoms: C5_8  and  C6_35 
REMARK       I    between atoms: S2_9  and  O6_25 
REMARK       I    between atoms: C1_10  and  O4_20 
REMARK       I    between atoms: C3_14  and  O3_18 
REMARK       I    between atoms: C2_16  and  N_21 
REMARK       I    between atoms: C1_17  and  O1_26 
REMARK       I    between atoms: C2_22  and  O2_29 
REMARK       I    between atoms: S_23  and  O2_29 
REMARK       I    between atoms: C3_30  and  O3_31 
ROOT
ATOM      1  O3S IXD d 379      16.039  23.860  19.656  0.00  0.00    -0.572 OA
ATOM      2  O2S IXD d 379      13.767  24.390  19.003  0.00  0.00    -0.572 OA
ATOM      3  O5  IXD d 379      14.295  20.886  21.762  0.00  0.00    -0.343 OA
ATOM      4  O62 IXD d 379      13.887  18.415  23.236  0.00  0.00    -0.646 OA
ATOM      5  C5  IXD d 379      13.745  19.621  21.303  0.00  0.00     0.127 C 
ATOM      6  C1  IXD d 379      15.519  21.310  21.150  0.00  0.00     0.161 C 
ATOM      7  O1S IXD d 379      15.361  23.590  17.375  0.00  0.00    -0.572 OA
ATOM      8  O61 IXD d 379      12.240  17.936  21.827  0.00  0.00    -0.646 OA
ATOM      9  C2  IXD d 379      15.435  21.118  19.638  0.00  0.00     0.132 C 
ATOM     10  S   IXD d 379      14.907  23.468  18.780  0.00  0.00     0.252 S 
ATOM     11  C4  IXD d 379      13.760  19.372  20.001  0.00  0.00    -0.005 C 
ATOM     12  O2  IXD d 379      14.477  22.023  19.099  0.00  0.00    -0.244 OA
ATOM     13  C3  IXD d 379      15.071  19.665  19.342  0.00  0.00     0.069 C 
ATOM     14  O3  IXD d 379      14.957  19.361  17.967  0.00  0.00    -0.393 OA
ATOM     15  C6  IXD d 379      13.250  18.599  22.186  0.00  0.00     0.203 C 
ATOM     16  H   IXD d 379      13.099  20.024  22.053  0.00  0.00     0.100 H 
ATOM     17  H   IXD d 379      15.768  22.201  21.689  0.00  0.00     0.133 H 
ATOM     18  H   IXD d 379      16.378  21.327  19.178  0.00  0.00     0.097 H 
ATOM     19  H   IXD d 379      13.008  19.972  19.534  0.00  0.00     0.041 H 
ATOM     20  H   IXD d 379      13.582  18.324  19.883  0.00  0.00     0.041 H 
ATOM     21  H   IXD d 379      15.871  19.063  19.720  0.00  0.00     0.087 H 
ATOM     22  H   IXD d 379      14.240  19.886  17.578  0.00  0.00     0.210 HD
ATOM     23  C4  SGN d 378      17.674  20.274  21.109  0.00  0.00     0.095 C 
ATOM     24  C6  SGN d 378      17.392  19.679  23.465  0.00  0.00     0.067 C 
ATOM     25  S1  SGN d 378      21.899  22.161  19.084  0.00  0.00     0.156 S 
ATOM     26  S2  SGN d 378      18.774  18.165  24.920  0.00  0.00     0.251 S 
ATOM     27  O4S SGN d 378      19.216  16.789  24.813  0.00  0.00    -0.572 OA
ATOM     28  C3  SGN d 378      18.351  21.215  20.122  0.00  0.00     0.083 C 
ATOM     29  C5  SGN d 378      17.922  20.744  22.533  0.00  0.00     0.091 C 
ATOM     30  C2  SGN d 378      19.809  21.395  20.507  0.00  0.00     0.081 C 
ATOM     31  C1  SGN d 378      19.941  21.825  21.962  0.00  0.00     0.147 C 
ATOM     32  O3  SGN d 378      18.315  20.689  18.818  0.00  0.00    -0.391 OA
ATOM     33  O3S SGN d 378      21.890  20.987  18.220  0.00  0.00    -0.296 OA
ATOM     34  O4  SGN d 378      16.275  20.230  20.909  0.00  0.00    -0.348 OA
ATOM     35  N   SGN d 378      20.413  22.380  19.633  0.00  0.00    -0.210 NA
ATOM     36  O6  SGN d 378      18.376  18.674  23.516  0.00  0.00    -0.254 OA
ATOM     37  O1  SGN d 378      19.370  23.100  22.127  0.00  0.00    -0.369 OA
ATOM     38  O2S SGN d 378      22.732  21.935  20.265  0.00  0.00    -0.296 OA
ATOM     39  O6S SGN d 378      17.595  18.321  25.762  0.00  0.00    -0.572 OA
ATOM     40  O5S SGN d 378      19.860  19.034  25.360  0.00  0.00    -0.572 OA
ATOM     41  O5  SGN d 378      19.298  20.899  22.809  0.00  0.00    -0.350 OA
ATOM     42  O1S SGN d 378      22.237  23.372  18.336  0.00  0.00    -0.296 OA
ATOM     43  H   SGN d 378      18.089  19.301  20.949  0.00  0.00     0.091 H 
ATOM     44  H   SGN d 378      16.474  19.279  23.087  0.00  0.00     0.080 H 
ATOM     45  H   SGN d 378      17.191  20.077  24.437  0.00  0.00     0.080 H 
ATOM     46  H   SGN d 378      17.828  22.149  20.150  0.00  0.00     0.089 H 
ATOM     47  H   SGN d 378      17.440  21.690  22.664  0.00  0.00     0.090 H 
ATOM     48  H   SGN d 378      20.315  20.458  20.398  0.00  0.00     0.076 H 
ATOM     49  H   SGN d 378      20.978  21.861  22.221  0.00  0.00     0.131 H 
ATOM     50  H   SGN d 378      18.790  19.844  18.797  0.00  0.00     0.210 HD
ATOM     51  H   SGN d 378      21.332  21.160  17.446  0.00  0.00     0.231 HD
ATOM     52  H   SGN d 378      19.807  22.459  18.817  0.00  0.00     0.140 HD
ATOM     53  H   SGN d 378      18.430  23.066  21.891  0.00  0.00     0.212 HD
ATOM     54  H   SGN d 378      22.723  22.727  20.824  0.00  0.00     0.231 HD
ATOM     55  H   SGN d 378      22.235  24.134  18.936  0.00  0.00     0.231 HD
ENDROOT
TORSDOF 16
ENDMDL
MODEL 56
REMARK VINA RESULT:      -0.7      2.657      5.423
REMARK  0 active torsions:
REMARK  status: ('A' for Active; 'I' for Inactive)
REMARK       I    between atoms: C4_5  and  O4_20 
REMARK       I    between atoms: C6_6  and  C5_15 
REMARK       I    between atoms: C6_6  and  O6_25 
REMARK       I    between atoms: S1_7  and  N_21 
REMARK       I    between atoms: S1_7  and  O1S_34 
REMARK       I    between atoms: S1_7  and  O2S_27 
REMARK       I    between atoms: S1_7  and  O3S_19 
REMARK       I    between atoms: C5_8  and  C6_35 
REMARK       I    between atoms: S2_9  and  O6_25 
REMARK       I    between atoms: C1_10  and  O4_20 
REMARK       I    between atoms: C3_14  and  O3_18 
REMARK       I    between atoms: C2_16  and  N_21 
REMARK       I    between atoms: C1_17  and  O1_26 
REMARK       I    between atoms: C2_22  and  O2_29 
REMARK       I    between atoms: S_23  and  O2_29 
REMARK       I    between atoms: C3_30  and  O3_31 
ROOT
ATOM      1  O3S IXD d 379      18.493  21.060  20.077  0.00  0.00    -0.572 OA
ATOM      2  O2S IXD d 379      20.259  22.714  19.946  0.00  0.00    -0.572 OA
ATOM      3  O5  IXD d 379      18.599  21.871  24.034  0.00  0.00    -0.343 OA
ATOM      4  O62 IXD d 379      17.845  22.082  26.832  0.00  0.00    -0.646 OA
ATOM      5  C5  IXD d 379      18.077  23.016  24.761  0.00  0.00     0.127 C 
ATOM      6  C1  IXD d 379      17.779  21.359  22.976  0.00  0.00     0.161 C 
ATOM      7  O1S IXD d 379      18.101  23.136  18.949  0.00  0.00    -0.572 OA
ATOM      8  O61 IXD d 379      18.301  24.251  26.711  0.00  0.00    -0.646 OA
ATOM      9  C2  IXD d 379      17.245  22.512  22.130  0.00  0.00     0.132 C 
ATOM     10  S   IXD d 379      18.797  22.513  20.099  0.00  0.00     0.252 S 
ATOM     11  C4  IXD d 379      17.503  23.987  24.065  0.00  0.00    -0.005 C 
ATOM     12  O2  IXD d 379      18.325  23.124  21.431  0.00  0.00    -0.244 OA
ATOM     13  C3  IXD d 379      16.526  23.504  23.042  0.00  0.00     0.069 C 
ATOM     14  O3  IXD d 379      15.988  24.626  22.373  0.00  0.00    -0.393 OA
ATOM     15  C6  IXD d 379      18.089  23.121  26.196  0.00  0.00     0.203 C 
ATOM     16  H   IXD d 379      19.029  22.752  25.171  0.00  0.00     0.100 H 
ATOM     17  H   IXD d 379      18.314  20.492  22.647  0.00  0.00     0.133 H 
ATOM     18  H   IXD d 379      16.545  22.156  21.404  0.00  0.00     0.097 H 
ATOM     19  H   IXD d 379      18.269  24.540  23.564  0.00  0.00     0.041 H 
ATOM     20  H   IXD d 379      16.953  24.585  24.762  0.00  0.00     0.041 H 
ATOM     21  H   IXD d 379      15.696  22.982  23.471  0.00  0.00     0.087 H 
ATOM     22  H   IXD d 379      16.707  25.134  21.964  0.00  0.00     0.210 HD
ATOM     23  C4  SGN d 378      15.569  20.445  23.029  0.00  0.00     0.095 C 
ATOM     24  C6  SGN d 378      16.151  19.252  25.084  0.00  0.00     0.067 C 
ATOM     25  S1  SGN d 378      13.025  18.455  19.146  0.00  0.00     0.156 S 
ATOM     26  S2  SGN d 378      14.680  17.991  26.684  0.00  0.00     0.251 S 
ATOM     27  O4S SGN d 378      13.483  18.321  27.431  0.00  0.00    -0.572 OA
ATOM     28  C3  SGN d 378      15.344  20.329  21.528  0.00  0.00     0.083 C 
ATOM     29  C5  SGN d 378      16.126  19.141  23.576  0.00  0.00     0.091 C 
ATOM     30  C2  SGN d 378      14.519  19.089  21.231  0.00  0.00     0.081 C 
ATOM     31  C1  SGN d 378      15.145  17.852  21.861  0.00  0.00     0.147 C 
ATOM     32  O3  SGN d 378      14.637  21.441  21.036  0.00  0.00    -0.391 OA
ATOM     33  O3S SGN d 378      12.039  19.503  19.384  0.00  0.00    -0.296 OA
ATOM     34  O4  SGN d 378      16.492  21.470  23.337  0.00  0.00    -0.348 OA
ATOM     35  N   SGN d 378      14.409  18.924  19.796  0.00  0.00    -0.210 NA
ATOM     36  O6  SGN d 378      14.838  18.994  25.520  0.00  0.00    -0.254 OA
ATOM     37  O1  SGN d 378      16.392  17.601  21.260  0.00  0.00    -0.369 OA
ATOM     38  O2S SGN d 378      12.655  17.223  19.839  0.00  0.00    -0.296 OA
ATOM     39  O6S SGN d 378      15.896  18.092  27.481  0.00  0.00    -0.572 OA
ATOM     40  O5S SGN d 378      14.564  16.678  26.059  0.00  0.00    -0.572 OA
ATOM     41  O5  SGN d 378      15.310  18.036  23.249  0.00  0.00    -0.350 OA
ATOM     42  O1S SGN d 378      13.286  18.283  17.716  0.00  0.00    -0.296 OA
ATOM     43  H   SGN d 378      14.622  20.672  23.471  0.00  0.00     0.091 H 
ATOM     44  H   SGN d 378      16.453  20.236  25.378  0.00  0.00     0.080 H 
ATOM     45  H   SGN d 378      16.847  18.563  25.513  0.00  0.00     0.080 H 
ATOM     46  H   SGN d 378      16.303  20.274  21.056  0.00  0.00     0.089 H 
ATOM     47  H   SGN d 378      17.096  18.986  23.153  0.00  0.00     0.090 H 
ATOM     48  H   SGN d 378      13.544  19.211  21.655  0.00  0.00     0.076 H 
ATOM     49  H   SGN d 378      14.497  17.015  21.703  0.00  0.00     0.131 H 
ATOM     50  H   SGN d 378      13.768  21.486  21.465  0.00  0.00     0.210 HD
ATOM     51  H   SGN d 378      12.306  20.309  18.915  0.00  0.00     0.231 HD
ATOM     52  H   SGN d 378      14.640  19.825  19.378  0.00  0.00     0.140 HD
ATOM     53  H   SGN d 378      16.978  18.360  21.403  0.00  0.00     0.212 HD
ATOM     54  H   SGN d 378      13.323  16.541  19.668  0.00  0.00     0.231 HD
ATOM     55  H   SGN d 378      13.944  17.582  17.590  0.00  0.00     0.231 HD
ENDROOT
TORSDOF 16
ENDMDL
MODEL 57
REMARK VINA RESULT:      -0.4      3.133      6.229
REMARK  0 active torsions:
REMARK  status: ('A' for Active; 'I' for Inactive)
REMARK       I    between atoms: C4_5  and  O4_20 
REMARK       I    between atoms: C6_6  and  C5_15 
REMARK       I    between atoms: C6_6  and  O6_25 
REMARK       I    between atoms: S1_7  and  N_21 
REMARK       I    between atoms: S1_7  and  O1S_34 
REMARK       I    between atoms: S1_7  and  O2S_27 
REMARK       I    between atoms: S1_7  and  O3S_19 
REMARK       I    between atoms: C5_8  and  C6_35 
REMARK       I    between atoms: S2_9  and  O6_25 
REMARK       I    between atoms: C1_10  and  O4_20 
REMARK       I    between atoms: C3_14  and  O3_18 
REMARK       I    between atoms: C2_16  and  N_21 
REMARK       I    between atoms: C1_17  and  O1_26 
REMARK       I    between atoms: C2_22  and  O2_29 
REMARK       I    between atoms: S_23  and  O2_29 
REMARK       I    between atoms: C3_30  and  O3_31 
ROOT
ATOM      1  O3S IXD d 379      17.916  18.542  24.546  0.00  0.00    -0.572 OA
ATOM      2  O2S IXD d 379      16.018  17.144  23.985  0.00  0.00    -0.572 OA
ATOM      3  O5  IXD d 379      18.299  18.905  20.539  0.00  0.00    -0.343 OA
ATOM      4  O62 IXD d 379      19.054  19.897  17.915  0.00  0.00    -0.646 OA
ATOM      5  C5  IXD d 379      17.527  19.702  19.601  0.00  0.00     0.127 C 
ATOM      6  C1  IXD d 379      18.611  19.521  21.795  0.00  0.00     0.161 C 
ATOM      7  O1S IXD d 379      15.700  19.260  25.102  0.00  0.00    -0.572 OA
ATOM      8  O61 IXD d 379      16.900  19.883  17.376  0.00  0.00    -0.646 OA
ATOM      9  C2  IXD d 379      17.370  20.211  22.355  0.00  0.00     0.132 C 
ATOM     10  S   IXD d 379      16.504  18.542  24.086  0.00  0.00     0.252 S 
ATOM     11  C4  IXD d 379      16.508  20.407  20.074  0.00  0.00    -0.005 C 
ATOM     12  O2  IXD d 379      16.403  19.229  22.712  0.00  0.00    -0.244 OA
ATOM     13  C3  IXD d 379      16.830  21.185  21.310  0.00  0.00     0.069 C 
ATOM     14  O3  IXD d 379      15.671  21.886  21.710  0.00  0.00    -0.393 OA
ATOM     15  C6  IXD d 379      17.848  19.822  18.204  0.00  0.00     0.203 C 
ATOM     16  H   IXD d 379      17.731  18.751  19.158  0.00  0.00     0.100 H 
ATOM     17  H   IXD d 379      19.236  18.798  22.276  0.00  0.00     0.133 H 
ATOM     18  H   IXD d 379      17.612  20.767  23.236  0.00  0.00     0.097 H 
ATOM     19  H   IXD d 379      15.708  19.733  20.299  0.00  0.00     0.041 H 
ATOM     20  H   IXD d 379      16.246  21.118  19.319  0.00  0.00     0.041 H 
ATOM     21  H   IXD d 379      17.590  21.921  21.152  0.00  0.00     0.087 H 
ATOM     22  H   IXD d 379      14.949  21.256  21.866  0.00  0.00     0.210 HD
ATOM     23  C4  SGN d 378      19.866  21.497  22.286  0.00  0.00     0.095 C 
ATOM     24  C6  SGN d 378      21.492  20.843  20.578  0.00  0.00     0.067 C 
ATOM     25  S1  SGN d 378      21.034  23.279  26.865  0.00  0.00     0.156 S 
ATOM     26  S2  SGN d 378      23.403  22.145  19.592  0.00  0.00     0.251 S 
ATOM     27  O4S SGN d 378      23.518  23.437  18.947  0.00  0.00    -0.572 OA
ATOM     28  C3  SGN d 378      19.573  21.578  23.777  0.00  0.00     0.083 C 
ATOM     29  C5  SGN d 378      21.157  20.730  22.048  0.00  0.00     0.091 C 
ATOM     30  C2  SGN d 378      20.794  22.109  24.508  0.00  0.00     0.081 C 
ATOM     31  C1  SGN d 378      22.034  21.295  24.165  0.00  0.00     0.147 C 
ATOM     32  O3  SGN d 378      18.505  22.457  24.034  0.00  0.00    -0.391 OA
ATOM     33  O3S SGN d 378      20.289  24.473  26.480  0.00  0.00    -0.296 OA
ATOM     34  O4  SGN d 378      18.835  20.827  21.589  0.00  0.00    -0.348 OA
ATOM     35  N   SGN d 378      20.546  22.073  25.935  0.00  0.00    -0.210 NA
ATOM     36  O6  SGN d 378      22.089  22.105  20.406  0.00  0.00    -0.254 OA
ATOM     37  O1  SGN d 378      21.878  19.981  24.642  0.00  0.00    -0.369 OA
ATOM     38  O2S SGN d 378      22.461  23.444  26.590  0.00  0.00    -0.296 OA
ATOM     39  O6S SGN d 378      23.332  21.039  18.645  0.00  0.00    -0.572 OA
ATOM     40  O5S SGN d 378      24.473  21.943  20.563  0.00  0.00    -0.572 OA
ATOM     41  O5  SGN d 378      22.241  21.277  22.770  0.00  0.00    -0.350 OA
ATOM     42  O1S SGN d 378      20.730  22.881  28.239  0.00  0.00    -0.296 OA
ATOM     43  H   SGN d 378      19.947  22.501  21.927  0.00  0.00     0.091 H 
ATOM     44  H   SGN d 378      20.602  20.771  19.989  0.00  0.00     0.080 H 
ATOM     45  H   SGN d 378      22.147  20.056  20.266  0.00  0.00     0.080 H 
ATOM     46  H   SGN d 378      19.321  20.594  24.115  0.00  0.00     0.089 H 
ATOM     47  H   SGN d 378      21.012  19.719  22.367  0.00  0.00     0.090 H 
ATOM     48  H   SGN d 378      20.972  23.118  24.199  0.00  0.00     0.076 H 
ATOM     49  H   SGN d 378      22.886  21.746  24.629  0.00  0.00     0.131 H 
ATOM     50  H   SGN d 378      18.738  23.347  23.727  0.00  0.00     0.210 HD
ATOM     51  H   SGN d 378      19.347  24.341  26.671  0.00  0.00     0.231 HD
ATOM     52  H   SGN d 378      19.536  21.999  26.056  0.00  0.00     0.140 HD
ATOM     53  H   SGN d 378      21.106  19.573  24.221  0.00  0.00     0.212 HD
ATOM     54  H   SGN d 378      22.936  22.640  26.853  0.00  0.00     0.231 HD
ATOM     55  H   SGN d 378      21.239  22.087  28.465  0.00  0.00     0.231 HD
ENDROOT
TORSDOF 16
ENDMDL
