REMARK  0 active torsions:
REMARK  status: ('A' for Active; 'I' for Inactive)
REMARK       I    between atoms: C3_1  and  O3_85 
REMARK       I    between atoms: C6_2  and  C5_22 
REMARK       I    between atoms: C6_3  and  C5_14 
REMARK       I    between atoms: C6_3  and  O6_30 
REMARK       I    between atoms: C1_4  and  O1_84 
REMARK       I    between atoms: O2S_6  and  S1_45 
REMARK       I    between atoms: C1_7  and  O1_36 
REMARK       I    between atoms: S1_10  and  N_69 
REMARK       I    between atoms: S1_10  and  O1S_27 
REMARK       I    between atoms: S1_10  and  O2S_71 
REMARK       I    between atoms: S1_10  and  O3S_88 
REMARK       I    between atoms: O4_11  and  C1_42 
REMARK       I    between atoms: O4_11  and  C4_63 
REMARK       I    between atoms: O6_12  and  C6_94 
REMARK       I    between atoms: O6_12  and  S2_28 
REMARK       I    between atoms: C1_13  and  O4_51 
REMARK       I    between atoms: S2_16  and  O6_76 
REMARK       I    between atoms: C3_18  and  O3_103 
REMARK       I    between atoms: C1_19  and  O1_37 
REMARK       I    between atoms: O4_20  and  C1_23 
REMARK       I    between atoms: O4_20  and  C4_77 
REMARK       I    between atoms: O3S_21  and  S1_92 
REMARK       I    between atoms: C3_24  and  O3_87 
REMARK       I    between atoms: O3_25  and  C3_46 
REMARK       I    between atoms: C6_29  and  C5_79 
REMARK       I    between atoms: C6_29  and  O6_76 
REMARK       I    between atoms: O6_30  and  S2_31 
REMARK       I    between atoms: O1_36  and  C4_81 
REMARK       I    between atoms: C2_38  and  O2_72 
REMARK       I    between atoms: S1_45  and  N_74 
REMARK       I    between atoms: S1_45  and  O1S_75 
REMARK       I    between atoms: S1_45  and  O3S_101 
REMARK       I    between atoms: O1S_47  and  S1_92 
REMARK       I    between atoms: S_48  and  O2_91 
REMARK       I    between atoms: C5_49  and  C6_67 
REMARK       I    between atoms: O4_51  and  C4_57 
REMARK       I    between atoms: N_52  and  C2_73 
REMARK       I    between atoms: N_52  and  S1_92 
REMARK       I    between atoms: C5_53  and  C6_61 
REMARK       I    between atoms: C4_56  and  O1_84 
REMARK       I    between atoms: C2_62  and  O2_91 
REMARK       I    between atoms: S_66  and  O2_105 
REMARK       I    between atoms: O3_68  and  C3_102 
REMARK       I    between atoms: N_69  and  C2_83 
REMARK       I    between atoms: C3_70  and  O3_98 
REMARK       I    between atoms: O2_72  and  S_96 
REMARK       I    between atoms: N_74  and  C2_86 
REMARK       I    between atoms: O2S_80  and  S1_92 
REMARK       I    between atoms: C5_89  and  C6_94 
REMARK       I    between atoms: C2_104  and  O2_105 
ROOT
ATOM      1  C3  IDS d 305      -3.466   2.502  56.155  0.00  0.00     0.094 C 
ATOM      2  O3S IDS d 305      -8.005   2.373  57.761  0.00  0.00    -0.572 OA
ATOM      3  C1  IDS d 305      -5.539   3.261  55.077  0.00  0.00     0.161 C 
ATOM      4  O62 IDS d 305      -2.964   3.798  52.092  0.00  0.00    -0.646 OA
ATOM      5  O5  IDS d 305      -4.596   3.498  54.054  0.00  0.00    -0.340 OA
ATOM      6  O61 IDS d 305      -2.681   1.612  51.823  0.00  0.00    -0.646 OA
ATOM      7  O1S IDS d 305      -6.560   1.531  59.468  0.00  0.00    -0.572 OA
ATOM      8  C5  IDS d 305      -3.926   2.302  53.696  0.00  0.00     0.152 C 
ATOM      9  S   IDS d 305      -6.733   1.727  58.045  0.00  0.00     0.252 S 
ATOM     10  C6  IDS d 305      -3.143   2.597  52.424  0.00  0.00     0.206 C 
ATOM     11  C4  IDS d 305      -2.962   1.932  54.842  0.00  0.00     0.103 C 
ATOM     12  O3  IDS d 305      -2.942   1.756  57.205  0.00  0.00    -0.390 OA
ATOM     13  O2S IDS d 305      -6.657   0.463  57.371  0.00  0.00    -0.572 OA
ATOM     14  C2  IDS d 305      -4.942   2.322  56.136  0.00  0.00     0.134 C 
ATOM     15  O2  IDS d 305      -5.393   2.682  57.419  0.00  0.00    -0.244 OA
ATOM     16  H   IDS d 305      -3.185   3.527  56.277  0.00  0.00     0.091 H 
ATOM     17  H   IDS d 305      -5.827   4.164  55.574  0.00  0.00     0.133 H 
ATOM     18  H   IDS d 305      -4.604   1.490  53.533  0.00  0.00     0.104 H 
ATOM     19  H   IDS d 305      -2.917   0.864  54.883  0.00  0.00     0.092 H 
ATOM     20  H   IDS d 305      -3.195   0.826  57.098  0.00  0.00     0.210 HD
ATOM     21  H   IDS d 305      -5.229   1.319  55.897  0.00  0.00     0.097 H 
ATOM     22  C6  IDS d 303       5.667   2.963  53.367  0.00  0.00     0.206 C 
ATOM     23  O61 IDS d 303       6.321   3.993  53.287  0.00  0.00    -0.646 OA
ATOM     24  C5  IDS d 303       4.682   2.647  52.298  0.00  0.00     0.152 C 
ATOM     25  C1  IDS d 303       2.961   1.134  51.722  0.00  0.00     0.161 C 
ATOM     26  O3  IDS d 303       3.208   3.617  50.018  0.00  0.00    -0.390 OA
ATOM     27  O2S IDS d 303       2.617  -0.345  47.873  0.00  0.00    -0.572 OA
ATOM     28  O5  IDS d 303       4.116   1.353  52.541  0.00  0.00    -0.340 OA
ATOM     29  C3  IDS d 303       4.083   2.545  49.919  0.00  0.00     0.094 C 
ATOM     30  S   IDS d 303       3.037  -0.958  49.077  0.00  0.00     0.252 S 
ATOM     31  C4  IDS d 303       5.269   2.694  50.894  0.00  0.00     0.103 C 
ATOM     32  O1S IDS d 303       3.835  -2.099  48.855  0.00  0.00    -0.572 OA
ATOM     33  C2  IDS d 303       3.323   1.294  50.245  0.00  0.00     0.134 C 
ATOM     34  O3S IDS d 303       1.846  -1.263  49.778  0.00  0.00    -0.572 OA
ATOM     35  O2  IDS d 303       4.027   0.204  49.849  0.00  0.00    -0.244 OA
ATOM     36  O62 IDS d 303       5.615   2.272  54.362  0.00  0.00    -0.646 OA
ATOM     37  H   IDS d 303       3.930   3.407  52.337  0.00  0.00     0.104 H 
ATOM     38  H   IDS d 303       2.633   0.129  51.886  0.00  0.00     0.133 H 
ATOM     39  H   IDS d 303       2.475   3.495  49.395  0.00  0.00     0.210 HD
ATOM     40  H   IDS d 303       4.480   2.507  48.926  0.00  0.00     0.091 H 
ATOM     41  H   IDS d 303       5.801   3.598  50.681  0.00  0.00     0.092 H 
ATOM     42  H   IDS d 303       2.400   1.380  49.711  0.00  0.00     0.097 H 
ATOM     43  C6  SGN d 306      -8.060   4.822  55.666  0.00  0.00     0.067 C 
ATOM     44  S1  SGN d 306     -10.090   3.601  49.174  0.00  0.00     0.156 S 
ATOM     45  C5  SGN d 306      -8.594   3.981  54.519  0.00  0.00     0.091 C 
ATOM     46  C3  SGN d 306      -7.907   2.817  52.419  0.00  0.00     0.083 C 
ATOM     47  C1  SGN d 306     -10.059   4.130  52.604  0.00  0.00     0.147 C 
ATOM     48  O1S SGN d 306     -10.637   2.562  48.340  0.00  0.00    -0.296 OA
ATOM     49  O6  SGN d 306      -7.062   5.709  55.165  0.00  0.00    -0.254 OA
ATOM     50  S2  SGN d 306      -6.589   7.130  56.110  0.00  0.00     0.251 S 
ATOM     51  O4S SGN d 306      -5.342   6.897  56.783  0.00  0.00    -0.572 OA
ATOM     52  O1  SGN d 306     -10.822   2.997  52.993  0.00  0.00    -0.369 OA
ATOM     53  O4  SGN d 306      -6.631   2.636  54.438  0.00  0.00    -0.348 OA
ATOM     54  C4  SGN d 306      -7.417   3.540  53.664  0.00  0.00     0.095 C 
ATOM     55  N   SGN d 306      -9.504   2.850  50.656  0.00  0.00    -0.210 NA
ATOM     56  O2S SGN d 306      -8.971   4.223  48.526  0.00  0.00    -0.296 OA
ATOM     57  O5  SGN d 306      -9.499   4.790  53.732  0.00  0.00    -0.350 OA
ATOM     58  O6S SGN d 306      -6.432   8.229  55.195  0.00  0.00    -0.572 OA
ATOM     59  C2  SGN d 306      -8.923   3.686  51.686  0.00  0.00     0.081 C 
ATOM     60  O3S SGN d 306     -11.111   4.571  49.475  0.00  0.00    -0.296 OA
ATOM     61  O5S SGN d 306      -7.641   7.430  57.050  0.00  0.00    -0.572 OA
ATOM     62  O3  SGN d 306      -6.798   2.693  51.539  0.00  0.00    -0.391 OA
ATOM     63  H   SGN d 306      -7.632   4.184  56.410  0.00  0.00     0.080 H 
ATOM     64  H   SGN d 306      -8.858   5.385  56.104  0.00  0.00     0.080 H 
ATOM     65  H   SGN d 306      -9.116   3.122  54.886  0.00  0.00     0.090 H 
ATOM     66  H   SGN d 306      -8.335   1.876  52.695  0.00  0.00     0.089 H 
ATOM     67  H   SGN d 306     -10.712   4.809  52.097  0.00  0.00     0.131 H 
ATOM     68  H   SGN d 306      -9.946   1.911  48.140  0.00  0.00     0.231 HD
ATOM     69  H   SGN d 306     -10.250   2.365  53.456  0.00  0.00     0.212 HD
ATOM     70  H   SGN d 306      -6.848   4.395  53.365  0.00  0.00     0.091 H 
ATOM     71  H   SGN d 306      -8.792   2.171  50.386  0.00  0.00     0.140 HD
ATOM     72  H   SGN d 306      -8.296   3.554  48.333  0.00  0.00     0.231 HD
ATOM     73  H   SGN d 306      -8.434   4.559  51.308  0.00  0.00     0.076 H 
ATOM     74  H   SGN d 306     -11.857   4.130  49.912  0.00  0.00     0.231 HD
ATOM     75  H   SGN d 306      -6.454   3.575  51.326  0.00  0.00     0.210 HD
ATOM     76  C1  SGN d 302       7.494   1.847  50.388  0.00  0.00     0.150 C 
ATOM     77  O4  SGN d 302       8.929  -1.478  52.417  0.00  0.00    -0.348 OA
ATOM     78  O6  SGN d 302      10.627   1.015  53.100  0.00  0.00    -0.254 OA
ATOM     79  O3S SGN d 302       6.464   2.531  47.508  0.00  0.00    -0.296 OA
ATOM     80  S2  SGN d 302      11.769   2.013  53.898  0.00  0.00     0.251 S 
ATOM     81  O5  SGN d 302       8.369   2.017  51.505  0.00  0.00    -0.349 OA
ATOM     82  O1S SGN d 302       5.817   0.577  46.385  0.00  0.00    -0.296 OA
ATOM     83  O6S SGN d 302      11.137   3.281  54.146  0.00  0.00    -0.572 OA
ATOM     84  N   SGN d 302       6.945   0.298  48.688  0.00  0.00    -0.210 NA
ATOM     85  O5S SGN d 302      12.072   1.396  55.139  0.00  0.00    -0.572 OA
ATOM     86  C4  SGN d 302       9.068  -0.313  51.603  0.00  0.00     0.095 C 
ATOM     87  O3  SGN d 302       8.742  -1.623  49.674  0.00  0.00    -0.391 OA
ATOM     88  C2  SGN d 302       8.008   0.659  49.577  0.00  0.00     0.081 C 
ATOM     89  O2S SGN d 302       8.053   1.187  46.578  0.00  0.00    -0.296 OA
ATOM     90  O1  SGN d 302       6.151   1.579  50.786  0.00  0.00    -0.348 OA
ATOM     91  C5  SGN d 302       8.458   0.874  52.348  0.00  0.00     0.091 C 
ATOM     92  S1  SGN d 302       6.805   1.192  47.206  0.00  0.00     0.156 S 
ATOM     93  C6  SGN d 302       9.312   1.248  53.503  0.00  0.00     0.067 C 
ATOM     94  O4S SGN d 302      12.942   2.098  53.107  0.00  0.00    -0.572 OA
ATOM     95  C3  SGN d 302       8.171  -0.581  50.431  0.00  0.00     0.083 C 
ATOM     96  H   SGN d 302       7.486   2.754  49.821  0.00  0.00     0.131 H 
ATOM     97  H   SGN d 302       5.598   2.554  47.945  0.00  0.00     0.231 HD
ATOM     98  H   SGN d 302       4.962   0.593  46.842  0.00  0.00     0.231 HD
ATOM     99  H   SGN d 302       6.069   0.411  49.197  0.00  0.00     0.140 HD
ATOM    100  H   SGN d 302      10.087  -0.110  51.346  0.00  0.00     0.091 H 
ATOM    101  H   SGN d 302       8.841  -2.411  50.231  0.00  0.00     0.210 HD
ATOM    102  H   SGN d 302       8.936   0.939  49.124  0.00  0.00     0.076 H 
ATOM    103  H   SGN d 302       7.998   1.682  45.746  0.00  0.00     0.231 HD
ATOM    104  H   SGN d 302       7.482   0.576  52.671  0.00  0.00     0.090 H 
ATOM    105  H   SGN d 302       9.175   2.281  53.747  0.00  0.00     0.080 H 
ATOM    106  H   SGN d 302       9.063   0.680  54.375  0.00  0.00     0.080 H 
ATOM    107  H   SGN d 302       7.199  -0.861  50.778  0.00  0.00     0.089 H 
ATOM    108  O2S SGN d 304       0.206   5.512  58.022  0.00  0.00    -0.296 OA
ATOM    109  C1  SGN d 304      -0.663   1.762  55.335  0.00  0.00     0.150 C 
ATOM    110  S2  SGN d 304       1.531  -2.291  54.307  0.00  0.00     0.251 S 
ATOM    111  O4  SGN d 304       1.873   1.969  52.085  0.00  0.00    -0.348 OA
ATOM    112  C6  SGN d 304       0.426  -0.448  52.543  0.00  0.00     0.067 C 
ATOM    113  O4S SGN d 304       2.551  -2.694  53.390  0.00  0.00    -0.572 OA
ATOM    114  O1  SGN d 304      -1.664   2.453  54.615  0.00  0.00    -0.348 OA
ATOM    115  O5  SGN d 304      -0.268   0.593  54.634  0.00  0.00    -0.349 OA
ATOM    116  S1  SGN d 304       0.237   4.103  57.783  0.00  0.00     0.156 S 
ATOM    117  O5S SGN d 304       1.057  -3.426  55.039  0.00  0.00    -0.572 OA
ATOM    118  C3  SGN d 304       1.031   3.031  54.073  0.00  0.00     0.083 C 
ATOM    119  N   SGN d 304       0.042   3.913  56.033  0.00  0.00    -0.210 NA
ATOM    120  O1S SGN d 304      -0.816   3.441  58.502  0.00  0.00    -0.296 OA
ATOM    121  O6  SGN d 304       0.190  -1.585  53.377  0.00  0.00    -0.254 OA
ATOM    122  C4  SGN d 304       1.400   1.719  53.394  0.00  0.00     0.095 C 
ATOM    123  C5  SGN d 304       0.173   0.843  53.307  0.00  0.00     0.091 C 
ATOM    124  C2  SGN d 304       0.514   2.695  55.441  0.00  0.00     0.081 C 
ATOM    125  O6S SGN d 304       2.057  -1.318  55.229  0.00  0.00    -0.572 OA
ATOM    126  O3  SGN d 304       2.153   3.874  54.220  0.00  0.00    -0.391 OA
ATOM    127  O3S SGN d 304       1.508   3.558  58.185  0.00  0.00    -0.296 OA
ATOM    128  H   SGN d 304      -0.654   5.868  57.748  0.00  0.00     0.231 HD
ATOM    129  H   SGN d 304      -1.026   1.468  56.298  0.00  0.00     0.131 H 
ATOM    130  H   SGN d 304       1.442  -0.464  52.207  0.00  0.00     0.080 H 
ATOM    131  H   SGN d 304      -0.242  -0.490  51.708  0.00  0.00     0.080 H 
ATOM    132  H   SGN d 304       0.305   3.542  53.476  0.00  0.00     0.089 H 
ATOM    133  H   SGN d 304       0.539   4.683  55.585  0.00  0.00     0.140 HD
ATOM    134  H   SGN d 304      -1.672   3.808  58.232  0.00  0.00     0.231 HD
ATOM    135  H   SGN d 304       2.164   1.233  53.964  0.00  0.00     0.091 H 
ATOM    136  H   SGN d 304      -0.588   1.349  52.750  0.00  0.00     0.090 H 
ATOM    137  H   SGN d 304       1.290   2.236  56.017  0.00  0.00     0.076 H 
ATOM    138  H   SGN d 304       2.824   3.428  54.760  0.00  0.00     0.210 HD
ATOM    139  H   SGN d 304       2.219   4.005  57.700  0.00  0.00     0.231 HD
ATOM    140  O1S UAP d 301      11.351  -2.232  56.234  0.00  0.00    -0.572 OA
ATOM    141  C3  UAP d 301       8.988  -4.308  53.124  0.00  0.00     0.086 C 
ATOM    142  O62 UAP d 301      12.294  -3.721  49.890  0.00  0.00    -0.642 OA
ATOM    143  C2  UAP d 301       9.748  -3.216  53.834  0.00  0.00     0.135 C 
ATOM    144  O61 UAP d 301      11.010  -5.451  49.781  0.00  0.00    -0.642 OA
ATOM    145  C1  UAP d 301      10.124  -2.097  52.886  0.00  0.00     0.167 C 
ATOM    146  C5  UAP d 301      10.494  -3.837  51.265  0.00  0.00     0.147 C 
ATOM    147  C4  UAP d 301       9.528  -4.606  51.810  0.00  0.00    -0.034 C 
ATOM    148  O3S UAP d 301      10.395  -4.350  56.680  0.00  0.00    -0.572 OA
ATOM    149  C6  UAP d 301      11.258  -4.330  50.245  0.00  0.00     0.233 C 
ATOM    150  O5  UAP d 301      10.908  -2.670  51.849  0.00  0.00    -0.311 OA
ATOM    151  O2S UAP d 301      12.699  -4.110  56.140  0.00  0.00    -0.572 OA
ATOM    152  O2  UAP d 301      10.960  -3.774  54.250  0.00  0.00    -0.244 OA
ATOM    153  O3  UAP d 301       7.644  -3.987  53.116  0.00  0.00    -0.389 OA
ATOM    154  S   UAP d 301      11.380  -3.620  55.935  0.00  0.00     0.252 S 
ATOM    155  H   UAP d 301       9.106  -5.226  53.662  0.00  0.00     0.093 H 
ATOM    156  H   UAP d 301       9.141  -2.834  54.628  0.00  0.00     0.097 H 
ATOM    157  H   UAP d 301      10.704  -1.330  53.355  0.00  0.00     0.134 H 
ATOM    158  H   UAP d 301       9.168  -5.418  51.285  0.00  0.00     0.085 H 
ATOM    159  H   UAP d 301       7.513  -3.156  52.633  0.00  0.00     0.210 HD
ENDROOT
TORSDOF 50
