MODEL 1
REMARK VINA RESULT:     -10.7      0.000      0.000
REMARK  0 active torsions:
REMARK  status: ('A' for Active; 'I' for Inactive)
REMARK       I    between atoms: C3_1  and  O3_85 
REMARK       I    between atoms: C6_2  and  C5_22 
REMARK       I    between atoms: C6_3  and  C5_14 
REMARK       I    between atoms: C6_3  and  O6_30 
REMARK       I    between atoms: C1_4  and  O1_84 
REMARK       I    between atoms: O2S_6  and  S1_45 
REMARK       I    between atoms: C1_7  and  O1_36 
REMARK       I    between atoms: S1_10  and  N_69 
REMARK       I    between atoms: S1_10  and  O1S_27 
REMARK       I    between atoms: S1_10  and  O2S_71 
REMARK       I    between atoms: S1_10  and  O3S_88 
REMARK       I    between atoms: O4_11  and  C1_42 
REMARK       I    between atoms: O4_11  and  C4_63 
REMARK       I    between atoms: O6_12  and  C6_94 
REMARK       I    between atoms: O6_12  and  S2_28 
REMARK       I    between atoms: C1_13  and  O4_51 
REMARK       I    between atoms: S2_16  and  O6_76 
REMARK       I    between atoms: C3_18  and  O3_103 
REMARK       I    between atoms: C1_19  and  O1_37 
REMARK       I    between atoms: O4_20  and  C1_23 
REMARK       I    between atoms: O4_20  and  C4_77 
REMARK       I    between atoms: O3S_21  and  S1_92 
REMARK       I    between atoms: C3_24  and  O3_87 
REMARK       I    between atoms: O3_25  and  C3_46 
REMARK       I    between atoms: C6_29  and  C5_79 
REMARK       I    between atoms: C6_29  and  O6_76 
REMARK       I    between atoms: O6_30  and  S2_31 
REMARK       I    between atoms: O1_36  and  C4_81 
REMARK       I    between atoms: C2_38  and  O2_72 
REMARK       I    between atoms: S1_45  and  N_74 
REMARK       I    between atoms: S1_45  and  O1S_75 
REMARK       I    between atoms: S1_45  and  O3S_101 
REMARK       I    between atoms: O1S_47  and  S1_92 
REMARK       I    between atoms: S_48  and  O2_91 
REMARK       I    between atoms: C5_49  and  C6_67 
REMARK       I    between atoms: O4_51  and  C4_57 
REMARK       I    between atoms: N_52  and  C2_73 
REMARK       I    between atoms: N_52  and  S1_92 
REMARK       I    between atoms: C5_53  and  C6_61 
REMARK       I    between atoms: C4_56  and  O1_84 
REMARK       I    between atoms: C2_62  and  O2_91 
REMARK       I    between atoms: S_66  and  O2_105 
REMARK       I    between atoms: O3_68  and  C3_102 
REMARK       I    between atoms: N_69  and  C2_83 
REMARK       I    between atoms: C3_70  and  O3_98 
REMARK       I    between atoms: O2_72  and  S_96 
REMARK       I    between atoms: N_74  and  C2_86 
REMARK       I    between atoms: O2S_80  and  S1_92 
REMARK       I    between atoms: C5_89  and  C6_94 
REMARK       I    between atoms: C2_104  and  O2_105 
ROOT
ATOM      1  C3  IDS d 305      -3.576   2.915  56.190  0.00  0.00     0.094 C 
ATOM      2  O3S IDS d 305      -8.136   3.008  57.738  0.00  0.00    -0.572 OA
ATOM      3  C1  IDS d 305      -5.585   3.828  55.112  0.00  0.00     0.161 C 
ATOM      4  O62 IDS d 305      -2.943   4.300  52.175  0.00  0.00    -0.646 OA
ATOM      5  O5  IDS d 305      -4.616   4.039  54.108  0.00  0.00    -0.340 OA
ATOM      6  O61 IDS d 305      -2.786   2.110  51.842  0.00  0.00    -0.646 OA
ATOM      7  O1S IDS d 305      -6.766   2.030  59.435  0.00  0.00    -0.572 OA
ATOM      8  C5  IDS d 305      -4.013   2.816  53.721  0.00  0.00     0.152 C 
ATOM      9  S   IDS d 305      -6.908   2.279  58.017  0.00  0.00     0.252 S 
ATOM     10  C6  IDS d 305      -3.197   3.102  52.468  0.00  0.00     0.206 C 
ATOM     11  C4  IDS d 305      -3.088   2.355  54.866  0.00  0.00     0.103 C 
ATOM     12  O3  IDS d 305      -3.111   2.107  57.223  0.00  0.00    -0.390 OA
ATOM     13  O2S IDS d 305      -6.898   1.034  57.305  0.00  0.00    -0.572 OA
ATOM     14  C2  IDS d 305      -5.059   2.823  56.148  0.00  0.00     0.134 C 
ATOM     15  O2  IDS d 305      -5.506   3.171  57.436  0.00  0.00    -0.244 OA
ATOM     16  H   IDS d 305      -3.236   3.917  56.347  0.00  0.00     0.091 H 
ATOM     17  H   IDS d 305      -5.826   4.731  55.633  0.00  0.00     0.133 H 
ATOM     18  H   IDS d 305      -4.736   2.052  53.525  0.00  0.00     0.104 H 
ATOM     19  H   IDS d 305      -3.107   1.286  54.875  0.00  0.00     0.092 H 
ATOM     20  H   IDS d 305      -3.417   1.198  57.084  0.00  0.00     0.210 HD
ATOM     21  H   IDS d 305      -5.402   1.847  55.875  0.00  0.00     0.097 H 
ATOM     22  C6  IDS d 303       5.606   2.914  53.525  0.00  0.00     0.206 C 
ATOM     23  O61 IDS d 303       6.320   3.905  53.484  0.00  0.00    -0.646 OA
ATOM     24  C5  IDS d 303       4.618   2.690  52.435  0.00  0.00     0.152 C 
ATOM     25  C1  IDS d 303       2.819   1.300  51.793  0.00  0.00     0.161 C 
ATOM     26  O3  IDS d 303       3.235   3.814  50.169  0.00  0.00    -0.390 OA
ATOM     27  O2S IDS d 303       2.440  -0.039  47.896  0.00  0.00    -0.572 OA
ATOM     28  O5  IDS d 303       3.973   1.425  52.632  0.00  0.00    -0.340 OA
ATOM     29  C3  IDS d 303       4.047   2.695  50.047  0.00  0.00     0.094 C 
ATOM     30  S   IDS d 303       2.807  -0.712  49.085  0.00  0.00     0.252 S 
ATOM     31  C4  IDS d 303       5.226   2.744  51.040  0.00  0.00     0.103 C 
ATOM     32  O1S IDS d 303       3.539  -1.891  48.838  0.00  0.00    -0.572 OA
ATOM     33  C2  IDS d 303       3.209   1.483  50.326  0.00  0.00     0.134 C 
ATOM     34  O3S IDS d 303       1.590  -0.966  49.763  0.00  0.00    -0.572 OA
ATOM     35  O2  IDS d 303       3.853   0.365  49.904  0.00  0.00    -0.244 OA
ATOM     36  O62 IDS d 303       5.499   2.198  54.497  0.00  0.00    -0.646 OA
ATOM     37  H   IDS d 303       3.912   3.492  52.489  0.00  0.00     0.104 H 
ATOM     38  H   IDS d 303       2.430   0.312  51.922  0.00  0.00     0.133 H 
ATOM     39  H   IDS d 303       2.505   3.755  49.534  0.00  0.00     0.210 HD
ATOM     40  H   IDS d 303       4.454   2.664  49.058  0.00  0.00     0.091 H 
ATOM     41  H   IDS d 303       5.813   3.621  50.862  0.00  0.00     0.092 H 
ATOM     42  H   IDS d 303       2.301   1.640  49.784  0.00  0.00     0.097 H 
ATOM     43  C6  SGN d 306      -8.017   5.518  55.719  0.00  0.00     0.067 C 
ATOM     44  S1  SGN d 306     -10.028   4.616  49.169  0.00  0.00     0.156 S 
ATOM     45  C5  SGN d 306      -8.584   4.745  54.540  0.00  0.00     0.091 C 
ATOM     46  C3  SGN d 306      -7.939   3.606  52.414  0.00  0.00     0.083 C 
ATOM     47  C1  SGN d 306     -10.012   5.039  52.614  0.00  0.00     0.147 C 
ATOM     48  O1S SGN d 306     -10.624   3.637  48.297  0.00  0.00    -0.296 OA
ATOM     49  O6  SGN d 306      -6.962   6.358  55.257  0.00  0.00    -0.254 OA
ATOM     50  S2  SGN d 306      -6.418   7.720  56.251  0.00  0.00     0.251 S 
ATOM     51  O4S SGN d 306      -5.196   7.393  56.931  0.00  0.00    -0.572 OA
ATOM     52  O1  SGN d 306     -10.846   3.942  52.959  0.00  0.00    -0.369 OA
ATOM     53  O4  SGN d 306      -6.704   3.289  54.441  0.00  0.00    -0.348 OA
ATOM     54  C4  SGN d 306      -7.424   4.261  53.686  0.00  0.00     0.095 C 
ATOM     55  N   SGN d 306      -9.507   3.787  50.634  0.00  0.00    -0.210 NA
ATOM     56  O2S SGN d 306      -8.865   5.189  48.554  0.00  0.00    -0.296 OA
ATOM     57  O5  SGN d 306      -9.429   5.630  53.768  0.00  0.00    -0.350 OA
ATOM     58  O6S SGN d 306      -6.184   8.834  55.372  0.00  0.00    -0.572 OA
ATOM     59  C2  SGN d 306      -8.892   4.556  51.696  0.00  0.00     0.081 C 
ATOM     60  O3S SGN d 306     -10.993   5.636  49.488  0.00  0.00    -0.296 OA
ATOM     61  O5S SGN d 306      -7.463   8.053  57.188  0.00  0.00    -0.572 OA
ATOM     62  O3  SGN d 306      -6.828   3.443  51.543  0.00  0.00    -0.391 OA
ATOM     63  H   SGN d 306      -7.638   4.833  56.448  0.00  0.00     0.080 H 
ATOM     64  H   SGN d 306      -8.786   6.114  56.165  0.00  0.00     0.080 H 
ATOM     65  H   SGN d 306      -9.161   3.908  54.874  0.00  0.00     0.090 H 
ATOM     66  H   SGN d 306      -8.426   2.684  52.655  0.00  0.00     0.089 H 
ATOM     67  H   SGN d 306     -10.617   5.770  52.120  0.00  0.00     0.131 H 
ATOM     68  H   SGN d 306      -9.970   2.952  48.085  0.00  0.00     0.231 HD
ATOM     69  H   SGN d 306     -10.319   3.263  53.409  0.00  0.00     0.212 HD
ATOM     70  H   SGN d 306      -6.801   5.089  53.420  0.00  0.00     0.091 H 
ATOM     71  H   SGN d 306      -8.833   3.075  50.351  0.00  0.00     0.140 HD
ATOM     72  H   SGN d 306      -8.228   4.488  48.348  0.00  0.00     0.231 HD
ATOM     73  H   SGN d 306      -8.347   5.409  51.351  0.00  0.00     0.076 H 
ATOM     74  H   SGN d 306     -11.770   5.227  49.902  0.00  0.00     0.231 HD
ATOM     75  H   SGN d 306      -6.429   4.309  51.362  0.00  0.00     0.210 HD
ATOM     76  C1  SGN d 302       7.404   1.782  50.535  0.00  0.00     0.150 C 
ATOM     77  O4  SGN d 302       8.612  -1.683  52.477  0.00  0.00    -0.348 OA
ATOM     78  O6  SGN d 302      10.445   0.683  53.256  0.00  0.00    -0.254 OA
ATOM     79  O3S SGN d 302       6.455   2.612  47.665  0.00  0.00    -0.296 OA
ATOM     80  S2  SGN d 302      11.633   1.587  54.098  0.00  0.00     0.251 S 
ATOM     81  O5  SGN d 302       8.272   1.866  51.667  0.00  0.00    -0.349 OA
ATOM     82  O1S SGN d 302       5.709   0.735  46.475  0.00  0.00    -0.296 OA
ATOM     83  O6S SGN d 302      11.074   2.882  54.378  0.00  0.00    -0.572 OA
ATOM     84  N   SGN d 302       6.787   0.320  48.781  0.00  0.00    -0.210 NA
ATOM     85  O5S SGN d 302      11.882   0.916  55.323  0.00  0.00    -0.572 OA
ATOM     86  C4  SGN d 302       8.830  -0.504  51.701  0.00  0.00     0.095 C 
ATOM     87  O3  SGN d 302       8.454  -1.733  49.729  0.00  0.00    -0.391 OA
ATOM     88  C2  SGN d 302       7.857   0.590  49.693  0.00  0.00     0.081 C 
ATOM     89  O2S SGN d 302       7.974   1.205  46.713  0.00  0.00    -0.296 OA
ATOM     90  O1  SGN d 302       6.042   1.582  50.908  0.00  0.00    -0.348 OA
ATOM     91  C5  SGN d 302       8.282   0.694  52.475  0.00  0.00     0.091 C 
ATOM     92  S1  SGN d 302       6.720   1.265  47.326  0.00  0.00     0.156 S 
ATOM     93  C6  SGN d 302       9.141   0.982  53.651  0.00  0.00     0.067 C 
ATOM     94  O4S SGN d 302      12.820   1.626  53.324  0.00  0.00    -0.572 OA
ATOM     95  C3  SGN d 302       7.935  -0.683  50.511  0.00  0.00     0.083 C 
ATOM     96  H   SGN d 302       7.457   2.704  49.996  0.00  0.00     0.131 H 
ATOM     97  H   SGN d 302       5.586   2.674  48.092  0.00  0.00     0.231 HD
ATOM     98  H   SGN d 302       4.850   0.788  46.922  0.00  0.00     0.231 HD
ATOM     99  H   SGN d 302       5.912   0.470  49.283  0.00  0.00     0.140 HD
ATOM    100  H   SGN d 302       9.863  -0.354  51.462  0.00  0.00     0.091 H 
ATOM    101  H   SGN d 302       8.498  -2.542  50.262  0.00  0.00     0.210 HD
ATOM    102  H   SGN d 302       8.806   0.828  49.260  0.00  0.00     0.076 H 
ATOM    103  H   SGN d 302       7.960   1.727  45.896  0.00  0.00     0.231 HD
ATOM    104  H   SGN d 302       7.285   0.445  52.777  0.00  0.00     0.090 H 
ATOM    105  H   SGN d 302       9.062   2.013  53.925  0.00  0.00     0.080 H 
ATOM    106  H   SGN d 302       8.847   0.404  54.502  0.00  0.00     0.080 H 
ATOM    107  H   SGN d 302       6.944  -0.914  50.837  0.00  0.00     0.089 H 
ATOM    108  O2S SGN d 304       0.242   5.643  58.192  0.00  0.00    -0.296 OA
ATOM    109  C1  SGN d 304      -0.810   2.034  55.380  0.00  0.00     0.150 C 
ATOM    110  S2  SGN d 304       1.153  -2.110  54.254  0.00  0.00     0.251 S 
ATOM    111  O4  SGN d 304       1.777   2.187  52.168  0.00  0.00    -0.348 OA
ATOM    112  C6  SGN d 304       0.184  -0.152  52.535  0.00  0.00     0.067 C 
ATOM    113  O4S SGN d 304       2.160  -2.545  53.337  0.00  0.00    -0.572 OA
ATOM    114  O1  SGN d 304      -1.759   2.805  54.670  0.00  0.00    -0.348 OA
ATOM    115  O5  SGN d 304      -0.476   0.865  54.648  0.00  0.00    -0.349 OA
ATOM    116  S1  SGN d 304       0.193   4.242  57.910  0.00  0.00     0.156 S 
ATOM    117  O5S SGN d 304       0.603  -3.236  54.945  0.00  0.00    -0.572 OA
ATOM    118  C3  SGN d 304       0.973   3.237  54.178  0.00  0.00     0.083 C 
ATOM    119  N   SGN d 304       0.011   4.117  56.153  0.00  0.00    -0.210 NA
ATOM    120  O1S SGN d 304      -0.907   3.623  58.596  0.00  0.00    -0.296 OA
ATOM    121  O6  SGN d 304      -0.131  -1.297  53.330  0.00  0.00    -0.254 OA
ATOM    122  C4  SGN d 304       1.272   1.927  53.463  0.00  0.00     0.095 C 
ATOM    123  C5  SGN d 304      -0.003   1.128  53.335  0.00  0.00     0.091 C 
ATOM    124  C2  SGN d 304       0.418   2.892  55.529  0.00  0.00     0.081 C 
ATOM    125  O6S SGN d 304       1.724  -1.198  55.211  0.00  0.00    -0.572 OA
ATOM    126  O3  SGN d 304       2.140   4.007  54.364  0.00  0.00    -0.391 OA
ATOM    127  O3S SGN d 304       1.424   3.611  58.310  0.00  0.00    -0.296 OA
ATOM    128  H   SGN d 304      -0.591   6.058  57.919  0.00  0.00     0.231 HD
ATOM    129  H   SGN d 304      -1.203   1.733  56.330  0.00  0.00     0.131 H 
ATOM    130  H   SGN d 304       1.201  -0.218  52.210  0.00  0.00     0.080 H 
ATOM    131  H   SGN d 304      -0.474  -0.129  51.691  0.00  0.00     0.080 H 
ATOM    132  H   SGN d 304       0.286   3.808  53.589  0.00  0.00     0.089 H 
ATOM    133  H   SGN d 304       0.559   4.869  55.735  0.00  0.00     0.140 HD
ATOM    134  H   SGN d 304      -1.736   4.048  58.327  0.00  0.00     0.231 HD
ATOM    135  H   SGN d 304       1.999   1.379  54.027  0.00  0.00     0.091 H 
ATOM    136  H   SGN d 304      -0.725   1.695  52.785  0.00  0.00     0.090 H 
ATOM    137  H   SGN d 304       1.158   2.370  56.100  0.00  0.00     0.076 H 
ATOM    138  H   SGN d 304       2.777   3.506  54.898  0.00  0.00     0.210 HD
ATOM    139  H   SGN d 304       2.167   4.029  57.847  0.00  0.00     0.231 HD
ATOM    140  O1S UAP d 301      10.933  -2.694  56.297  0.00  0.00    -0.572 OA
ATOM    141  C3  UAP d 301       8.493  -4.531  53.097  0.00  0.00     0.086 C 
ATOM    142  O62 UAP d 301      11.872  -4.045  49.921  0.00  0.00    -0.642 OA
ATOM    143  C2  UAP d 301       9.307  -3.508  53.849  0.00  0.00     0.135 C 
ATOM    144  O61 UAP d 301      10.489  -5.691  49.744  0.00  0.00    -0.642 OA
ATOM    145  C1  UAP d 301       9.761  -2.385  52.940  0.00  0.00     0.167 C 
ATOM    146  C5  UAP d 301      10.050  -4.095  51.271  0.00  0.00     0.147 C 
ATOM    147  C4  UAP d 301       9.033  -4.821  51.781  0.00  0.00    -0.034 C 
ATOM    148  O3S UAP d 301       9.847  -4.764  56.666  0.00  0.00    -0.572 OA
ATOM    149  C6  UAP d 301      10.797  -4.602  50.245  0.00  0.00     0.233 C 
ATOM    150  O5  UAP d 301      10.524  -2.973  51.895  0.00  0.00    -0.311 OA
ATOM    151  O2S UAP d 301      12.168  -4.645  56.161  0.00  0.00    -0.572 OA
ATOM    152  O2  UAP d 301      10.478  -4.150  54.262  0.00  0.00    -0.244 OA
ATOM    153  O3  UAP d 301       7.171  -4.130  53.083  0.00  0.00    -0.389 OA
ATOM    154  S   UAP d 301      10.884  -4.072  55.955  0.00  0.00     0.252 S 
ATOM    155  H   UAP d 301       8.550  -5.470  53.607  0.00  0.00     0.093 H 
ATOM    156  H   UAP d 301       8.713  -3.115  54.647  0.00  0.00     0.097 H 
ATOM    157  H   UAP d 301      10.379  -1.669  53.440  0.00  0.00     0.134 H 
ATOM    158  H   UAP d 301       8.632  -5.594  51.227  0.00  0.00     0.085 H 
ATOM    159  H   UAP d 301       7.096  -3.279  52.624  0.00  0.00     0.210 HD
ENDROOT
TORSDOF 50
ENDMDL
MODEL 2
REMARK VINA RESULT:     -10.4      3.687      5.091
REMARK  0 active torsions:
REMARK  status: ('A' for Active; 'I' for Inactive)
REMARK       I    between atoms: C3_1  and  O3_85 
REMARK       I    between atoms: C6_2  and  C5_22 
REMARK       I    between atoms: C6_3  and  C5_14 
REMARK       I    between atoms: C6_3  and  O6_30 
REMARK       I    between atoms: C1_4  and  O1_84 
REMARK       I    between atoms: O2S_6  and  S1_45 
REMARK       I    between atoms: C1_7  and  O1_36 
REMARK       I    between atoms: S1_10  and  N_69 
REMARK       I    between atoms: S1_10  and  O1S_27 
REMARK       I    between atoms: S1_10  and  O2S_71 
REMARK       I    between atoms: S1_10  and  O3S_88 
REMARK       I    between atoms: O4_11  and  C1_42 
REMARK       I    between atoms: O4_11  and  C4_63 
REMARK       I    between atoms: O6_12  and  C6_94 
REMARK       I    between atoms: O6_12  and  S2_28 
REMARK       I    between atoms: C1_13  and  O4_51 
REMARK       I    between atoms: S2_16  and  O6_76 
REMARK       I    between atoms: C3_18  and  O3_103 
REMARK       I    between atoms: C1_19  and  O1_37 
REMARK       I    between atoms: O4_20  and  C1_23 
REMARK       I    between atoms: O4_20  and  C4_77 
REMARK       I    between atoms: O3S_21  and  S1_92 
REMARK       I    between atoms: C3_24  and  O3_87 
REMARK       I    between atoms: O3_25  and  C3_46 
REMARK       I    between atoms: C6_29  and  C5_79 
REMARK       I    between atoms: C6_29  and  O6_76 
REMARK       I    between atoms: O6_30  and  S2_31 
REMARK       I    between atoms: O1_36  and  C4_81 
REMARK       I    between atoms: C2_38  and  O2_72 
REMARK       I    between atoms: S1_45  and  N_74 
REMARK       I    between atoms: S1_45  and  O1S_75 
REMARK       I    between atoms: S1_45  and  O3S_101 
REMARK       I    between atoms: O1S_47  and  S1_92 
REMARK       I    between atoms: S_48  and  O2_91 
REMARK       I    between atoms: C5_49  and  C6_67 
REMARK       I    between atoms: O4_51  and  C4_57 
REMARK       I    between atoms: N_52  and  C2_73 
REMARK       I    between atoms: N_52  and  S1_92 
REMARK       I    between atoms: C5_53  and  C6_61 
REMARK       I    between atoms: C4_56  and  O1_84 
REMARK       I    between atoms: C2_62  and  O2_91 
REMARK       I    between atoms: S_66  and  O2_105 
REMARK       I    between atoms: O3_68  and  C3_102 
REMARK       I    between atoms: N_69  and  C2_83 
REMARK       I    between atoms: C3_70  and  O3_98 
REMARK       I    between atoms: O2_72  and  S_96 
REMARK       I    between atoms: N_74  and  C2_86 
REMARK       I    between atoms: O2S_80  and  S1_92 
REMARK       I    between atoms: C5_89  and  C6_94 
REMARK       I    between atoms: C2_104  and  O2_105 
ROOT
ATOM      1  C3  IDS d 305      -5.262   1.025  53.672  0.00  0.00     0.094 C 
ATOM      2  O3S IDS d 305      -9.862  -0.257  54.299  0.00  0.00    -0.572 OA
ATOM      3  C1  IDS d 305      -6.891   0.164  52.047  0.00  0.00     0.161 C 
ATOM      4  O62 IDS d 305      -3.617   0.221  49.787  0.00  0.00    -0.646 OA
ATOM      5  O5  IDS d 305      -5.729   0.250  51.250  0.00  0.00    -0.340 OA
ATOM      6  O61 IDS d 305      -2.686  -1.436  50.936  0.00  0.00    -0.646 OA
ATOM      7  O1S IDS d 305      -9.006   0.577  56.368  0.00  0.00    -0.572 OA
ATOM      8  C5  IDS d 305      -4.683  -0.536  51.794  0.00  0.00     0.152 C 
ATOM      9  S   IDS d 305      -8.671  -0.051  55.108  0.00  0.00     0.252 S 
ATOM     10  C6  IDS d 305      -3.584  -0.599  50.742  0.00  0.00     0.206 C 
ATOM     11  C4  IDS d 305      -4.166   0.168  53.065  0.00  0.00     0.103 C 
ATOM     12  O3  IDS d 305      -4.999   1.207  55.025  0.00  0.00    -0.390 OA
ATOM     13  O2S IDS d 305      -8.014  -1.303  55.353  0.00  0.00    -0.572 OA
ATOM     14  C2  IDS d 305      -6.516   0.237  53.534  0.00  0.00     0.134 C 
ATOM     15  O2  IDS d 305      -7.498   0.944  54.253  0.00  0.00    -0.244 OA
ATOM     16  H   IDS d 305      -5.330   1.980  53.194  0.00  0.00     0.091 H 
ATOM     17  H   IDS d 305      -7.574   0.964  51.848  0.00  0.00     0.133 H 
ATOM     18  H   IDS d 305      -5.008  -1.524  52.049  0.00  0.00     0.104 H 
ATOM     19  H   IDS d 305      -3.860  -0.597  53.746  0.00  0.00     0.092 H 
ATOM     20  H   IDS d 305      -4.937   0.343  55.461  0.00  0.00     0.210 HD
ATOM     21  H   IDS d 305      -6.415  -0.761  53.906  0.00  0.00     0.097 H 
ATOM     22  C6  IDS d 303       3.773   3.975  52.636  0.00  0.00     0.206 C 
ATOM     23  O61 IDS d 303       4.111   4.997  52.056  0.00  0.00    -0.646 OA
ATOM     24  C5  IDS d 303       3.388   2.782  51.835  0.00  0.00     0.152 C 
ATOM     25  C1  IDS d 303       2.481   0.609  52.025  0.00  0.00     0.161 C 
ATOM     26  O3  IDS d 303       2.691   1.750  49.235  0.00  0.00    -0.390 OA
ATOM     27  O2S IDS d 303       4.027  -2.550  49.846  0.00  0.00    -0.572 OA
ATOM     28  O5  IDS d 303       3.136   1.680  52.715  0.00  0.00    -0.340 OA
ATOM     29  C3  IDS d 303       3.787   1.274  49.939  0.00  0.00     0.094 C 
ATOM     30  S   IDS d 303       4.105  -2.237  51.223  0.00  0.00     0.252 S 
ATOM     31  C4  IDS d 303       4.429   2.382  50.798  0.00  0.00     0.103 C 
ATOM     32  O1S IDS d 303       5.198  -2.859  51.860  0.00  0.00    -0.572 OA
ATOM     33  C2  IDS d 303       3.320   0.160  50.828  0.00  0.00     0.134 C 
ATOM     34  O3S IDS d 303       2.863  -2.640  51.770  0.00  0.00    -0.572 OA
ATOM     35  O2  IDS d 303       4.382  -0.550  51.284  0.00  0.00    -0.244 OA
ATOM     36  O62 IDS d 303       3.531   3.922  53.823  0.00  0.00    -0.646 OA
ATOM     37  H   IDS d 303       2.506   3.047  51.291  0.00  0.00     0.104 H 
ATOM     38  H   IDS d 303       2.393  -0.211  52.707  0.00  0.00     0.133 H 
ATOM     39  H   IDS d 303       2.309   1.032  48.706  0.00  0.00     0.210 HD
ATOM     40  H   IDS d 303       4.526   0.929  49.246  0.00  0.00     0.091 H 
ATOM     41  H   IDS d 303       4.743   3.191  50.171  0.00  0.00     0.092 H 
ATOM     42  H   IDS d 303       2.682  -0.439  50.214  0.00  0.00     0.097 H 
ATOM     43  C6  SGN d 306      -9.762   0.534  51.176  0.00  0.00     0.067 C 
ATOM     44  S1  SGN d 306      -8.776  -4.465  46.507  0.00  0.00     0.156 S 
ATOM     45  C5  SGN d 306      -9.578  -0.897  50.699  0.00  0.00     0.091 C 
ATOM     46  C3  SGN d 306      -7.865  -2.509  49.862  0.00  0.00     0.083 C 
ATOM     47  C1  SGN d 306     -10.190  -2.365  48.881  0.00  0.00     0.147 C 
ATOM     48  O1S SGN d 306      -8.670  -5.897  46.393  0.00  0.00    -0.296 OA
ATOM     49  O6  SGN d 306      -8.922   1.390  50.405  0.00  0.00    -0.254 OA
ATOM     50  S2  SGN d 306      -9.236   3.133  50.365  0.00  0.00     0.251 S 
ATOM     51  O4S SGN d 306      -8.324   3.831  51.227  0.00  0.00    -0.572 OA
ATOM     52  O1  SGN d 306     -10.715  -3.360  49.748  0.00  0.00    -0.369 OA
ATOM     53  O4  SGN d 306      -7.452  -1.097  51.752  0.00  0.00    -0.348 OA
ATOM     54  C4  SGN d 306      -8.094  -1.138  50.479  0.00  0.00     0.095 C 
ATOM     55  N   SGN d 306      -8.620  -4.047  48.211  0.00  0.00    -0.210 NA
ATOM     56  O2S SGN d 306      -7.702  -3.828  45.800  0.00  0.00    -0.296 OA
ATOM     57  O5  SGN d 306     -10.296  -1.068  49.455  0.00  0.00    -0.350 OA
ATOM     58  O6S SGN d 306      -9.040   3.579  49.011  0.00  0.00    -0.572 OA
ATOM     59  C2  SGN d 306      -8.717  -2.657  48.606  0.00  0.00     0.081 C 
ATOM     60  O3S SGN d 306     -10.052  -4.030  46.000  0.00  0.00    -0.296 OA
ATOM     61  O5S SGN d 306     -10.605   3.363  50.756  0.00  0.00    -0.572 OA
ATOM     62  O3  SGN d 306      -6.515  -2.553  49.420  0.00  0.00    -0.391 OA
ATOM     63  H   SGN d 306      -9.497   0.605  52.209  0.00  0.00     0.080 H 
ATOM     64  H   SGN d 306     -10.785   0.827  51.055  0.00  0.00     0.080 H 
ATOM     65  H   SGN d 306      -9.954  -1.591  51.422  0.00  0.00     0.090 H 
ATOM     66  H   SGN d 306      -8.100  -3.269  50.577  0.00  0.00     0.089 H 
ATOM     67  H   SGN d 306     -10.756  -2.387  47.973  0.00  0.00     0.131 H 
ATOM     68  H   SGN d 306      -7.809  -6.186  46.736  0.00  0.00     0.231 HD
ATOM     69  H   SGN d 306     -10.216  -3.359  50.580  0.00  0.00     0.212 HD
ATOM     70  H   SGN d 306      -7.702  -0.393  49.819  0.00  0.00     0.091 H 
ATOM     71  H   SGN d 306      -7.707  -4.382  48.520  0.00  0.00     0.140 HD
ATOM     72  H   SGN d 306      -6.853  -4.134  46.157  0.00  0.00     0.231 HD
ATOM     73  H   SGN d 306      -8.370  -1.972  47.861  0.00  0.00     0.076 H 
ATOM     74  H   SGN d 306     -10.762  -4.472  46.491  0.00  0.00     0.231 HD
ATOM     75  H   SGN d 306      -6.362  -1.843  48.776  0.00  0.00     0.210 HD
ATOM     76  C1  SGN d 302       6.818   2.463  51.259  0.00  0.00     0.150 C 
ATOM     77  O4  SGN d 302       8.199   1.580  55.073  0.00  0.00    -0.348 OA
ATOM     78  O6  SGN d 302       8.786   4.534  54.373  0.00  0.00    -0.254 OA
ATOM     79  O3S SGN d 302       6.817   1.113  48.430  0.00  0.00    -0.296 OA
ATOM     80  S2  SGN d 302       9.233   6.176  54.576  0.00  0.00     0.251 S 
ATOM     81  O5  SGN d 302       7.125   3.522  52.168  0.00  0.00    -0.349 OA
ATOM     82  O1S SGN d 302       7.186  -1.194  48.625  0.00  0.00    -0.296 OA
ATOM     83  O6S SGN d 302       8.243   6.979  53.909  0.00  0.00    -0.572 OA
ATOM     84  N   SGN d 302       7.386   0.220  50.773  0.00  0.00    -0.210 NA
ATOM     85  O5S SGN d 302       9.193   6.454  55.967  0.00  0.00    -0.572 OA
ATOM     86  C4  SGN d 302       8.323   2.118  53.756  0.00  0.00     0.095 C 
ATOM     87  O3  SGN d 302       9.112   0.039  52.982  0.00  0.00    -0.391 OA
ATOM     88  C2  SGN d 302       7.895   1.392  51.418  0.00  0.00     0.081 C 
ATOM     89  O2S SGN d 302       8.934   0.334  48.758  0.00  0.00    -0.296 OA
ATOM     90  O1  SGN d 302       5.547   1.872  51.522  0.00  0.00    -0.348 OA
ATOM     91  C5  SGN d 302       7.186   3.114  53.530  0.00  0.00     0.091 C 
ATOM     92  S1  SGN d 302       7.588   0.103  49.052  0.00  0.00     0.156 S 
ATOM     93  C6  SGN d 302       7.406   4.336  54.343  0.00  0.00     0.067 C 
ATOM     94  O4S SGN d 302      10.550   6.362  54.089  0.00  0.00    -0.572 OA
ATOM     95  C3  SGN d 302       8.043   0.948  52.859  0.00  0.00     0.083 C 
ATOM     96  H   SGN d 302       6.787   2.864  50.268  0.00  0.00     0.131 H 
ATOM     97  H   SGN d 302       5.877   0.969  48.624  0.00  0.00     0.231 HD
ATOM     98  H   SGN d 302       6.250  -1.329  48.840  0.00  0.00     0.231 HD
ATOM     99  H   SGN d 302       6.386   0.174  50.967  0.00  0.00     0.140 HD
ATOM    100  H   SGN d 302       9.270   2.588  53.592  0.00  0.00     0.091 H 
ATOM    101  H   SGN d 302       9.197  -0.238  53.908  0.00  0.00     0.210 HD
ATOM    102  H   SGN d 302       8.816   1.784  51.040  0.00  0.00     0.076 H 
ATOM    103  H   SGN d 302       9.070   0.274  47.800  0.00  0.00     0.231 HD
ATOM    104  H   SGN d 302       6.277   2.623  53.810  0.00  0.00     0.090 H 
ATOM    105  H   SGN d 302       6.919   5.175  53.892  0.00  0.00     0.080 H 
ATOM    106  H   SGN d 302       7.004   4.228  55.329  0.00  0.00     0.080 H 
ATOM    107  H   SGN d 302       7.124   0.485  53.147  0.00  0.00     0.089 H 
ATOM    108  O2S SGN d 304      -3.509   5.811  53.897  0.00  0.00    -0.296 OA
ATOM    109  C1  SGN d 304      -2.270   1.283  53.912  0.00  0.00     0.150 C 
ATOM    110  S2  SGN d 304       1.136  -1.323  55.887  0.00  0.00     0.251 S 
ATOM    111  O4  SGN d 304       1.158   0.944  51.637  0.00  0.00    -0.348 OA
ATOM    112  C6  SGN d 304       0.339  -1.283  53.224  0.00  0.00     0.067 C 
ATOM    113  O4S SGN d 304       2.495  -1.634  55.571  0.00  0.00    -0.572 OA
ATOM    114  O1  SGN d 304      -3.067   1.014  52.776  0.00  0.00    -0.348 OA
ATOM    115  O5  SGN d 304      -1.345   0.229  54.128  0.00  0.00    -0.349 OA
ATOM    116  S1  SGN d 304      -3.019   4.645  54.562  0.00  0.00     0.156 S 
ATOM    117  O5S SGN d 304       0.738  -2.025  57.070  0.00  0.00    -0.572 OA
ATOM    118  C3  SGN d 304      -0.624   2.356  52.424  0.00  0.00     0.083 C 
ATOM    119  N   SGN d 304      -2.478   3.555  53.275  0.00  0.00    -0.210 NA
ATOM    120  O1S SGN d 304      -4.051   4.041  55.359  0.00  0.00    -0.296 OA
ATOM    121  O6  SGN d 304       0.114  -1.832  54.525  0.00  0.00    -0.254 OA
ATOM    122  C4  SGN d 304       0.308   1.194  52.739  0.00  0.00     0.095 C 
ATOM    123  C5  SGN d 304      -0.516  -0.044  53.007  0.00  0.00     0.091 C 
ATOM    124  C2  SGN d 304      -1.513   2.551  53.618  0.00  0.00     0.081 C 
ATOM    125  O6S SGN d 304       0.996   0.093  56.106  0.00  0.00    -0.572 OA
ATOM    126  O3  SGN d 304       0.093   3.553  52.208  0.00  0.00    -0.391 OA
ATOM    127  O3S SGN d 304      -1.901   4.985  55.403  0.00  0.00    -0.296 OA
ATOM    128  H   SGN d 304      -4.262   5.570  53.334  0.00  0.00     0.231 HD
ATOM    129  H   SGN d 304      -2.879   1.378  54.787  0.00  0.00     0.131 H 
ATOM    130  H   SGN d 304       1.372  -1.018  53.129  0.00  0.00     0.080 H 
ATOM    131  H   SGN d 304       0.075  -2.016  52.491  0.00  0.00     0.080 H 
ATOM    132  H   SGN d 304      -1.176   2.132  51.536  0.00  0.00     0.089 H 
ATOM    133  H   SGN d 304      -2.070   4.132  52.538  0.00  0.00     0.140 HD
ATOM    134  H   SGN d 304      -4.804   3.813  54.793  0.00  0.00     0.231 HD
ATOM    135  H   SGN d 304       0.897   1.440  53.598  0.00  0.00     0.091 H 
ATOM    136  H   SGN d 304      -1.113  -0.267  52.147  0.00  0.00     0.090 H 
ATOM    137  H   SGN d 304      -0.922   2.826  54.466  0.00  0.00     0.076 H 
ATOM    138  H   SGN d 304       0.600   3.774  53.004  0.00  0.00     0.210 HD
ATOM    139  H   SGN d 304      -1.204   5.393  54.865  0.00  0.00     0.231 HD
ATOM    140  O1S UAP d 301       9.097   3.944  58.895  0.00  0.00    -0.572 OA
ATOM    141  C3  UAP d 301       8.730  -0.180  57.338  0.00  0.00     0.086 C 
ATOM    142  O62 UAP d 301      12.734   0.109  54.968  0.00  0.00    -0.642 OA
ATOM    143  C2  UAP d 301       8.846   1.323  57.356  0.00  0.00     0.135 C 
ATOM    144  O61 UAP d 301      12.094  -1.807  55.723  0.00  0.00    -0.642 OA
ATOM    145  C1  UAP d 301       9.244   1.864  55.999  0.00  0.00     0.167 C 
ATOM    146  C5  UAP d 301      10.646  -0.085  55.834  0.00  0.00     0.147 C 
ATOM    147  C4  UAP d 301       9.786  -0.817  56.572  0.00  0.00    -0.034 C 
ATOM    148  O3S UAP d 301       8.639   2.150  60.369  0.00  0.00    -0.572 OA
ATOM    149  C6  UAP d 301      11.841  -0.626  55.450  0.00  0.00     0.233 C 
ATOM    150  O5  UAP d 301      10.484   1.263  55.654  0.00  0.00    -0.311 OA
ATOM    151  O2S UAP d 301      10.823   3.068  60.161  0.00  0.00    -0.572 OA
ATOM    152  O2  UAP d 301       9.910   1.635  58.207  0.00  0.00    -0.244 OA
ATOM    153  O3  UAP d 301       7.457  -0.527  56.929  0.00  0.00    -0.389 OA
ATOM    154  S   UAP d 301       9.602   2.763  59.500  0.00  0.00     0.252 S 
ATOM    155  H   UAP d 301       8.873  -0.556  58.330  0.00  0.00     0.093 H 
ATOM    156  H   UAP d 301       7.906   1.738  57.654  0.00  0.00     0.097 H 
ATOM    157  H   UAP d 301       9.377   2.925  55.996  0.00  0.00     0.134 H 
ATOM    158  H   UAP d 301       9.881  -1.844  56.593  0.00  0.00     0.085 H 
ATOM    159  H   UAP d 301       7.304  -0.195  56.030  0.00  0.00     0.210 HD
ENDROOT
TORSDOF 50
ENDMDL
MODEL 3
REMARK VINA RESULT:     -10.4      2.354      2.871
REMARK  0 active torsions:
REMARK  status: ('A' for Active; 'I' for Inactive)
REMARK       I    between atoms: C3_1  and  O3_85 
REMARK       I    between atoms: C6_2  and  C5_22 
REMARK       I    between atoms: C6_3  and  C5_14 
REMARK       I    between atoms: C6_3  and  O6_30 
REMARK       I    between atoms: C1_4  and  O1_84 
REMARK       I    between atoms: O2S_6  and  S1_45 
REMARK       I    between atoms: C1_7  and  O1_36 
REMARK       I    between atoms: S1_10  and  N_69 
REMARK       I    between atoms: S1_10  and  O1S_27 
REMARK       I    between atoms: S1_10  and  O2S_71 
REMARK       I    between atoms: S1_10  and  O3S_88 
REMARK       I    between atoms: O4_11  and  C1_42 
REMARK       I    between atoms: O4_11  and  C4_63 
REMARK       I    between atoms: O6_12  and  C6_94 
REMARK       I    between atoms: O6_12  and  S2_28 
REMARK       I    between atoms: C1_13  and  O4_51 
REMARK       I    between atoms: S2_16  and  O6_76 
REMARK       I    between atoms: C3_18  and  O3_103 
REMARK       I    between atoms: C1_19  and  O1_37 
REMARK       I    between atoms: O4_20  and  C1_23 
REMARK       I    between atoms: O4_20  and  C4_77 
REMARK       I    between atoms: O3S_21  and  S1_92 
REMARK       I    between atoms: C3_24  and  O3_87 
REMARK       I    between atoms: O3_25  and  C3_46 
REMARK       I    between atoms: C6_29  and  C5_79 
REMARK       I    between atoms: C6_29  and  O6_76 
REMARK       I    between atoms: O6_30  and  S2_31 
REMARK       I    between atoms: O1_36  and  C4_81 
REMARK       I    between atoms: C2_38  and  O2_72 
REMARK       I    between atoms: S1_45  and  N_74 
REMARK       I    between atoms: S1_45  and  O1S_75 
REMARK       I    between atoms: S1_45  and  O3S_101 
REMARK       I    between atoms: O1S_47  and  S1_92 
REMARK       I    between atoms: S_48  and  O2_91 
REMARK       I    between atoms: C5_49  and  C6_67 
REMARK       I    between atoms: O4_51  and  C4_57 
REMARK       I    between atoms: N_52  and  C2_73 
REMARK       I    between atoms: N_52  and  S1_92 
REMARK       I    between atoms: C5_53  and  C6_61 
REMARK       I    between atoms: C4_56  and  O1_84 
REMARK       I    between atoms: C2_62  and  O2_91 
REMARK       I    between atoms: S_66  and  O2_105 
REMARK       I    between atoms: O3_68  and  C3_102 
REMARK       I    between atoms: N_69  and  C2_83 
REMARK       I    between atoms: C3_70  and  O3_98 
REMARK       I    between atoms: O2_72  and  S_96 
REMARK       I    between atoms: N_74  and  C2_86 
REMARK       I    between atoms: O2S_80  and  S1_92 
REMARK       I    between atoms: C5_89  and  C6_94 
REMARK       I    between atoms: C2_104  and  O2_105 
ROOT
ATOM      1  C3  IDS d 305      -4.010   0.701  55.121  0.00  0.00     0.094 C 
ATOM      2  O3S IDS d 305      -8.566  -0.520  56.097  0.00  0.00    -0.572 OA
ATOM      3  C1  IDS d 305      -6.009   0.812  53.697  0.00  0.00     0.161 C 
ATOM      4  O62 IDS d 305      -3.212   1.815  51.051  0.00  0.00    -0.646 OA
ATOM      5  O5  IDS d 305      -5.006   1.222  52.793  0.00  0.00    -0.340 OA
ATOM      6  O61 IDS d 305      -2.348  -0.231  51.053  0.00  0.00    -0.646 OA
ATOM      7  O1S IDS d 305      -7.246  -0.836  58.064  0.00  0.00    -0.572 OA
ATOM      8  C5  IDS d 305      -4.008   0.226  52.657  0.00  0.00     0.152 C 
ATOM      9  S   IDS d 305      -7.234  -0.786  56.618  0.00  0.00     0.252 S 
ATOM     10  C6  IDS d 305      -3.133   0.633  51.480  0.00  0.00     0.206 C 
ATOM     11  C4  IDS d 305      -3.177   0.200  53.956  0.00  0.00     0.103 C 
ATOM     12  O3  IDS d 305      -3.489   0.190  56.305  0.00  0.00    -0.390 OA
ATOM     13  O2S IDS d 305      -6.736  -2.026  56.097  0.00  0.00    -0.572 OA
ATOM     14  C2  IDS d 305      -5.371   0.135  54.920  0.00  0.00     0.134 C 
ATOM     15  O2  IDS d 305      -6.096   0.446  56.084  0.00  0.00    -0.244 OA
ATOM     16  H   IDS d 305      -4.020   1.769  55.172  0.00  0.00     0.091 H 
ATOM     17  H   IDS d 305      -6.590   1.637  54.053  0.00  0.00     0.133 H 
ATOM     18  H   IDS d 305      -4.425  -0.746  52.488  0.00  0.00     0.104 H 
ATOM     19  H   IDS d 305      -2.872  -0.813  54.114  0.00  0.00     0.092 H 
ATOM     20  H   IDS d 305      -3.479  -0.779  56.262  0.00  0.00     0.210 HD
ATOM     21  H   IDS d 305      -5.354  -0.921  54.750  0.00  0.00     0.097 H 
ATOM     22  C6  IDS d 303       5.035   3.379  53.572  0.00  0.00     0.206 C 
ATOM     23  O61 IDS d 303       5.413   4.538  53.475  0.00  0.00    -0.646 OA
ATOM     24  C5  IDS d 303       4.344   2.745  52.418  0.00  0.00     0.152 C 
ATOM     25  C1  IDS d 303       3.174   0.796  51.773  0.00  0.00     0.161 C 
ATOM     26  O3  IDS d 303       3.055   3.139  49.869  0.00  0.00    -0.390 OA
ATOM     27  O2S IDS d 303       3.830  -0.970  48.089  0.00  0.00    -0.572 OA
ATOM     28  O5  IDS d 303       4.091   1.366  52.715  0.00  0.00    -0.340 OA
ATOM     29  C3  IDS d 303       4.176   2.332  50.003  0.00  0.00     0.094 C 
ATOM     30  S   IDS d 303       4.194  -1.370  49.397  0.00  0.00     0.252 S 
ATOM     31  C4  IDS d 303       5.116   2.854  51.110  0.00  0.00     0.103 C 
ATOM     32  O1S IDS d 303       5.278  -2.271  49.406  0.00  0.00    -0.572 OA
ATOM     33  C2  IDS d 303       3.714   0.949  50.351  0.00  0.00     0.134 C 
ATOM     34  O3S IDS d 303       3.022  -1.933  49.957  0.00  0.00    -0.572 OA
ATOM     35  O2  IDS d 303       4.723   0.061  50.171  0.00  0.00    -0.244 OA
ATOM     36  O62 IDS d 303       5.002   2.766  54.617  0.00  0.00    -0.646 OA
ATOM     37  H   IDS d 303       3.429   3.279  52.274  0.00  0.00     0.104 H 
ATOM     38  H   IDS d 303       3.088  -0.247  51.995  0.00  0.00     0.133 H 
ATOM     39  H   IDS d 303       2.485   2.787  49.168  0.00  0.00     0.210 HD
ATOM     40  H   IDS d 303       4.723   2.336  49.083  0.00  0.00     0.091 H 
ATOM     41  H   IDS d 303       5.430   3.850  50.878  0.00  0.00     0.092 H 
ATOM     42  H   IDS d 303       2.896   0.753  49.690  0.00  0.00     0.097 H 
ATOM     43  C6  SGN d 306      -8.902   1.685  53.770  0.00  0.00     0.067 C 
ATOM     44  S1  SGN d 306      -9.501  -0.452  47.225  0.00  0.00     0.156 S 
ATOM     45  C5  SGN d 306      -9.018   0.659  52.655  0.00  0.00     0.091 C 
ATOM     46  C3  SGN d 306      -7.736  -0.416  50.802  0.00  0.00     0.083 C 
ATOM     47  C1  SGN d 306     -10.150   0.289  50.553  0.00  0.00     0.147 C 
ATOM     48  O1S SGN d 306      -9.629  -1.651  46.438  0.00  0.00    -0.296 OA
ATOM     49  O6  SGN d 306      -8.094   2.769  53.320  0.00  0.00    -0.254 OA
ATOM     50  S2  SGN d 306      -8.150   4.324  54.167  0.00  0.00     0.251 S 
ATOM     51  O4S SGN d 306      -7.008   4.473  55.025  0.00  0.00    -0.572 OA
ATOM     52  O1  SGN d 306     -10.655  -0.977  50.951  0.00  0.00    -0.369 OA
ATOM     53  O4  SGN d 306      -6.793  -0.121  52.984  0.00  0.00    -0.348 OA
ATOM     54  C4  SGN d 306      -7.648   0.490  52.020  0.00  0.00     0.095 C 
ATOM     55  N   SGN d 306      -8.988  -0.923  48.844  0.00  0.00    -0.210 NA
ATOM     56  O2S SGN d 306      -8.487   0.400  46.675  0.00  0.00    -0.296 OA
ATOM     57  O5  SGN d 306      -9.961   1.146  51.672  0.00  0.00    -0.350 OA
ATOM     58  O6S SGN d 306      -8.132   5.363  53.172  0.00  0.00    -0.572 OA
ATOM     59  C2  SGN d 306      -8.808   0.103  49.850  0.00  0.00     0.081 C 
ATOM     60  O3S SGN d 306     -10.768   0.231  47.281  0.00  0.00    -0.296 OA
ATOM     61  O5S SGN d 306      -9.379   4.395  54.918  0.00  0.00    -0.572 OA
ATOM     62  O3  SGN d 306      -6.506  -0.300  50.099  0.00  0.00    -0.391 OA
ATOM     63  H   SGN d 306      -8.451   1.233  54.628  0.00  0.00     0.080 H 
ATOM     64  H   SGN d 306      -9.876   2.044  54.034  0.00  0.00     0.080 H 
ATOM     65  H   SGN d 306      -9.358  -0.282  53.035  0.00  0.00     0.090 H 
ATOM     66  H   SGN d 306      -7.951  -1.417  51.114  0.00  0.00     0.089 H 
ATOM     67  H   SGN d 306     -10.864   0.737  49.894  0.00  0.00     0.131 H 
ATOM     68  H   SGN d 306      -8.774  -2.107  46.403  0.00  0.00     0.231 HD
ATOM     69  H   SGN d 306     -10.023  -1.404  51.551  0.00  0.00     0.212 HD
ATOM     70  H   SGN d 306      -7.272   1.444  51.713  0.00  0.00     0.091 H 
ATOM     71  H   SGN d 306      -8.095  -1.405  48.746  0.00  0.00     0.140 HD
ATOM     72  H   SGN d 306      -7.643  -0.077  46.647  0.00  0.00     0.231 HD
ATOM     73  H   SGN d 306      -8.501   1.048  49.453  0.00  0.00     0.076 H 
ATOM     74  H   SGN d 306     -11.439  -0.363  47.656  0.00  0.00     0.231 HD
ATOM     75  H   SGN d 306      -6.366   0.626  49.844  0.00  0.00     0.210 HD
ATOM     76  C1  SGN d 302       7.534   2.595  51.003  0.00  0.00     0.150 C 
ATOM     77  O4  SGN d 302       9.419  -0.092  53.545  0.00  0.00    -0.348 OA
ATOM     78  O6  SGN d 302      10.303   2.801  54.189  0.00  0.00    -0.254 OA
ATOM     79  O3S SGN d 302       6.836   2.792  47.954  0.00  0.00    -0.296 OA
ATOM     80  S2  SGN d 302      11.015   4.115  55.027  0.00  0.00     0.251 S 
ATOM     81  O5  SGN d 302       8.149   3.063  52.205  0.00  0.00    -0.349 OA
ATOM     82  O1S SGN d 302       6.889   0.667  46.964  0.00  0.00    -0.296 OA
ATOM     83  O6S SGN d 302      10.053   5.184  55.052  0.00  0.00    -0.572 OA
ATOM     84  N   SGN d 302       7.670   0.848  49.415  0.00  0.00    -0.210 NA
ATOM     85  O5S SGN d 302      11.263   3.683  56.355  0.00  0.00    -0.572 OA
ATOM     86  C4  SGN d 302       9.387   1.012  52.640  0.00  0.00     0.095 C 
ATOM     87  O3  SGN d 302       9.713  -0.460  50.832  0.00  0.00    -0.391 OA
ATOM     88  C2  SGN d 302       8.453   1.535  50.398  0.00  0.00     0.081 C 
ATOM     89  O2S SGN d 302       8.839   1.858  47.395  0.00  0.00    -0.296 OA
ATOM     90  O1  SGN d 302       6.256   2.007  51.240  0.00  0.00    -0.348 OA
ATOM     91  C5  SGN d 302       8.388   2.042  53.167  0.00  0.00     0.091 C 
ATOM     92  S1  SGN d 302       7.547   1.574  47.843  0.00  0.00     0.156 S 
ATOM     93  C6  SGN d 302       8.925   2.703  54.382  0.00  0.00     0.067 C 
ATOM     94  O4S SGN d 302      12.239   4.456  54.399  0.00  0.00    -0.572 OA
ATOM     95  C3  SGN d 302       8.785   0.441  51.391  0.00  0.00     0.083 C 
ATOM     96  H   SGN d 302       7.388   3.428  50.349  0.00  0.00     0.131 H 
ATOM     97  H   SGN d 302       5.934   2.613  48.264  0.00  0.00     0.231 HD
ATOM     98  H   SGN d 302       5.996   0.486  47.295  0.00  0.00     0.231 HD
ATOM     99  H   SGN d 302       6.724   0.758  49.785  0.00  0.00     0.140 HD
ATOM    100  H   SGN d 302      10.350   1.461  52.505  0.00  0.00     0.091 H 
ATOM    101  H   SGN d 302       9.917  -1.156  51.477  0.00  0.00     0.210 HD
ATOM    102  H   SGN d 302       9.340   2.020  50.049  0.00  0.00     0.076 H 
ATOM    103  H   SGN d 302       8.794   2.266  46.516  0.00  0.00     0.231 HD
ATOM    104  H   SGN d 302       7.480   1.518  53.383  0.00  0.00     0.090 H 
ATOM    105  H   SGN d 302       8.495   3.677  54.496  0.00  0.00     0.080 H 
ATOM    106  H   SGN d 302       8.692   2.148  55.267  0.00  0.00     0.080 H 
ATOM    107  H   SGN d 302       7.872  -0.063  51.630  0.00  0.00     0.089 H 
ATOM    108  O2S SGN d 304      -1.560   4.691  57.147  0.00  0.00    -0.296 OA
ATOM    109  C1  SGN d 304      -1.018   0.677  54.773  0.00  0.00     0.150 C 
ATOM    110  S2  SGN d 304       2.261  -2.709  54.483  0.00  0.00     0.251 S 
ATOM    111  O4  SGN d 304       1.867   1.335  51.895  0.00  0.00    -0.348 OA
ATOM    112  C6  SGN d 304       1.022  -1.344  52.402  0.00  0.00     0.067 C 
ATOM    113  O4S SGN d 304       3.482  -2.887  53.761  0.00  0.00    -0.572 OA
ATOM    114  O1  SGN d 304      -2.033   1.030  53.855  0.00  0.00    -0.348 OA
ATOM    115  O5  SGN d 304      -0.235  -0.389  54.258  0.00  0.00    -0.349 OA
ATOM    116  S1  SGN d 304      -1.137   3.328  57.063  0.00  0.00     0.156 S 
ATOM    117  O5S SGN d 304       1.978  -3.879  55.258  0.00  0.00    -0.572 OA
ATOM    118  C3  SGN d 304       0.480   2.264  53.628  0.00  0.00     0.083 C 
ATOM    119  N   SGN d 304      -0.997   2.979  55.332  0.00  0.00    -0.210 NA
ATOM    120  O1S SGN d 304      -2.090   2.459  57.696  0.00  0.00    -0.296 OA
ATOM    121  O6  SGN d 304       0.951  -2.445  53.310  0.00  0.00    -0.254 OA
ATOM    122  C4  SGN d 304       1.271   1.055  53.147  0.00  0.00     0.095 C 
ATOM    123  C5  SGN d 304       0.334  -0.119  52.985  0.00  0.00     0.091 C 
ATOM    124  C2  SGN d 304      -0.146   1.893  54.940  0.00  0.00     0.081 C 
ATOM    125  O6S SGN d 304       2.371  -1.573  55.361  0.00  0.00    -0.572 OA
ATOM    126  O3  SGN d 304       1.316   3.381  53.838  0.00  0.00    -0.391 OA
ATOM    127  O3S SGN d 304       0.150   3.166  57.689  0.00  0.00    -0.296 OA
ATOM    128  H   SGN d 304      -2.427   4.788  56.722  0.00  0.00     0.231 HD
ATOM    129  H   SGN d 304      -1.443   0.361  55.703  0.00  0.00     0.131 H 
ATOM    130  H   SGN d 304       2.049  -1.112  52.211  0.00  0.00     0.080 H 
ATOM    131  H   SGN d 304       0.528  -1.615  51.492  0.00  0.00     0.080 H 
ATOM    132  H   SGN d 304      -0.247   2.524  52.887  0.00  0.00     0.089 H 
ATOM    133  H   SGN d 304      -0.646   3.822  54.878  0.00  0.00     0.140 HD
ATOM    134  H   SGN d 304      -2.957   2.568  57.275  0.00  0.00     0.231 HD
ATOM    135  H   SGN d 304       2.032   0.827  53.863  0.00  0.00     0.091 H 
ATOM    136  H   SGN d 304      -0.431   0.130  52.280  0.00  0.00     0.090 H 
ATOM    137  H   SGN d 304       0.619   1.695  55.662  0.00  0.00     0.076 H 
ATOM    138  H   SGN d 304       1.983   3.165  54.508  0.00  0.00     0.210 HD
ATOM    139  H   SGN d 304       0.793   3.753  57.261  0.00  0.00     0.231 HD
ATOM    140  O1S UAP d 301      11.314   0.073  57.714  0.00  0.00    -0.572 OA
ATOM    141  C3  UAP d 301      10.075  -2.753  54.545  0.00  0.00     0.086 C 
ATOM    142  O62 UAP d 301      13.597  -1.524  51.749  0.00  0.00    -0.642 OA
ATOM    143  C2  UAP d 301      10.413  -1.455  55.234  0.00  0.00     0.135 C 
ATOM    144  O61 UAP d 301      12.825  -3.536  51.647  0.00  0.00    -0.642 OA
ATOM    145  C1  UAP d 301      10.641  -0.341  54.235  0.00  0.00     0.167 C 
ATOM    146  C5  UAP d 301      11.690  -2.023  52.870  0.00  0.00     0.147 C 
ATOM    147  C4  UAP d 301      10.875  -2.983  53.356  0.00  0.00    -0.034 C 
ATOM    148  O3S UAP d 301      10.864  -2.188  58.245  0.00  0.00    -0.572 OA
ATOM    149  C6  UAP d 301      12.705  -2.361  52.021  0.00  0.00     0.233 C 
ATOM    150  O5  UAP d 301      11.698  -0.752  53.380  0.00  0.00    -0.311 OA
ATOM    151  O2S UAP d 301      13.089  -1.383  58.002  0.00  0.00    -0.572 OA
ATOM    152  O2  UAP d 301      11.645  -1.643  55.868  0.00  0.00    -0.244 OA
ATOM    153  O3  UAP d 301       8.713  -2.800  54.321  0.00  0.00    -0.389 OA
ATOM    154  S   UAP d 301      11.739  -1.274  57.569  0.00  0.00     0.252 S 
ATOM    155  H   UAP d 301      10.334  -3.570  55.187  0.00  0.00     0.093 H 
ATOM    156  H   UAP d 301       9.611  -1.196  55.894  0.00  0.00     0.097 H 
ATOM    157  H   UAP d 301      10.927   0.582  54.696  0.00  0.00     0.134 H 
ATOM    158  H   UAP d 301      10.819  -3.893  52.874  0.00  0.00     0.085 H 
ATOM    159  H   UAP d 301       8.455  -2.067  53.740  0.00  0.00     0.210 HD
ENDROOT
TORSDOF 50
ENDMDL
MODEL 4
REMARK VINA RESULT:     -10.0      1.148      1.210
REMARK  0 active torsions:
REMARK  status: ('A' for Active; 'I' for Inactive)
REMARK       I    between atoms: C3_1  and  O3_85 
REMARK       I    between atoms: C6_2  and  C5_22 
REMARK       I    between atoms: C6_3  and  C5_14 
REMARK       I    between atoms: C6_3  and  O6_30 
REMARK       I    between atoms: C1_4  and  O1_84 
REMARK       I    between atoms: O2S_6  and  S1_45 
REMARK       I    between atoms: C1_7  and  O1_36 
REMARK       I    between atoms: S1_10  and  N_69 
REMARK       I    between atoms: S1_10  and  O1S_27 
REMARK       I    between atoms: S1_10  and  O2S_71 
REMARK       I    between atoms: S1_10  and  O3S_88 
REMARK       I    between atoms: O4_11  and  C1_42 
REMARK       I    between atoms: O4_11  and  C4_63 
REMARK       I    between atoms: O6_12  and  C6_94 
REMARK       I    between atoms: O6_12  and  S2_28 
REMARK       I    between atoms: C1_13  and  O4_51 
REMARK       I    between atoms: S2_16  and  O6_76 
REMARK       I    between atoms: C3_18  and  O3_103 
REMARK       I    between atoms: C1_19  and  O1_37 
REMARK       I    between atoms: O4_20  and  C1_23 
REMARK       I    between atoms: O4_20  and  C4_77 
REMARK       I    between atoms: O3S_21  and  S1_92 
REMARK       I    between atoms: C3_24  and  O3_87 
REMARK       I    between atoms: O3_25  and  C3_46 
REMARK       I    between atoms: C6_29  and  C5_79 
REMARK       I    between atoms: C6_29  and  O6_76 
REMARK       I    between atoms: O6_30  and  S2_31 
REMARK       I    between atoms: O1_36  and  C4_81 
REMARK       I    between atoms: C2_38  and  O2_72 
REMARK       I    between atoms: S1_45  and  N_74 
REMARK       I    between atoms: S1_45  and  O1S_75 
REMARK       I    between atoms: S1_45  and  O3S_101 
REMARK       I    between atoms: O1S_47  and  S1_92 
REMARK       I    between atoms: S_48  and  O2_91 
REMARK       I    between atoms: C5_49  and  C6_67 
REMARK       I    between atoms: O4_51  and  C4_57 
REMARK       I    between atoms: N_52  and  C2_73 
REMARK       I    between atoms: N_52  and  S1_92 
REMARK       I    between atoms: C5_53  and  C6_61 
REMARK       I    between atoms: C4_56  and  O1_84 
REMARK       I    between atoms: C2_62  and  O2_91 
REMARK       I    between atoms: S_66  and  O2_105 
REMARK       I    between atoms: O3_68  and  C3_102 
REMARK       I    between atoms: N_69  and  C2_83 
REMARK       I    between atoms: C3_70  and  O3_98 
REMARK       I    between atoms: O2_72  and  S_96 
REMARK       I    between atoms: N_74  and  C2_86 
REMARK       I    between atoms: O2S_80  and  S1_92 
REMARK       I    between atoms: C5_89  and  C6_94 
REMARK       I    between atoms: C2_104  and  O2_105 
ROOT
ATOM      1  C3  IDS d 305      -2.950   1.784  56.911  0.00  0.00     0.094 C 
ATOM      2  O3S IDS d 305      -7.378   1.620  58.797  0.00  0.00    -0.572 OA
ATOM      3  C1  IDS d 305      -5.053   2.738  56.074  0.00  0.00     0.161 C 
ATOM      4  O62 IDS d 305      -2.653   3.541  53.004  0.00  0.00    -0.646 OA
ATOM      5  O5  IDS d 305      -4.168   3.064  55.024  0.00  0.00    -0.340 OA
ATOM      6  O61 IDS d 305      -2.481   1.394  52.461  0.00  0.00    -0.646 OA
ATOM      7  O1S IDS d 305      -5.865   0.529  60.291  0.00  0.00    -0.572 OA
ATOM      8  C5  IDS d 305      -3.573   1.897  54.483  0.00  0.00     0.152 C 
ATOM      9  S   IDS d 305      -6.119   0.901  58.916  0.00  0.00     0.252 S 
ATOM     10  C6  IDS d 305      -2.861   2.315  53.204  0.00  0.00     0.206 C 
ATOM     11  C4  IDS d 305      -2.555   1.359  55.509  0.00  0.00     0.103 C 
ATOM     12  O3  IDS d 305      -2.392   0.900  57.828  0.00  0.00    -0.390 OA
ATOM     13  O2S IDS d 305      -6.140  -0.275  58.094  0.00  0.00    -0.572 OA
ATOM     14  C2  IDS d 305      -4.430   1.659  56.972  0.00  0.00     0.134 C 
ATOM     15  O2  IDS d 305      -4.783   1.877  58.316  0.00  0.00    -0.244 OA
ATOM     16  H   IDS d 305      -2.618   2.777  57.133  0.00  0.00     0.091 H 
ATOM     17  H   IDS d 305      -5.270   3.584  56.692  0.00  0.00     0.133 H 
ATOM     18  H   IDS d 305      -4.294   1.134  54.272  0.00  0.00     0.104 H 
ATOM     19  H   IDS d 305      -2.553   0.293  55.421  0.00  0.00     0.092 H 
ATOM     20  H   IDS d 305      -2.690  -0.002  57.630  0.00  0.00     0.210 HD
ATOM     21  H   IDS d 305      -4.774   0.702  56.637  0.00  0.00     0.097 H 
ATOM     22  C6  IDS d 303       5.998   2.261  53.579  0.00  0.00     0.206 C 
ATOM     23  O61 IDS d 303       6.689   3.270  53.577  0.00  0.00    -0.646 OA
ATOM     24  C5  IDS d 303       4.935   2.110  52.550  0.00  0.00     0.152 C 
ATOM     25  C1  IDS d 303       3.118   0.738  51.919  0.00  0.00     0.161 C 
ATOM     26  O3  IDS d 303       3.361   3.397  50.506  0.00  0.00    -0.390 OA
ATOM     27  O2S IDS d 303       2.467  -0.255  47.956  0.00  0.00    -0.572 OA
ATOM     28  O5  IDS d 303       4.331   0.817  52.678  0.00  0.00    -0.340 OA
ATOM     29  C3  IDS d 303       4.182   2.315  50.222  0.00  0.00     0.094 C 
ATOM     30  S   IDS d 303       2.936  -1.023  49.048  0.00  0.00     0.252 S 
ATOM     31  C4  IDS d 303       5.433   2.305  51.125  0.00  0.00     0.103 C 
ATOM     32  O1S IDS d 303       3.670  -2.156  48.639  0.00  0.00    -0.572 OA
ATOM     33  C2  IDS d 303       3.392   1.061  50.450  0.00  0.00     0.134 C 
ATOM     34  O3S IDS d 303       1.781  -1.369  49.788  0.00  0.00    -0.572 OA
ATOM     35  O2  IDS d 303       4.022   0.003  49.882  0.00  0.00    -0.244 OA
ATOM     36  O62 IDS d 303       5.981   1.458  54.487  0.00  0.00    -0.646 OA
ATOM     37  H   IDS d 303       4.220   2.885  52.730  0.00  0.00     0.104 H 
ATOM     38  H   IDS d 303       2.759  -0.268  51.986  0.00  0.00     0.133 H 
ATOM     39  H   IDS d 303       2.585   3.376  49.925  0.00  0.00     0.210 HD
ATOM     40  H   IDS d 303       4.513   2.383  49.207  0.00  0.00     0.091 H 
ATOM     41  H   IDS d 303       5.988   3.209  50.984  0.00  0.00     0.092 H 
ATOM     42  H   IDS d 303       2.441   1.243  49.994  0.00  0.00     0.097 H 
ATOM     43  C6  SGN d 306      -7.463   4.303  57.014  0.00  0.00     0.067 C 
ATOM     44  S1  SGN d 306      -9.952   3.942  50.577  0.00  0.00     0.156 S 
ATOM     45  C5  SGN d 306      -8.104   3.625  55.815  0.00  0.00     0.091 C 
ATOM     46  C3  SGN d 306      -7.602   2.699  53.550  0.00  0.00     0.083 C 
ATOM     47  C1  SGN d 306      -9.681   4.054  54.035  0.00  0.00     0.147 C 
ATOM     48  O1S SGN d 306     -10.595   3.030  49.666  0.00  0.00    -0.296 OA
ATOM     49  O6  SGN d 306      -6.462   5.209  56.553  0.00  0.00    -0.254 OA
ATOM     50  S2  SGN d 306      -5.870   6.489  57.624  0.00  0.00     0.251 S 
ATOM     51  O4S SGN d 306      -4.594   6.134  58.178  0.00  0.00    -0.572 OA
ATOM     52  O1  SGN d 306     -10.465   2.909  54.339  0.00  0.00    -0.369 OA
ATOM     53  O4  SGN d 306      -6.209   2.233  55.442  0.00  0.00    -0.348 OA
ATOM     54  C4  SGN d 306      -7.004   3.250  54.835  0.00  0.00     0.095 C 
ATOM     55  N   SGN d 306      -9.306   2.999  51.917  0.00  0.00    -0.210 NA
ATOM     56  O2S SGN d 306      -8.852   4.598  49.932  0.00  0.00    -0.296 OA
ATOM     57  O5  SGN d 306      -9.022   4.553  55.192  0.00  0.00    -0.350 OA
ATOM     58  O6S SGN d 306      -5.725   7.684  56.836  0.00  0.00    -0.572 OA
ATOM     59  C2  SGN d 306      -8.625   3.684  52.996  0.00  0.00     0.081 C 
ATOM     60  O3S SGN d 306     -10.910   4.903  51.059  0.00  0.00    -0.296 OA
ATOM     61  O5S SGN d 306      -6.846   6.710  58.663  0.00  0.00    -0.572 OA
ATOM     62  O3  SGN d 306      -6.558   2.643  52.588  0.00  0.00    -0.391 OA
ATOM     63  H   SGN d 306      -7.016   3.566  57.646  0.00  0.00     0.080 H 
ATOM     64  H   SGN d 306      -8.207   4.837  57.568  0.00  0.00     0.080 H 
ATOM     65  H   SGN d 306      -8.638   2.747  56.113  0.00  0.00     0.090 H 
ATOM     66  H   SGN d 306      -8.051   1.747  53.742  0.00  0.00     0.089 H 
ATOM     67  H   SGN d 306     -10.335   4.811  53.657  0.00  0.00     0.131 H 
ATOM     68  H   SGN d 306      -9.946   2.384  49.344  0.00  0.00     0.231 HD
ATOM     69  H   SGN d 306      -9.892   2.207  54.685  0.00  0.00     0.212 HD
ATOM     70  H   SGN d 306      -6.419   4.114  54.601  0.00  0.00     0.091 H 
ATOM     71  H   SGN d 306      -8.642   2.333  51.521  0.00  0.00     0.140 HD
ATOM     72  H   SGN d 306      -8.219   3.934  49.616  0.00  0.00     0.231 HD
ATOM     73  H   SGN d 306      -8.125   4.579  52.691  0.00  0.00     0.076 H 
ATOM     74  H   SGN d 306     -11.645   4.439  51.491  0.00  0.00     0.231 HD
ATOM     75  H   SGN d 306      -6.191   3.532  52.457  0.00  0.00     0.210 HD
ATOM     76  C1  SGN d 302       7.583   1.449  50.372  0.00  0.00     0.150 C 
ATOM     77  O4  SGN d 302       9.002  -2.144  51.893  0.00  0.00    -0.348 OA
ATOM     78  O6  SGN d 302      10.844   0.189  52.747  0.00  0.00    -0.254 OA
ATOM     79  O3S SGN d 302       6.401   2.509  47.669  0.00  0.00    -0.296 OA
ATOM     80  S2  SGN d 302      12.076   1.044  53.577  0.00  0.00     0.251 S 
ATOM     81  O5  SGN d 302       8.534   1.453  51.439  0.00  0.00    -0.349 OA
ATOM     82  O1S SGN d 302       5.602   0.728  46.371  0.00  0.00    -0.296 OA
ATOM     83  O6S SGN d 302      11.516   2.294  54.015  0.00  0.00    -0.572 OA
ATOM     84  N   SGN d 302       6.861   0.135  48.543  0.00  0.00    -0.210 NA
ATOM     85  O5S SGN d 302      12.431   0.272  54.713  0.00  0.00    -0.572 OA
ATOM     86  C4  SGN d 302       9.138  -0.895  51.214  0.00  0.00     0.095 C 
ATOM     87  O3  SGN d 302       8.635  -1.951  49.171  0.00  0.00    -0.391 OA
ATOM     88  C2  SGN d 302       7.993   0.350  49.394  0.00  0.00     0.081 C 
ATOM     89  O2S SGN d 302       7.869   1.232  46.481  0.00  0.00    -0.296 OA
ATOM     90  O1  SGN d 302       6.258   1.181  50.826  0.00  0.00    -0.348 OA
ATOM     91  C5  SGN d 302       8.628   0.215  52.133  0.00  0.00     0.091 C 
ATOM     92  S1  SGN d 302       6.665   1.205  47.190  0.00  0.00     0.156 S 
ATOM     93  C6  SGN d 302       9.569   0.417  53.263  0.00  0.00     0.067 C 
ATOM     94  O4S SGN d 302      13.199   1.183  52.723  0.00  0.00    -0.572 OA
ATOM     95  C3  SGN d 302       8.158  -0.989  50.083  0.00  0.00     0.083 C 
ATOM     96  H   SGN d 302       7.577   2.417  49.917  0.00  0.00     0.131 H 
ATOM     97  H   SGN d 302       5.567   2.509  48.164  0.00  0.00     0.231 HD
ATOM     98  H   SGN d 302       4.779   0.718  46.884  0.00  0.00     0.231 HD
ATOM     99  H   SGN d 302       6.025   0.216  49.120  0.00  0.00     0.140 HD
ATOM    100  H   SGN d 302      10.146  -0.698  50.914  0.00  0.00     0.091 H 
ATOM    101  H   SGN d 302       8.735  -2.803  49.624  0.00  0.00     0.210 HD
ATOM    102  H   SGN d 302       8.902   0.650  48.914  0.00  0.00     0.076 H 
ATOM    103  H   SGN d 302       7.783   1.825  45.719  0.00  0.00     0.231 HD
ATOM    104  H   SGN d 302       7.663  -0.086  52.485  0.00  0.00     0.090 H 
ATOM    105  H   SGN d 302       9.491   1.418  53.636  0.00  0.00     0.080 H 
ATOM    106  H   SGN d 302       9.352  -0.242  54.077  0.00  0.00     0.080 H 
ATOM    107  H   SGN d 302       7.199  -1.275  50.460  0.00  0.00     0.089 H 
ATOM    108  O2S SGN d 304       0.958   4.419  58.864  0.00  0.00    -0.296 OA
ATOM    109  C1  SGN d 304      -0.238   1.052  55.820  0.00  0.00     0.150 C 
ATOM    110  S2  SGN d 304       1.712  -2.922  54.175  0.00  0.00     0.251 S 
ATOM    111  O4  SGN d 304       2.092   1.560  52.452  0.00  0.00    -0.348 OA
ATOM    112  C6  SGN d 304       0.576  -0.843  52.720  0.00  0.00     0.067 C 
ATOM    113  O4S SGN d 304       2.653  -3.247  53.150  0.00  0.00    -0.572 OA
ATOM    114  O1  SGN d 304      -1.253   1.858  55.257  0.00  0.00    -0.348 OA
ATOM    115  O5  SGN d 304       0.061  -0.038  54.961  0.00  0.00    -0.349 OA
ATOM    116  S1  SGN d 304       0.914   3.049  58.459  0.00  0.00     0.156 S 
ATOM    117  O5S SGN d 304       1.238  -4.120  54.799  0.00  0.00    -0.572 OA
ATOM    118  C3  SGN d 304       1.424   2.404  54.604  0.00  0.00     0.083 C 
ATOM    119  N   SGN d 304       0.600   3.077  56.717  0.00  0.00    -0.210 NA
ATOM    120  O1S SGN d 304      -0.118   2.342  59.166  0.00  0.00    -0.296 OA
ATOM    121  O6  SGN d 304       0.345  -2.063  53.429  0.00  0.00    -0.254 OA
ATOM    122  C4  SGN d 304       1.693   1.171  53.751  0.00  0.00     0.095 C 
ATOM    123  C5  SGN d 304       0.427   0.355  53.646  0.00  0.00     0.091 C 
ATOM    124  C2  SGN d 304       0.981   1.924  55.955  0.00  0.00     0.081 C 
ATOM    125  O6S SGN d 304       2.336  -2.085  55.167  0.00  0.00    -0.572 OA
ATOM    126  O3  SGN d 304       2.588   3.184  54.772  0.00  0.00    -0.391 OA
ATOM    127  O3S SGN d 304       2.184   2.416  58.707  0.00  0.00    -0.296 OA
ATOM    128  H   SGN d 304       0.098   4.835  58.693  0.00  0.00     0.231 HD
ATOM    129  H   SGN d 304      -0.552   0.657  56.765  0.00  0.00     0.131 H 
ATOM    130  H   SGN d 304       1.567  -0.854  52.316  0.00  0.00     0.080 H 
ATOM    131  H   SGN d 304      -0.145  -0.761  51.933  0.00  0.00     0.080 H 
ATOM    132  H   SGN d 304       0.684   3.008  54.122  0.00  0.00     0.089 H 
ATOM    133  H   SGN d 304       1.100   3.878  56.329  0.00  0.00     0.140 HD
ATOM    134  H   SGN d 304      -0.973   2.768  59.000  0.00  0.00     0.231 HD
ATOM    135  H   SGN d 304       2.470   0.594  54.207  0.00  0.00     0.091 H 
ATOM    136  H   SGN d 304      -0.346   0.950  53.206  0.00  0.00     0.090 H 
ATOM    137  H   SGN d 304       1.772   1.372  56.418  0.00  0.00     0.076 H 
ATOM    138  H   SGN d 304       3.272   2.653  55.208  0.00  0.00     0.210 HD
ATOM    139  H   SGN d 304       2.881   2.893  58.230  0.00  0.00     0.231 HD
ATOM    140  O1S UAP d 301      11.628  -3.434  55.420  0.00  0.00    -0.572 OA
ATOM    141  C3  UAP d 301       8.986  -5.038  52.256  0.00  0.00     0.086 C 
ATOM    142  O62 UAP d 301      12.101  -4.181  48.896  0.00  0.00    -0.642 OA
ATOM    143  C2  UAP d 301       9.835  -4.066  53.036  0.00  0.00     0.135 C 
ATOM    144  O61 UAP d 301      10.740  -5.840  48.672  0.00  0.00    -0.642 OA
ATOM    145  C1  UAP d 301      10.197  -2.855  52.203  0.00  0.00     0.167 C 
ATOM    146  C5  UAP d 301      10.389  -4.400  50.367  0.00  0.00     0.147 C 
ATOM    147  C4  UAP d 301       9.428  -5.195  50.883  0.00  0.00    -0.034 C 
ATOM    148  O3S UAP d 301      10.614  -5.556  55.678  0.00  0.00    -0.572 OA
ATOM    149  C6  UAP d 301      11.065  -4.793  49.247  0.00  0.00     0.233 C 
ATOM    150  O5  UAP d 301      10.888  -3.326  51.055  0.00  0.00    -0.311 OA
ATOM    151  O2S UAP d 301      12.887  -5.332  55.014  0.00  0.00    -0.572 OA
ATOM    152  O2  UAP d 301      11.046  -4.712  53.300  0.00  0.00    -0.244 OA
ATOM    153  O3  UAP d 301       7.659  -4.672  52.378  0.00  0.00    -0.389 OA
ATOM    154  S   UAP d 301      11.579  -4.776  54.959  0.00  0.00     0.252 S 
ATOM    155  H   UAP d 301       9.099  -6.018  52.673  0.00  0.00     0.093 H 
ATOM    156  H   UAP d 301       9.297  -3.762  53.909  0.00  0.00     0.097 H 
ATOM    157  H   UAP d 301      10.838  -2.171  52.718  0.00  0.00     0.134 H 
ATOM    158  H   UAP d 301       9.001  -5.925  50.292  0.00  0.00     0.085 H 
ATOM    159  H   UAP d 301       7.533  -3.785  52.006  0.00  0.00     0.210 HD
ENDROOT
TORSDOF 50
ENDMDL
MODEL 5
REMARK VINA RESULT:      -9.6      3.668      4.692
REMARK  0 active torsions:
REMARK  status: ('A' for Active; 'I' for Inactive)
REMARK       I    between atoms: C3_1  and  O3_85 
REMARK       I    between atoms: C6_2  and  C5_22 
REMARK       I    between atoms: C6_3  and  C5_14 
REMARK       I    between atoms: C6_3  and  O6_30 
REMARK       I    between atoms: C1_4  and  O1_84 
REMARK       I    between atoms: O2S_6  and  S1_45 
REMARK       I    between atoms: C1_7  and  O1_36 
REMARK       I    between atoms: S1_10  and  N_69 
REMARK       I    between atoms: S1_10  and  O1S_27 
REMARK       I    between atoms: S1_10  and  O2S_71 
REMARK       I    between atoms: S1_10  and  O3S_88 
REMARK       I    between atoms: O4_11  and  C1_42 
REMARK       I    between atoms: O4_11  and  C4_63 
REMARK       I    between atoms: O6_12  and  C6_94 
REMARK       I    between atoms: O6_12  and  S2_28 
REMARK       I    between atoms: C1_13  and  O4_51 
REMARK       I    between atoms: S2_16  and  O6_76 
REMARK       I    between atoms: C3_18  and  O3_103 
REMARK       I    between atoms: C1_19  and  O1_37 
REMARK       I    between atoms: O4_20  and  C1_23 
REMARK       I    between atoms: O4_20  and  C4_77 
REMARK       I    between atoms: O3S_21  and  S1_92 
REMARK       I    between atoms: C3_24  and  O3_87 
REMARK       I    between atoms: O3_25  and  C3_46 
REMARK       I    between atoms: C6_29  and  C5_79 
REMARK       I    between atoms: C6_29  and  O6_76 
REMARK       I    between atoms: O6_30  and  S2_31 
REMARK       I    between atoms: O1_36  and  C4_81 
REMARK       I    between atoms: C2_38  and  O2_72 
REMARK       I    between atoms: S1_45  and  N_74 
REMARK       I    between atoms: S1_45  and  O1S_75 
REMARK       I    between atoms: S1_45  and  O3S_101 
REMARK       I    between atoms: O1S_47  and  S1_92 
REMARK       I    between atoms: S_48  and  O2_91 
REMARK       I    between atoms: C5_49  and  C6_67 
REMARK       I    between atoms: O4_51  and  C4_57 
REMARK       I    between atoms: N_52  and  C2_73 
REMARK       I    between atoms: N_52  and  S1_92 
REMARK       I    between atoms: C5_53  and  C6_61 
REMARK       I    between atoms: C4_56  and  O1_84 
REMARK       I    between atoms: C2_62  and  O2_91 
REMARK       I    between atoms: S_66  and  O2_105 
REMARK       I    between atoms: O3_68  and  C3_102 
REMARK       I    between atoms: N_69  and  C2_83 
REMARK       I    between atoms: C3_70  and  O3_98 
REMARK       I    between atoms: O2_72  and  S_96 
REMARK       I    between atoms: N_74  and  C2_86 
REMARK       I    between atoms: O2S_80  and  S1_92 
REMARK       I    between atoms: C5_89  and  C6_94 
REMARK       I    between atoms: C2_104  and  O2_105 
ROOT
ATOM      1  C3  IDS d 305      -3.371  -2.926  54.324  0.00  0.00     0.094 C 
ATOM      2  O3S IDS d 305      -7.667  -5.098  54.164  0.00  0.00    -0.572 OA
ATOM      3  C1  IDS d 305      -5.411  -2.291  53.112  0.00  0.00     0.161 C 
ATOM      4  O62 IDS d 305      -2.879   0.426  51.686  0.00  0.00    -0.646 OA
ATOM      5  O5  IDS d 305      -4.509  -1.301  52.667  0.00  0.00    -0.340 OA
ATOM      6  O61 IDS d 305      -1.729  -1.105  50.561  0.00  0.00    -0.646 OA
ATOM      7  O1S IDS d 305      -6.249  -6.304  55.663  0.00  0.00    -0.572 OA
ATOM      8  C5  IDS d 305      -3.383  -1.889  52.039  0.00  0.00     0.152 C 
ATOM      9  S   IDS d 305      -6.293  -5.430  54.511  0.00  0.00     0.252 S 
ATOM     10  C6  IDS d 305      -2.616  -0.761  51.361  0.00  0.00     0.206 C 
ATOM     11  C4  IDS d 305      -2.513  -2.544  53.132  0.00  0.00     0.103 C 
ATOM     12  O3  IDS d 305      -2.742  -3.948  55.027  0.00  0.00    -0.390 OA
ATOM     13  O2S IDS d 305      -5.639  -6.060  53.401  0.00  0.00    -0.572 OA
ATOM     14  C2  IDS d 305      -4.641  -3.452  53.759  0.00  0.00     0.134 C 
ATOM     15  O2  IDS d 305      -5.364  -3.973  54.848  0.00  0.00    -0.244 OA
ATOM     16  H   IDS d 305      -3.533  -2.096  54.979  0.00  0.00     0.091 H 
ATOM     17  H   IDS d 305      -6.093  -1.911  53.844  0.00  0.00     0.133 H 
ATOM     18  H   IDS d 305      -3.660  -2.632  51.320  0.00  0.00     0.104 H 
ATOM     19  H   IDS d 305      -2.059  -3.409  52.697  0.00  0.00     0.092 H 
ATOM     20  H   IDS d 305      -2.593  -4.702  54.437  0.00  0.00     0.210 HD
ATOM     21  H   IDS d 305      -4.478  -4.204  53.014  0.00  0.00     0.097 H 
ATOM     22  C6  IDS d 303       5.135   1.368  55.108  0.00  0.00     0.206 C 
ATOM     23  O61 IDS d 303       5.338   2.410  55.715  0.00  0.00    -0.646 OA
ATOM     24  C5  IDS d 303       4.505   1.427  53.761  0.00  0.00     0.152 C 
ATOM     25  C1  IDS d 303       3.608   0.067  52.050  0.00  0.00     0.161 C 
ATOM     26  O3  IDS d 303       3.088   3.035  51.834  0.00  0.00    -0.390 OA
ATOM     27  O2S IDS d 303       4.388   0.857  48.064  0.00  0.00    -0.572 OA
ATOM     28  O5  IDS d 303       4.464   0.110  53.198  0.00  0.00    -0.340 OA
ATOM     29  C3  IDS d 303       4.317   2.463  51.543  0.00  0.00     0.094 C 
ATOM     30  S   IDS d 303       4.850  -0.169  48.923  0.00  0.00     0.252 S 
ATOM     31  C4  IDS d 303       5.208   2.374  52.799  0.00  0.00     0.103 C 
ATOM     32  O1S IDS d 303       6.053  -0.751  48.474  0.00  0.00    -0.572 OA
ATOM     33  C2  IDS d 303       4.072   1.084  51.007  0.00  0.00     0.134 C 
ATOM     34  O3S IDS d 303       3.792  -1.106  48.991  0.00  0.00    -0.572 OA
ATOM     35  O2  IDS d 303       5.193   0.611  50.406  0.00  0.00    -0.244 OA
ATOM     36  O62 IDS d 303       5.225   0.267  55.607  0.00  0.00    -0.646 OA
ATOM     37  H   IDS d 303       3.517   1.814  53.900  0.00  0.00     0.104 H 
ATOM     38  H   IDS d 303       3.681  -0.913  51.627  0.00  0.00     0.133 H 
ATOM     39  H   IDS d 303       2.551   3.077  51.027  0.00  0.00     0.210 HD
ATOM     40  H   IDS d 303       4.826   3.071  50.825  0.00  0.00     0.091 H 
ATOM     41  H   IDS d 303       5.367   3.354  53.200  0.00  0.00     0.092 H 
ATOM     42  H   IDS d 303       3.269   1.194  50.308  0.00  0.00     0.097 H 
ATOM     43  C6  SGN d 306      -8.396  -2.027  53.511  0.00  0.00     0.067 C 
ATOM     44  S1  SGN d 306      -8.899  -0.060  46.905  0.00  0.00     0.156 S 
ATOM     45  C5  SGN d 306      -8.400  -2.227  52.005  0.00  0.00     0.091 C 
ATOM     46  C3  SGN d 306      -7.038  -1.849  49.946  0.00  0.00     0.083 C 
ATOM     47  C1  SGN d 306      -9.536  -1.469  50.012  0.00  0.00     0.147 C 
ATOM     48  O1S SGN d 306      -8.878  -0.590  45.566  0.00  0.00    -0.296 OA
ATOM     49  O6  SGN d 306      -7.768  -0.783  53.812  0.00  0.00    -0.254 OA
ATOM     50  S2  SGN d 306      -8.021  -0.026  55.393  0.00  0.00     0.251 S 
ATOM     51  O4S SGN d 306      -6.884  -0.242  56.244  0.00  0.00    -0.572 OA
ATOM     52  O1  SGN d 306      -9.839  -2.788  49.581  0.00  0.00    -0.369 OA
ATOM     53  O4  SGN d 306      -6.075  -2.739  51.951  0.00  0.00    -0.348 OA
ATOM     54  C4  SGN d 306      -7.041  -1.808  51.466  0.00  0.00     0.095 C 
ATOM     55  N   SGN d 306      -8.269  -1.301  47.985  0.00  0.00    -0.210 NA
ATOM     56  O2S SGN d 306      -8.037   1.083  47.002  0.00  0.00    -0.296 OA
ATOM     57  O5  SGN d 306      -9.435  -1.397  51.428  0.00  0.00    -0.350 OA
ATOM     58  O6S SGN d 306      -8.186   1.387  55.178  0.00  0.00    -0.572 OA
ATOM     59  C2  SGN d 306      -8.205  -1.030  49.406  0.00  0.00     0.081 C 
ATOM     60  O3S SGN d 306     -10.248   0.283  47.271  0.00  0.00    -0.296 OA
ATOM     61  O5S SGN d 306      -9.221  -0.570  55.978  0.00  0.00    -0.572 OA
ATOM     62  O3  SGN d 306      -5.862  -1.181  49.508  0.00  0.00    -0.391 OA
ATOM     63  H   SGN d 306      -7.856  -2.824  53.977  0.00  0.00     0.080 H 
ATOM     64  H   SGN d 306      -9.402  -2.024  53.878  0.00  0.00     0.080 H 
ATOM     65  H   SGN d 306      -8.587  -3.251  51.756  0.00  0.00     0.090 H 
ATOM     66  H   SGN d 306      -7.096  -2.865  49.614  0.00  0.00     0.089 H 
ATOM     67  H   SGN d 306     -10.329  -0.827  49.690  0.00  0.00     0.131 H 
ATOM     68  H   SGN d 306      -7.968  -0.820  45.323  0.00  0.00     0.231 HD
ATOM     69  H   SGN d 306      -9.132  -3.391  49.862  0.00  0.00     0.212 HD
ATOM     70  H   SGN d 306      -6.818  -0.812  51.785  0.00  0.00     0.091 H 
ATOM     71  H   SGN d 306      -7.319  -1.511  47.679  0.00  0.00     0.140 HD
ATOM     72  H   SGN d 306      -7.135   0.830  46.752  0.00  0.00     0.231 HD
ATOM     73  H   SGN d 306      -8.052   0.002  49.642  0.00  0.00     0.076 H 
ATOM     74  H   SGN d 306     -10.813  -0.503  47.199  0.00  0.00     0.231 HD
ATOM     75  H   SGN d 306      -5.866  -0.269  49.839  0.00  0.00     0.210 HD
ATOM     76  C1  SGN d 302       7.633   2.559  52.700  0.00  0.00     0.150 C 
ATOM     77  O4  SGN d 302       9.971  -0.811  53.339  0.00  0.00    -0.348 OA
ATOM     78  O6  SGN d 302      10.449   1.270  55.576  0.00  0.00    -0.254 OA
ATOM     79  O3S SGN d 302       6.812   4.379  50.283  0.00  0.00    -0.296 OA
ATOM     80  S2  SGN d 302      10.991   1.945  57.055  0.00  0.00     0.251 S 
ATOM     81  O5  SGN d 302       8.214   2.328  53.985  0.00  0.00    -0.349 OA
ATOM     82  O1S SGN d 302       7.139   3.245  48.257  0.00  0.00    -0.296 OA
ATOM     83  O6S SGN d 302       9.886   2.659  57.636  0.00  0.00    -0.572 OA
ATOM     84  N   SGN d 302       7.967   2.085  50.407  0.00  0.00    -0.210 NA
ATOM     85  O5S SGN d 302      11.343   0.865  57.906  0.00  0.00    -0.572 OA
ATOM     86  C4  SGN d 302       9.750   0.596  53.233  0.00  0.00     0.095 C 
ATOM     87  O3  SGN d 302      10.224   0.495  50.929  0.00  0.00    -0.391 OA
ATOM     88  C2  SGN d 302       8.675   2.180  51.649  0.00  0.00     0.081 C 
ATOM     89  O2S SGN d 302       8.910   4.224  49.404  0.00  0.00    -0.296 OA
ATOM     90  O1  SGN d 302       6.463   1.774  52.484  0.00  0.00    -0.348 OA
ATOM     91  C5  SGN d 302       8.630   0.984  54.198  0.00  0.00     0.091 C 
ATOM     92  S1  SGN d 302       7.688   3.559  49.533  0.00  0.00     0.156 S 
ATOM     93  C6  SGN d 302       9.107   0.891  55.600  0.00  0.00     0.067 C 
ATOM     94  O4S SGN d 302      12.131   2.749  56.807  0.00  0.00    -0.572 OA
ATOM     95  C3  SGN d 302       9.195   0.772  51.850  0.00  0.00     0.083 C 
ATOM     96  H   SGN d 302       7.346   3.587  52.636  0.00  0.00     0.131 H 
ATOM     97  H   SGN d 302       5.957   3.932  50.383  0.00  0.00     0.231 HD
ATOM     98  H   SGN d 302       6.293   2.785  48.374  0.00  0.00     0.231 HD
ATOM     99  H   SGN d 302       7.058   1.669  50.605  0.00  0.00     0.140 HD
ATOM    100  H   SGN d 302      10.632   1.167  53.434  0.00  0.00     0.091 H 
ATOM    101  H   SGN d 302      10.549  -0.408  51.067  0.00  0.00     0.210 HD
ATOM    102  H   SGN d 302       9.470   2.894  51.693  0.00  0.00     0.076 H 
ATOM    103  H   SGN d 302       8.777   5.052  48.917  0.00  0.00     0.231 HD
ATOM    104  H   SGN d 302       7.815   0.313  54.022  0.00  0.00     0.090 H 
ATOM    105  H   SGN d 302       8.545   1.551  56.228  0.00  0.00     0.080 H 
ATOM    106  H   SGN d 302       8.986  -0.098  55.990  0.00  0.00     0.080 H 
ATOM    107  H   SGN d 302       8.374   0.103  51.704  0.00  0.00     0.089 H 
ATOM    108  O2S SGN d 304      -1.457  -0.541  58.408  0.00  0.00    -0.296 OA
ATOM    109  C1  SGN d 304      -0.420  -2.333  54.195  0.00  0.00     0.150 C 
ATOM    110  S2  SGN d 304       3.303  -4.444  52.198  0.00  0.00     0.251 S 
ATOM    111  O4  SGN d 304       2.242   0.251  52.386  0.00  0.00    -0.348 OA
ATOM    112  C6  SGN d 304       1.810  -2.315  51.213  0.00  0.00     0.067 C 
ATOM    113  O4S SGN d 304       4.512  -4.003  51.575  0.00  0.00    -0.572 OA
ATOM    114  O1  SGN d 304      -1.505  -1.659  53.591  0.00  0.00    -0.348 OA
ATOM    115  O5  SGN d 304       0.492  -2.788  53.207  0.00  0.00    -0.349 OA
ATOM    116  S1  SGN d 304      -0.844  -1.533  57.581  0.00  0.00     0.156 S 
ATOM    117  O5S SGN d 304       3.218  -5.871  52.144  0.00  0.00    -0.572 OA
ATOM    118  C3  SGN d 304       0.794  -0.189  54.256  0.00  0.00     0.083 C 
ATOM    119  N   SGN d 304      -0.714  -0.798  55.975  0.00  0.00    -0.210 NA
ATOM    120  O1S SGN d 304      -1.640  -2.729  57.546  0.00  0.00    -0.296 OA
ATOM    121  O6  SGN d 304       1.930  -3.736  51.318  0.00  0.00    -0.254 OA
ATOM    122  C4  SGN d 304       1.734  -0.777  53.213  0.00  0.00     0.095 C 
ATOM    123  C5  SGN d 304       0.972  -1.758  52.354  0.00  0.00     0.091 C 
ATOM    124  C2  SGN d 304       0.272  -1.330  55.079  0.00  0.00     0.081 C 
ATOM    125  O6S SGN d 304       3.277  -4.019  53.574  0.00  0.00    -0.572 OA
ATOM    126  O3  SGN d 304       1.465   0.705  55.116  0.00  0.00    -0.391 OA
ATOM    127  O3S SGN d 304       0.472  -1.847  58.072  0.00  0.00    -0.296 OA
ATOM    128  H   SGN d 304      -2.342  -0.338  58.069  0.00  0.00     0.231 HD
ATOM    129  H   SGN d 304      -0.763  -3.182  54.749  0.00  0.00     0.131 H 
ATOM    130  H   SGN d 304       2.786  -1.877  51.248  0.00  0.00     0.080 H 
ATOM    131  H   SGN d 304       1.330  -2.078  50.287  0.00  0.00     0.080 H 
ATOM    132  H   SGN d 304       0.012   0.347  53.760  0.00  0.00     0.089 H 
ATOM    133  H   SGN d 304      -0.503   0.191  56.108  0.00  0.00     0.140 HD
ATOM    134  H   SGN d 304      -2.527  -2.518  57.216  0.00  0.00     0.231 HD
ATOM    135  H   SGN d 304       2.544  -1.269  53.710  0.00  0.00     0.091 H 
ATOM    136  H   SGN d 304       0.156  -1.256  51.878  0.00  0.00     0.090 H 
ATOM    137  H   SGN d 304       1.081  -1.800  55.598  0.00  0.00     0.076 H 
ATOM    138  H   SGN d 304       2.179   0.237  55.577  0.00  0.00     0.210 HD
ATOM    139  H   SGN d 304       1.009  -1.040  58.096  0.00  0.00     0.231 HD
ATOM    140  O1S UAP d 301      11.962  -2.820  56.946  0.00  0.00    -0.572 OA
ATOM    141  C3  UAP d 301      11.039  -3.441  52.664  0.00  0.00     0.086 C 
ATOM    142  O62 UAP d 301      14.251  -0.356  51.285  0.00  0.00    -0.642 OA
ATOM    143  C2  UAP d 301      11.208  -2.746  53.992  0.00  0.00     0.135 C 
ATOM    144  O61 UAP d 301      13.774  -2.024  50.003  0.00  0.00    -0.642 OA
ATOM    145  C1  UAP d 301      11.239  -1.241  53.828  0.00  0.00     0.167 C 
ATOM    146  C5  UAP d 301      12.474  -1.666  51.807  0.00  0.00     0.147 C 
ATOM    147  C4  UAP d 301      11.823  -2.831  51.606  0.00  0.00    -0.034 C 
ATOM    148  O3S UAP d 301      11.862  -5.009  56.054  0.00  0.00    -0.572 OA
ATOM    149  C6  UAP d 301      13.499  -1.310  50.976  0.00  0.00     0.233 C 
ATOM    150  O5  UAP d 301      12.316  -0.935  52.953  0.00  0.00    -0.311 OA
ATOM    151  O2S UAP d 301      13.937  -3.914  56.444  0.00  0.00    -0.572 OA
ATOM    152  O2  UAP d 301      12.475  -3.093  54.470  0.00  0.00    -0.244 OA
ATOM    153  O3  UAP d 301       9.691  -3.537  52.377  0.00  0.00    -0.389 OA
ATOM    154  S   UAP d 301      12.572  -3.763  56.077  0.00  0.00     0.252 S 
ATOM    155  H   UAP d 301      11.434  -4.433  52.734  0.00  0.00     0.093 H 
ATOM    156  H   UAP d 301      10.400  -3.027  54.634  0.00  0.00     0.097 H 
ATOM    157  H   UAP d 301      11.404  -0.724  54.750  0.00  0.00     0.134 H 
ATOM    158  H   UAP d 301      11.884  -3.295  50.686  0.00  0.00     0.085 H 
ATOM    159  H   UAP d 301       9.311  -2.647  52.309  0.00  0.00     0.210 HD
ENDROOT
TORSDOF 50
ENDMDL
MODEL 6
REMARK VINA RESULT:      -9.2      3.649      4.755
REMARK  0 active torsions:
REMARK  status: ('A' for Active; 'I' for Inactive)
REMARK       I    between atoms: C3_1  and  O3_85 
REMARK       I    between atoms: C6_2  and  C5_22 
REMARK       I    between atoms: C6_3  and  C5_14 
REMARK       I    between atoms: C6_3  and  O6_30 
REMARK       I    between atoms: C1_4  and  O1_84 
REMARK       I    between atoms: O2S_6  and  S1_45 
REMARK       I    between atoms: C1_7  and  O1_36 
REMARK       I    between atoms: S1_10  and  N_69 
REMARK       I    between atoms: S1_10  and  O1S_27 
REMARK       I    between atoms: S1_10  and  O2S_71 
REMARK       I    between atoms: S1_10  and  O3S_88 
REMARK       I    between atoms: O4_11  and  C1_42 
REMARK       I    between atoms: O4_11  and  C4_63 
REMARK       I    between atoms: O6_12  and  C6_94 
REMARK       I    between atoms: O6_12  and  S2_28 
REMARK       I    between atoms: C1_13  and  O4_51 
REMARK       I    between atoms: S2_16  and  O6_76 
REMARK       I    between atoms: C3_18  and  O3_103 
REMARK       I    between atoms: C1_19  and  O1_37 
REMARK       I    between atoms: O4_20  and  C1_23 
REMARK       I    between atoms: O4_20  and  C4_77 
REMARK       I    between atoms: O3S_21  and  S1_92 
REMARK       I    between atoms: C3_24  and  O3_87 
REMARK       I    between atoms: O3_25  and  C3_46 
REMARK       I    between atoms: C6_29  and  C5_79 
REMARK       I    between atoms: C6_29  and  O6_76 
REMARK       I    between atoms: O6_30  and  S2_31 
REMARK       I    between atoms: O1_36  and  C4_81 
REMARK       I    between atoms: C2_38  and  O2_72 
REMARK       I    between atoms: S1_45  and  N_74 
REMARK       I    between atoms: S1_45  and  O1S_75 
REMARK       I    between atoms: S1_45  and  O3S_101 
REMARK       I    between atoms: O1S_47  and  S1_92 
REMARK       I    between atoms: S_48  and  O2_91 
REMARK       I    between atoms: C5_49  and  C6_67 
REMARK       I    between atoms: O4_51  and  C4_57 
REMARK       I    between atoms: N_52  and  C2_73 
REMARK       I    between atoms: N_52  and  S1_92 
REMARK       I    between atoms: C5_53  and  C6_61 
REMARK       I    between atoms: C4_56  and  O1_84 
REMARK       I    between atoms: C2_62  and  O2_91 
REMARK       I    between atoms: S_66  and  O2_105 
REMARK       I    between atoms: O3_68  and  C3_102 
REMARK       I    between atoms: N_69  and  C2_83 
REMARK       I    between atoms: C3_70  and  O3_98 
REMARK       I    between atoms: O2_72  and  S_96 
REMARK       I    between atoms: N_74  and  C2_86 
REMARK       I    between atoms: O2S_80  and  S1_92 
REMARK       I    between atoms: C5_89  and  C6_94 
REMARK       I    between atoms: C2_104  and  O2_105 
ROOT
ATOM      1  C3  IDS d 305      -4.716  -0.335  54.614  0.00  0.00     0.094 C 
ATOM      2  O3S IDS d 305      -9.022  -2.269  55.570  0.00  0.00    -0.572 OA
ATOM      3  C1  IDS d 305      -6.537  -0.956  53.086  0.00  0.00     0.161 C 
ATOM      4  O62 IDS d 305      -3.727   0.044  50.453  0.00  0.00    -0.646 OA
ATOM      5  O5  IDS d 305      -5.544  -0.539  52.174  0.00  0.00    -0.340 OA
ATOM      6  O61 IDS d 305      -2.485  -1.723  50.971  0.00  0.00    -0.646 OA
ATOM      7  O1S IDS d 305      -7.880  -1.875  57.632  0.00  0.00    -0.572 OA
ATOM      8  C5  IDS d 305      -4.362  -1.305  52.327  0.00  0.00     0.152 C 
ATOM      9  S   IDS d 305      -7.727  -2.128  56.216  0.00  0.00     0.252 S 
ATOM     10  C6  IDS d 305      -3.464  -0.976  51.142  0.00  0.00     0.206 C 
ATOM     11  C4  IDS d 305      -3.683  -0.879  53.645  0.00  0.00     0.103 C 
ATOM     12  O3  IDS d 305      -4.233  -0.462  55.912  0.00  0.00    -0.390 OA
ATOM     13  O2S IDS d 305      -6.944  -3.315  56.021  0.00  0.00    -0.572 OA
ATOM     14  C2  IDS d 305      -5.911  -1.207  54.466  0.00  0.00     0.134 C 
ATOM     15  O2  IDS d 305      -6.801  -0.821  55.485  0.00  0.00    -0.244 OA
ATOM     16  H   IDS d 305      -4.939   0.693  54.421  0.00  0.00     0.091 H 
ATOM     17  H   IDS d 305      -7.302  -0.218  53.210  0.00  0.00     0.133 H 
ATOM     18  H   IDS d 305      -4.561  -2.357  52.360  0.00  0.00     0.104 H 
ATOM     19  H   IDS d 305      -3.204  -1.747  54.047  0.00  0.00     0.092 H 
ATOM     20  H   IDS d 305      -4.029  -1.393  56.091  0.00  0.00     0.210 HD
ATOM     21  H   IDS d 305      -5.671  -2.248  54.543  0.00  0.00     0.097 H 
ATOM     22  C6  IDS d 303       3.744   3.829  53.037  0.00  0.00     0.206 C 
ATOM     23  O61 IDS d 303       3.896   4.995  52.702  0.00  0.00    -0.646 OA
ATOM     24  C5  IDS d 303       3.316   2.834  52.018  0.00  0.00     0.152 C 
ATOM     25  C1  IDS d 303       2.623   0.589  51.766  0.00  0.00     0.161 C 
ATOM     26  O3  IDS d 303       2.250   2.399  49.375  0.00  0.00    -0.390 OA
ATOM     27  O2S IDS d 303       3.995  -1.729  48.625  0.00  0.00    -0.572 OA
ATOM     28  O5  IDS d 303       3.307   1.527  52.606  0.00  0.00    -0.340 OA
ATOM     29  C3  IDS d 303       3.486   1.897  49.755  0.00  0.00     0.094 C 
ATOM     30  S   IDS d 303       4.291  -1.758  50.008  0.00  0.00     0.252 S 
ATOM     31  C4  IDS d 303       4.184   2.828  50.768  0.00  0.00     0.103 C 
ATOM     32  O1S IDS d 303       5.523  -2.384  50.287  0.00  0.00    -0.572 OA
ATOM     33  C2  IDS d 303       3.269   0.552  50.380  0.00  0.00     0.134 C 
ATOM     34  O3S IDS d 303       3.199  -2.428  50.611  0.00  0.00    -0.572 OA
ATOM     35  O2  IDS d 303       4.446  -0.118  50.467  0.00  0.00    -0.244 OA
ATOM     36  O62 IDS d 303       3.721   3.456  54.191  0.00  0.00    -0.646 OA
ATOM     37  H   IDS d 303       2.334   3.118  51.703  0.00  0.00     0.104 H 
ATOM     38  H   IDS d 303       2.720  -0.378  52.213  0.00  0.00     0.133 H 
ATOM     39  H   IDS d 303       1.837   1.794  48.740  0.00  0.00     0.210 HD
ATOM     40  H   IDS d 303       4.115   1.824  48.892  0.00  0.00     0.091 H 
ATOM     41  H   IDS d 303       4.320   3.797  50.335  0.00  0.00     0.092 H 
ATOM     42  H   IDS d 303       2.580   0.051  49.734  0.00  0.00     0.097 H 
ATOM     43  C6  SGN d 306      -9.536  -0.726  52.787  0.00  0.00     0.067 C 
ATOM     44  S1  SGN d 306      -9.014  -4.267  46.876  0.00  0.00     0.156 S 
ATOM     45  C5  SGN d 306      -9.331  -1.963  51.930  0.00  0.00     0.091 C 
ATOM     46  C3  SGN d 306      -7.675  -3.104  50.449  0.00  0.00     0.083 C 
ATOM     47  C1  SGN d 306     -10.141  -2.999  49.903  0.00  0.00     0.147 C 
ATOM     48  O1S SGN d 306      -8.821  -5.604  46.375  0.00  0.00    -0.296 OA
ATOM     49  O6  SGN d 306      -8.912   0.387  52.151  0.00  0.00    -0.254 OA
ATOM     50  S2  SGN d 306      -9.360   2.036  52.618  0.00  0.00     0.251 S 
ATOM     51  O4S SGN d 306      -8.366   2.603  53.485  0.00  0.00    -0.572 OA
ATOM     52  O1  SGN d 306     -10.428  -4.232  50.548  0.00  0.00    -0.369 OA
ATOM     53  O4  SGN d 306      -7.043  -2.162  52.558  0.00  0.00    -0.348 OA
ATOM     54  C4  SGN d 306      -7.895  -1.965  51.432  0.00  0.00     0.095 C 
ATOM     55  N   SGN d 306      -8.592  -4.266  48.586  0.00  0.00    -0.210 NA
ATOM     56  O2S SGN d 306      -8.133  -3.353  46.207  0.00  0.00    -0.296 OA
ATOM     57  O5  SGN d 306     -10.242  -1.906  50.807  0.00  0.00    -0.350 OA
ATOM     58  O6S SGN d 306      -9.440   2.822  51.416  0.00  0.00    -0.572 OA
ATOM     59  C2  SGN d 306      -8.722  -3.038  49.342  0.00  0.00     0.081 C 
ATOM     60  O3S SGN d 306     -10.388  -3.875  46.700  0.00  0.00    -0.296 OA
ATOM     61  O5S SGN d 306     -10.651   1.999  53.259  0.00  0.00    -0.572 OA
ATOM     62  O3  SGN d 306      -6.425  -2.878  49.812  0.00  0.00    -0.391 OA
ATOM     63  H   SGN d 306      -9.098  -0.881  53.751  0.00  0.00     0.080 H 
ATOM     64  H   SGN d 306     -10.583  -0.536  52.904  0.00  0.00     0.080 H 
ATOM     65  H   SGN d 306      -9.519  -2.854  52.493  0.00  0.00     0.090 H 
ATOM     66  H   SGN d 306      -7.723  -4.039  50.967  0.00  0.00     0.089 H 
ATOM     67  H   SGN d 306     -10.855  -2.864  49.118  0.00  0.00     0.131 H 
ATOM     68  H   SGN d 306      -7.894  -5.864  46.496  0.00  0.00     0.231 HD
ATOM     69  H   SGN d 306      -9.792  -4.378  51.266  0.00  0.00     0.212 HD
ATOM     70  H   SGN d 306      -7.683  -1.039  50.939  0.00  0.00     0.091 H 
ATOM     71  H   SGN d 306      -7.616  -4.556  48.654  0.00  0.00     0.140 HD
ATOM     72  H   SGN d 306      -7.214  -3.634  46.338  0.00  0.00     0.231 HD
ATOM     73  H   SGN d 306      -8.566  -2.155  48.760  0.00  0.00     0.076 H 
ATOM     74  H   SGN d 306     -10.965  -4.506  47.159  0.00  0.00     0.231 HD
ATOM     75  H   SGN d 306      -6.443  -2.018  49.362  0.00  0.00     0.210 HD
ATOM     76  C1  SGN d 302       6.604   3.075  50.867  0.00  0.00     0.150 C 
ATOM     77  O4  SGN d 302       8.699   1.449  54.060  0.00  0.00    -0.348 OA
ATOM     78  O6  SGN d 302       8.929   4.533  54.081  0.00  0.00    -0.254 OA
ATOM     79  O3S SGN d 302       6.206   2.474  47.817  0.00  0.00    -0.296 OA
ATOM     80  S2  SGN d 302       9.278   6.116  54.639  0.00  0.00     0.251 S 
ATOM     81  O5  SGN d 302       6.985   3.906  51.965  0.00  0.00    -0.349 OA
ATOM     82  O1S SGN d 302       6.777   0.250  47.340  0.00  0.00    -0.296 OA
ATOM     83  O6S SGN d 302       8.128   6.935  54.364  0.00  0.00    -0.572 OA
ATOM     84  N   SGN d 302       7.245   1.104  49.729  0.00  0.00    -0.210 NA
ATOM     85  O5S SGN d 302       9.464   6.035  56.043  0.00  0.00    -0.572 OA
ATOM     86  C4  SGN d 302       8.548   2.306  52.928  0.00  0.00     0.095 C 
ATOM     87  O3  SGN d 302       9.343   0.591  51.525  0.00  0.00    -0.391 OA
ATOM     88  C2  SGN d 302       7.770   2.134  50.575  0.00  0.00     0.081 C 
ATOM     89  O2S SGN d 302       8.400   1.894  47.605  0.00  0.00    -0.296 OA
ATOM     90  O1  SGN d 302       5.448   2.292  51.155  0.00  0.00    -0.348 OA
ATOM     91  C5  SGN d 302       7.317   3.185  53.147  0.00  0.00     0.091 C 
ATOM     92  S1  SGN d 302       7.148   1.441  48.028  0.00  0.00     0.156 S 
ATOM     93  C6  SGN d 302       7.584   4.186  54.210  0.00  0.00     0.067 C 
ATOM     94  O4S SGN d 302      10.471   6.571  54.024  0.00  0.00    -0.572 OA
ATOM     95  C3  SGN d 302       8.203   1.369  51.808  0.00  0.00     0.083 C 
ATOM     96  H   SGN d 302       6.368   3.702  50.033  0.00  0.00     0.131 H 
ATOM     97  H   SGN d 302       5.329   2.176  48.105  0.00  0.00     0.231 HD
ATOM     98  H   SGN d 302       5.907  -0.044  47.651  0.00  0.00     0.231 HD
ATOM     99  H   SGN d 302       6.302   0.894  50.053  0.00  0.00     0.140 HD
ATOM    100  H   SGN d 302       9.413   2.911  52.752  0.00  0.00     0.091 H 
ATOM    101  H   SGN d 302       9.610   0.107  52.322  0.00  0.00     0.210 HD
ATOM    102  H   SGN d 302       8.578   2.713  50.178  0.00  0.00     0.076 H 
ATOM    103  H   SGN d 302       8.369   2.089  46.655  0.00  0.00     0.231 HD
ATOM    104  H   SGN d 302       6.511   2.536  53.422  0.00  0.00     0.090 H 
ATOM    105  H   SGN d 302       6.962   5.047  54.073  0.00  0.00     0.080 H 
ATOM    106  H   SGN d 302       7.372   3.792  55.182  0.00  0.00     0.080 H 
ATOM    107  H   SGN d 302       7.387   0.744  52.101  0.00  0.00     0.089 H 
ATOM    108  O2S SGN d 304      -3.319   4.421  55.822  0.00  0.00    -0.296 OA
ATOM    109  C1  SGN d 304      -1.757   0.209  54.459  0.00  0.00     0.150 C 
ATOM    110  S2  SGN d 304       2.132  -2.381  55.142  0.00  0.00     0.251 S 
ATOM    111  O4  SGN d 304       1.231   0.849  51.684  0.00  0.00    -0.348 OA
ATOM    112  C6  SGN d 304       0.877  -1.780  52.735  0.00  0.00     0.067 C 
ATOM    113  O4S SGN d 304       3.433  -2.441  54.553  0.00  0.00    -0.572 OA
ATOM    114  O1  SGN d 304      -2.719   0.136  53.426  0.00  0.00    -0.348 OA
ATOM    115  O5  SGN d 304      -0.731  -0.748  54.248  0.00  0.00    -0.349 OA
ATOM    116  S1  SGN d 304      -2.632   3.193  56.075  0.00  0.00     0.156 S 
ATOM    117  O5S SGN d 304       2.003  -3.394  56.144  0.00  0.00    -0.572 OA
ATOM    118  C3  SGN d 304      -0.486   1.803  53.075  0.00  0.00     0.083 C 
ATOM    119  N   SGN d 304      -2.245   2.527  54.480  0.00  0.00    -0.210 NA
ATOM    120  O1S SGN d 304      -3.458   2.294  56.832  0.00  0.00    -0.296 OA
ATOM    121  O6  SGN d 304       0.927  -2.656  53.864  0.00  0.00    -0.254 OA
ATOM    122  C4  SGN d 304       0.572   0.717  52.928  0.00  0.00     0.095 C 
ATOM    123  C5  SGN d 304      -0.095  -0.636  52.982  0.00  0.00     0.091 C 
ATOM    124  C2  SGN d 304      -1.162   1.591  54.397  0.00  0.00     0.081 C 
ATOM    125  O6S SGN d 304       1.926  -1.089  55.744  0.00  0.00    -0.572 OA
ATOM    126  O3  SGN d 304       0.089   3.092  53.074  0.00  0.00    -0.391 OA
ATOM    127  O3S SGN d 304      -1.412   3.446  56.797  0.00  0.00    -0.296 OA
ATOM    128  H   SGN d 304      -4.139   4.239  55.336  0.00  0.00     0.231 HD
ATOM    129  H   SGN d 304      -2.208   0.012  55.410  0.00  0.00     0.131 H 
ATOM    130  H   SGN d 304       1.853  -1.380  52.558  0.00  0.00     0.080 H 
ATOM    131  H   SGN d 304       0.543  -2.336  51.883  0.00  0.00     0.080 H 
ATOM    132  H   SGN d 304      -1.167   1.740  52.252  0.00  0.00     0.089 H 
ATOM    133  H   SGN d 304      -2.019   3.311  53.868  0.00  0.00     0.140 HD
ATOM    134  H   SGN d 304      -4.280   2.124  56.347  0.00  0.00     0.231 HD
ATOM    135  H   SGN d 304       1.284   0.813  53.722  0.00  0.00     0.091 H 
ATOM    136  H   SGN d 304      -0.816  -0.711  52.195  0.00  0.00     0.090 H 
ATOM    137  H   SGN d 304      -0.453   1.717  55.189  0.00  0.00     0.076 H 
ATOM    138  H   SGN d 304       0.711   3.169  53.814  0.00  0.00     0.210 HD
ATOM    139  H   SGN d 304      -0.854   4.053  56.286  0.00  0.00     0.231 HD
ATOM    140  O1S UAP d 301      10.076   2.888  58.188  0.00  0.00    -0.572 OA
ATOM    141  C3  UAP d 301       9.754  -0.739  55.677  0.00  0.00     0.086 C 
ATOM    142  O62 UAP d 301      13.242   0.599  52.889  0.00  0.00    -0.642 OA
ATOM    143  C2  UAP d 301       9.757   0.717  56.071  0.00  0.00     0.135 C 
ATOM    144  O61 UAP d 301      12.893  -1.507  53.201  0.00  0.00    -0.642 OA
ATOM    145  C1  UAP d 301       9.867   1.618  54.860  0.00  0.00     0.167 C 
ATOM    146  C5  UAP d 301      11.362  -0.049  53.978  0.00  0.00     0.147 C 
ATOM    147  C4  UAP d 301      10.703  -1.037  54.620  0.00  0.00    -0.034 C 
ATOM    148  O3S UAP d 301      10.023   0.746  59.191  0.00  0.00    -0.572 OA
ATOM    149  C6  UAP d 301      12.508  -0.333  53.290  0.00  0.00     0.233 C 
ATOM    150  O5  UAP d 301      11.068   1.272  54.186  0.00  0.00    -0.311 OA
ATOM    151  O2S UAP d 301      12.061   1.939  58.904  0.00  0.00    -0.572 OA
ATOM    152  O2  UAP d 301      10.928   0.933  56.803  0.00  0.00    -0.244 OA
ATOM    153  O3  UAP d 301       8.458  -1.123  55.388  0.00  0.00    -0.389 OA
ATOM    154  S   UAP d 301      10.769   1.663  58.378  0.00  0.00     0.252 S 
ATOM    155  H   UAP d 301      10.098  -1.328  56.502  0.00  0.00     0.093 H 
ATOM    156  H   UAP d 301       8.855   0.931  56.606  0.00  0.00     0.097 H 
ATOM    157  H   UAP d 301       9.917   2.656  55.115  0.00  0.00     0.134 H 
ATOM    158  H   UAP d 301      10.878  -2.019  54.356  0.00  0.00     0.085 H 
ATOM    159  H   UAP d 301       8.125  -0.600  54.642  0.00  0.00     0.210 HD
ENDROOT
TORSDOF 50
ENDMDL
MODEL 7
REMARK VINA RESULT:      -8.9      5.182     15.503
REMARK  0 active torsions:
REMARK  status: ('A' for Active; 'I' for Inactive)
REMARK       I    between atoms: C3_1  and  O3_85 
REMARK       I    between atoms: C6_2  and  C5_22 
REMARK       I    between atoms: C6_3  and  C5_14 
REMARK       I    between atoms: C6_3  and  O6_30 
REMARK       I    between atoms: C1_4  and  O1_84 
REMARK       I    between atoms: O2S_6  and  S1_45 
REMARK       I    between atoms: C1_7  and  O1_36 
REMARK       I    between atoms: S1_10  and  N_69 
REMARK       I    between atoms: S1_10  and  O1S_27 
REMARK       I    between atoms: S1_10  and  O2S_71 
REMARK       I    between atoms: S1_10  and  O3S_88 
REMARK       I    between atoms: O4_11  and  C1_42 
REMARK       I    between atoms: O4_11  and  C4_63 
REMARK       I    between atoms: O6_12  and  C6_94 
REMARK       I    between atoms: O6_12  and  S2_28 
REMARK       I    between atoms: C1_13  and  O4_51 
REMARK       I    between atoms: S2_16  and  O6_76 
REMARK       I    between atoms: C3_18  and  O3_103 
REMARK       I    between atoms: C1_19  and  O1_37 
REMARK       I    between atoms: O4_20  and  C1_23 
REMARK       I    between atoms: O4_20  and  C4_77 
REMARK       I    between atoms: O3S_21  and  S1_92 
REMARK       I    between atoms: C3_24  and  O3_87 
REMARK       I    between atoms: O3_25  and  C3_46 
REMARK       I    between atoms: C6_29  and  C5_79 
REMARK       I    between atoms: C6_29  and  O6_76 
REMARK       I    between atoms: O6_30  and  S2_31 
REMARK       I    between atoms: O1_36  and  C4_81 
REMARK       I    between atoms: C2_38  and  O2_72 
REMARK       I    between atoms: S1_45  and  N_74 
REMARK       I    between atoms: S1_45  and  O1S_75 
REMARK       I    between atoms: S1_45  and  O3S_101 
REMARK       I    between atoms: O1S_47  and  S1_92 
REMARK       I    between atoms: S_48  and  O2_91 
REMARK       I    between atoms: C5_49  and  C6_67 
REMARK       I    between atoms: O4_51  and  C4_57 
REMARK       I    between atoms: N_52  and  C2_73 
REMARK       I    between atoms: N_52  and  S1_92 
REMARK       I    between atoms: C5_53  and  C6_61 
REMARK       I    between atoms: C4_56  and  O1_84 
REMARK       I    between atoms: C2_62  and  O2_91 
REMARK       I    between atoms: S_66  and  O2_105 
REMARK       I    between atoms: O3_68  and  C3_102 
REMARK       I    between atoms: N_69  and  C2_83 
REMARK       I    between atoms: C3_70  and  O3_98 
REMARK       I    between atoms: O2_72  and  S_96 
REMARK       I    between atoms: N_74  and  C2_86 
REMARK       I    between atoms: O2S_80  and  S1_92 
REMARK       I    between atoms: C5_89  and  C6_94 
REMARK       I    between atoms: C2_104  and  O2_105 
ROOT
ATOM      1  C3  IDS d 305       6.651  -1.441  51.377  0.00  0.00     0.094 C 
ATOM      2  O3S IDS d 305      11.437  -1.969  51.245  0.00  0.00    -0.572 OA
ATOM      3  C1  IDS d 305       8.357  -0.743  53.001  0.00  0.00     0.161 C 
ATOM      4  O62 IDS d 305       5.054   0.161  55.026  0.00  0.00    -0.646 OA
ATOM      5  O5  IDS d 305       7.171  -0.376  53.674  0.00  0.00    -0.340 OA
ATOM      6  O61 IDS d 305       4.525  -1.978  55.297  0.00  0.00    -0.646 OA
ATOM      7  O1S IDS d 305      10.510  -2.833  49.219  0.00  0.00    -0.572 OA
ATOM      8  C5  IDS d 305       6.329  -1.500  53.865  0.00  0.00     0.152 C 
ATOM      9  S   IDS d 305      10.261  -2.551  50.616  0.00  0.00     0.252 S 
ATOM     10  C6  IDS d 305       5.226  -1.069  54.821  0.00  0.00     0.206 C 
ATOM     11  C4  IDS d 305       5.729  -1.886  52.497  0.00  0.00     0.103 C 
ATOM     12  O3  IDS d 305       6.409  -2.223  50.253  0.00  0.00    -0.390 OA
ATOM     13  O2S IDS d 305       9.883  -3.758  51.292  0.00  0.00    -0.572 OA
ATOM     14  C2  IDS d 305       8.033  -1.713  51.855  0.00  0.00     0.134 C 
ATOM     15  O2  IDS d 305       8.877  -1.472  50.756  0.00  0.00    -0.244 OA
ATOM     16  H   IDS d 305       6.504  -0.411  51.127  0.00  0.00     0.091 H 
ATOM     17  H   IDS d 305       8.854   0.103  52.575  0.00  0.00     0.133 H 
ATOM     18  H   IDS d 305       6.858  -2.340  54.265  0.00  0.00     0.104 H 
ATOM     19  H   IDS d 305       5.612  -2.949  52.494  0.00  0.00     0.092 H 
ATOM     20  H   IDS d 305       6.541  -3.158  50.475  0.00  0.00     0.210 HD
ATOM     21  H   IDS d 305       8.151  -2.713  52.217  0.00  0.00     0.097 H 
ATOM     22  C6  IDS d 303      -2.828  -0.210  51.211  0.00  0.00     0.206 C 
ATOM     23  O61 IDS d 303      -3.390   0.863  51.039  0.00  0.00    -0.646 OA
ATOM     24  C5  IDS d 303      -2.241  -0.513  52.544  0.00  0.00     0.152 C 
ATOM     25  C1  IDS d 303      -0.903  -2.089  53.688  0.00  0.00     0.161 C 
ATOM     26  O3  IDS d 303      -1.450   0.516  55.118  0.00  0.00    -0.390 OA
ATOM     27  O2S IDS d 303      -1.859  -3.318  57.522  0.00  0.00    -0.572 OA
ATOM     28  O5  IDS d 303      -1.735  -1.854  52.546  0.00  0.00    -0.340 OA
ATOM     29  C3  IDS d 303      -2.398  -0.488  54.994  0.00  0.00     0.094 C 
ATOM     30  S   IDS d 303      -1.944  -3.984  56.277  0.00  0.00     0.252 S 
ATOM     31  C4  IDS d 303      -3.218  -0.332  53.697  0.00  0.00     0.103 C 
ATOM     32  O1S IDS d 303      -2.862  -5.054  56.297  0.00  0.00    -0.572 OA
ATOM     33  C2  IDS d 303      -1.680  -1.805  54.974  0.00  0.00     0.134 C 
ATOM     34  O3S IDS d 303      -0.626  -4.412  55.989  0.00  0.00    -0.572 OA
ATOM     35  O2  IDS d 303      -2.557  -2.818  55.186  0.00  0.00    -0.244 OA
ATOM     36  O62 IDS d 303      -2.535  -0.970  50.313  0.00  0.00    -0.646 OA
ATOM     37  H   IDS d 303      -1.453   0.193  52.701  0.00  0.00     0.104 H 
ATOM     38  H   IDS d 303      -0.624  -3.122  53.679  0.00  0.00     0.133 H 
ATOM     39  H   IDS d 303      -0.951   0.391  55.940  0.00  0.00     0.210 HD
ATOM     40  H   IDS d 303      -3.078  -0.433  55.818  0.00  0.00     0.091 H 
ATOM     41  H   IDS d 303      -3.714   0.616  53.694  0.00  0.00     0.092 H 
ATOM     42  H   IDS d 303      -0.957  -1.741  55.761  0.00  0.00     0.097 H 
ATOM     43  C6  SGN d 306      11.056   0.610  53.140  0.00  0.00     0.067 C 
ATOM     44  S1  SGN d 306      10.926  -0.286  59.991  0.00  0.00     0.156 S 
ATOM     45  C5  SGN d 306      11.149  -0.182  54.433  0.00  0.00     0.091 C 
ATOM     46  C3  SGN d 306       9.768  -1.152  56.274  0.00  0.00     0.083 C 
ATOM     47  C1  SGN d 306      11.975   0.006  56.696  0.00  0.00     0.147 C 
ATOM     48  O1S SGN d 306      11.109  -1.298  61.000  0.00  0.00    -0.296 OA
ATOM     49  O6  SGN d 306      10.029   1.591  53.270  0.00  0.00    -0.254 OA
ATOM     50  S2  SGN d 306       9.981   2.971  52.161  0.00  0.00     0.251 S 
ATOM     51  O4S SGN d 306       8.981   2.772  51.150  0.00  0.00    -0.572 OA
ATOM     52  O1  SGN d 306      12.724  -1.197  56.612  0.00  0.00    -0.369 OA
ATOM     53  O4  SGN d 306       9.150  -1.390  53.972  0.00  0.00    -0.348 OA
ATOM     54  C4  SGN d 306       9.737  -0.487  54.907  0.00  0.00     0.095 C 
ATOM     55  N   SGN d 306      10.755  -1.099  58.438  0.00  0.00    -0.210 NA
ATOM     56  O2S SGN d 306       9.718   0.449  60.236  0.00  0.00    -0.296 OA
ATOM     57  O5  SGN d 306      11.837   0.621  55.421  0.00  0.00    -0.350 OA
ATOM     58  O6S SGN d 306       9.645   4.138  52.932  0.00  0.00    -0.572 OA
ATOM     59  C2  SGN d 306      10.582  -0.301  57.242  0.00  0.00     0.081 C 
ATOM     60  O3S SGN d 306      12.065   0.594  59.973  0.00  0.00    -0.296 OA
ATOM     61  O5S SGN d 306      11.289   3.138  51.575  0.00  0.00    -0.572 OA
ATOM     62  O3  SGN d 306       8.438  -1.144  56.777  0.00  0.00    -0.391 OA
ATOM     63  H   SGN d 306      10.822  -0.049  52.331  0.00  0.00     0.080 H 
ATOM     64  H   SGN d 306      11.992   1.090  52.942  0.00  0.00     0.080 H 
ATOM     65  H   SGN d 306      11.685  -1.095  54.284  0.00  0.00     0.090 H 
ATOM     66  H   SGN d 306      10.181  -2.135  56.186  0.00  0.00     0.089 H 
ATOM     67  H   SGN d 306      12.497   0.675  57.346  0.00  0.00     0.131 H 
ATOM     68  H   SGN d 306      10.339  -1.888  61.009  0.00  0.00     0.231 HD
ATOM     69  H   SGN d 306      12.269  -1.822  56.026  0.00  0.00     0.212 HD
ATOM     70  H   SGN d 306       9.176   0.421  54.977  0.00  0.00     0.091 H 
ATOM     71  H   SGN d 306       9.942  -1.711  58.508  0.00  0.00     0.140 HD
ATOM     72  H   SGN d 306       8.964  -0.161  60.244  0.00  0.00     0.231 HD
ATOM     73  H   SGN d 306      10.075   0.626  57.411  0.00  0.00     0.076 H 
ATOM     74  H   SGN d 306      12.870   0.078  59.806  0.00  0.00     0.231 HD
ATOM     75  H   SGN d 306       8.119  -0.229  56.833  0.00  0.00     0.210 HD
ATOM     76  C1  SGN d 302      -5.554  -0.999  53.536  0.00  0.00     0.150 C 
ATOM     77  O4  SGN d 302      -6.575  -4.358  51.322  0.00  0.00    -0.348 OA
ATOM     78  O6  SGN d 302      -7.779  -1.816  50.037  0.00  0.00    -0.254 OA
ATOM     79  O3S SGN d 302      -5.389  -0.185  56.558  0.00  0.00    -0.296 OA
ATOM     80  S2  SGN d 302      -8.542  -0.805  48.882  0.00  0.00     0.251 S 
ATOM     81  O5  SGN d 302      -6.034  -0.851  52.198  0.00  0.00    -0.349 OA
ATOM     82  O1S SGN d 302      -5.272  -2.094  57.915  0.00  0.00    -0.296 OA
ATOM     83  O6S SGN d 302      -7.763   0.400  48.781  0.00  0.00    -0.572 OA
ATOM     84  N   SGN d 302      -5.671  -2.459  55.393  0.00  0.00    -0.210 NA
ATOM     85  O5S SGN d 302      -8.505  -1.485  47.638  0.00  0.00    -0.572 OA
ATOM     86  C4  SGN d 302      -6.858  -3.133  51.999  0.00  0.00     0.095 C 
ATOM     87  O3  SGN d 302      -7.237  -4.325  53.994  0.00  0.00    -0.391 OA
ATOM     88  C2  SGN d 302      -6.383  -2.093  54.205  0.00  0.00     0.081 C 
ATOM     89  O2S SGN d 302      -7.288  -1.358  57.018  0.00  0.00    -0.296 OA
ATOM     90  O1  SGN d 302      -4.180  -1.379  53.581  0.00  0.00    -0.348 OA
ATOM     91  C5  SGN d 302      -5.957  -2.042  51.422  0.00  0.00     0.091 C 
ATOM     92  S1  SGN d 302      -5.913  -1.475  56.803  0.00  0.00     0.156 S 
ATOM     93  C6  SGN d 302      -6.389  -1.695  50.045  0.00  0.00     0.067 C 
ATOM     94  O4S SGN d 302      -9.888  -0.591  49.271  0.00  0.00    -0.572 OA
ATOM     95  C3  SGN d 302      -6.382  -3.376  53.401  0.00  0.00     0.083 C 
ATOM     96  H   SGN d 302      -5.643  -0.057  54.036  0.00  0.00     0.131 H 
ATOM     97  H   SGN d 302      -4.432  -0.247  56.407  0.00  0.00     0.231 HD
ATOM     98  H   SGN d 302      -4.321  -2.164  57.741  0.00  0.00     0.231 HD
ATOM     99  H   SGN d 302      -4.677  -2.437  55.171  0.00  0.00     0.140 HD
ATOM    100  H   SGN d 302      -7.887  -2.849  51.922  0.00  0.00     0.091 H 
ATOM    101  H   SGN d 302      -7.228  -5.142  53.471  0.00  0.00     0.210 HD
ATOM    102  H   SGN d 302      -7.379  -1.724  54.339  0.00  0.00     0.076 H 
ATOM    103  H   SGN d 302      -7.447  -0.811  57.803  0.00  0.00     0.231 HD
ATOM    104  H   SGN d 302      -4.957  -2.423  51.428  0.00  0.00     0.090 H 
ATOM    105  H   SGN d 302      -6.101  -0.692  49.807  0.00  0.00     0.080 H 
ATOM    106  H   SGN d 302      -5.936  -2.337  49.319  0.00  0.00     0.080 H 
ATOM    107  H   SGN d 302      -5.377  -3.741  53.381  0.00  0.00     0.089 H 
ATOM    108  O2S SGN d 304       3.972   1.660  48.338  0.00  0.00    -0.296 OA
ATOM    109  C1  SGN d 304       3.681  -1.943  51.333  0.00  0.00     0.150 C 
ATOM    110  S2  SGN d 304       0.956  -5.768  51.827  0.00  0.00     0.251 S 
ATOM    111  O4  SGN d 304       0.308  -1.352  53.637  0.00  0.00    -0.348 OA
ATOM    112  C6  SGN d 304       1.623  -3.882  53.757  0.00  0.00     0.067 C 
ATOM    113  O4S SGN d 304      -0.323  -6.041  52.405  0.00  0.00    -0.572 OA
ATOM    114  O1  SGN d 304       4.470  -1.269  52.292  0.00  0.00    -0.348 OA
ATOM    115  O5  SGN d 304       2.999  -3.034  51.933  0.00  0.00    -0.349 OA
ATOM    116  S1  SGN d 304       3.755   0.275  48.621  0.00  0.00     0.156 S 
ATOM    117  O5S SGN d 304       1.534  -6.979  51.329  0.00  0.00    -0.572 OA
ATOM    118  C3  SGN d 304       1.794  -0.485  51.955  0.00  0.00     0.083 C 
ATOM    119  N   SGN d 304       3.397   0.195  50.354  0.00  0.00    -0.210 NA
ATOM    120  O1S SGN d 304       4.919  -0.500  48.290  0.00  0.00    -0.296 OA
ATOM    121  O6  SGN d 304       2.007  -5.086  53.089  0.00  0.00    -0.254 OA
ATOM    122  C4  SGN d 304       1.132  -1.721  52.549  0.00  0.00     0.095 C 
ATOM    123  C5  SGN d 304       2.200  -2.665  53.048  0.00  0.00     0.091 C 
ATOM    124  C2  SGN d 304       2.671  -0.947  50.828  0.00  0.00     0.081 C 
ATOM    125  O6S SGN d 304       0.814  -4.830  50.744  0.00  0.00    -0.572 OA
ATOM    126  O3  SGN d 304       0.841   0.415  51.433  0.00  0.00    -0.391 OA
ATOM    127  O3S SGN d 304       2.625  -0.214  47.875  0.00  0.00    -0.296 OA
ATOM    128  H   SGN d 304       4.735   1.978  48.845  0.00  0.00     0.231 HD
ATOM    129  H   SGN d 304       4.292  -2.326  50.542  0.00  0.00     0.131 H 
ATOM    130  H   SGN d 304       0.556  -3.810  53.766  0.00  0.00     0.080 H 
ATOM    131  H   SGN d 304       2.002  -3.908  54.757  0.00  0.00     0.080 H 
ATOM    132  H   SGN d 304       2.345   0.019  52.722  0.00  0.00     0.089 H 
ATOM    133  H   SGN d 304       2.852   1.024  50.592  0.00  0.00     0.140 HD
ATOM    134  H   SGN d 304       5.680  -0.171  48.792  0.00  0.00     0.231 HD
ATOM    135  H   SGN d 304       0.538  -2.196  51.796  0.00  0.00     0.091 H 
ATOM    136  H   SGN d 304       2.796  -2.171  53.787  0.00  0.00     0.090 H 
ATOM    137  H   SGN d 304       2.070  -1.395  50.065  0.00  0.00     0.076 H 
ATOM    138  H   SGN d 304       0.331  -0.024  50.735  0.00  0.00     0.210 HD
ATOM    139  H   SGN d 304       1.840   0.309  48.098  0.00  0.00     0.231 HD
ATOM    140  O1S UAP d 301      -7.786  -5.219  46.986  0.00  0.00    -0.572 OA
ATOM    141  C3  UAP d 301      -6.649  -7.221  50.763  0.00  0.00     0.086 C 
ATOM    142  O62 UAP d 301     -10.717  -6.203  52.799  0.00  0.00    -0.642 OA
ATOM    143  C2  UAP d 301      -7.067  -6.135  49.804  0.00  0.00     0.135 C 
ATOM    144  O61 UAP d 301      -9.672  -8.000  53.376  0.00  0.00    -0.642 OA
ATOM    145  C1  UAP d 301      -7.620  -4.931  50.539  0.00  0.00     0.167 C 
ATOM    146  C5  UAP d 301      -8.602  -6.528  52.048  0.00  0.00     0.147 C 
ATOM    147  C4  UAP d 301      -7.583  -7.393  51.861  0.00  0.00    -0.034 C 
ATOM    148  O3S UAP d 301      -6.916  -7.419  46.953  0.00  0.00    -0.572 OA
ATOM    149  C6  UAP d 301      -9.676  -6.900  52.807  0.00  0.00     0.233 C 
ATOM    150  O5  UAP d 301      -8.724  -5.380  51.312  0.00  0.00    -0.311 OA
ATOM    151  O2S UAP d 301      -9.248  -6.996  46.750  0.00  0.00    -0.572 OA
ATOM    152  O2  UAP d 301      -8.139  -6.642  49.064  0.00  0.00    -0.244 OA
ATOM    153  O3  UAP d 301      -5.348  -6.986  51.167  0.00  0.00    -0.389 OA
ATOM    154  S   UAP d 301      -8.017  -6.578  47.326  0.00  0.00     0.252 S 
ATOM    155  H   UAP d 301      -6.673  -8.165  50.258  0.00  0.00     0.093 H 
ATOM    156  H   UAP d 301      -6.220  -5.848  49.218  0.00  0.00     0.097 H 
ATOM    157  H   UAP d 301      -7.966  -4.163  49.880  0.00  0.00     0.134 H 
ATOM    158  H   UAP d 301      -7.465  -8.188  52.508  0.00  0.00     0.085 H 
ATOM    159  H   UAP d 301      -5.302  -6.134  51.628  0.00  0.00     0.210 HD
ENDROOT
TORSDOF 50
ENDMDL
MODEL 8
REMARK VINA RESULT:      -8.9      3.997      5.464
REMARK  0 active torsions:
REMARK  status: ('A' for Active; 'I' for Inactive)
REMARK       I    between atoms: C3_1  and  O3_85 
REMARK       I    between atoms: C6_2  and  C5_22 
REMARK       I    between atoms: C6_3  and  C5_14 
REMARK       I    between atoms: C6_3  and  O6_30 
REMARK       I    between atoms: C1_4  and  O1_84 
REMARK       I    between atoms: O2S_6  and  S1_45 
REMARK       I    between atoms: C1_7  and  O1_36 
REMARK       I    between atoms: S1_10  and  N_69 
REMARK       I    between atoms: S1_10  and  O1S_27 
REMARK       I    between atoms: S1_10  and  O2S_71 
REMARK       I    between atoms: S1_10  and  O3S_88 
REMARK       I    between atoms: O4_11  and  C1_42 
REMARK       I    between atoms: O4_11  and  C4_63 
REMARK       I    between atoms: O6_12  and  C6_94 
REMARK       I    between atoms: O6_12  and  S2_28 
REMARK       I    between atoms: C1_13  and  O4_51 
REMARK       I    between atoms: S2_16  and  O6_76 
REMARK       I    between atoms: C3_18  and  O3_103 
REMARK       I    between atoms: C1_19  and  O1_37 
REMARK       I    between atoms: O4_20  and  C1_23 
REMARK       I    between atoms: O4_20  and  C4_77 
REMARK       I    between atoms: O3S_21  and  S1_92 
REMARK       I    between atoms: C3_24  and  O3_87 
REMARK       I    between atoms: O3_25  and  C3_46 
REMARK       I    between atoms: C6_29  and  C5_79 
REMARK       I    between atoms: C6_29  and  O6_76 
REMARK       I    between atoms: O6_30  and  S2_31 
REMARK       I    between atoms: O1_36  and  C4_81 
REMARK       I    between atoms: C2_38  and  O2_72 
REMARK       I    between atoms: S1_45  and  N_74 
REMARK       I    between atoms: S1_45  and  O1S_75 
REMARK       I    between atoms: S1_45  and  O3S_101 
REMARK       I    between atoms: O1S_47  and  S1_92 
REMARK       I    between atoms: S_48  and  O2_91 
REMARK       I    between atoms: C5_49  and  C6_67 
REMARK       I    between atoms: O4_51  and  C4_57 
REMARK       I    between atoms: N_52  and  C2_73 
REMARK       I    between atoms: N_52  and  S1_92 
REMARK       I    between atoms: C5_53  and  C6_61 
REMARK       I    between atoms: C4_56  and  O1_84 
REMARK       I    between atoms: C2_62  and  O2_91 
REMARK       I    between atoms: S_66  and  O2_105 
REMARK       I    between atoms: O3_68  and  C3_102 
REMARK       I    between atoms: N_69  and  C2_83 
REMARK       I    between atoms: C3_70  and  O3_98 
REMARK       I    between atoms: O2_72  and  S_96 
REMARK       I    between atoms: N_74  and  C2_86 
REMARK       I    between atoms: O2S_80  and  S1_92 
REMARK       I    between atoms: C5_89  and  C6_94 
REMARK       I    between atoms: C2_104  and  O2_105 
ROOT
ATOM      1  C3  IDS d 305      -5.969   0.804  53.509  0.00  0.00     0.094 C 
ATOM      2  O3S IDS d 305     -10.700   0.103  54.074  0.00  0.00    -0.572 OA
ATOM      3  C1  IDS d 305      -7.618  -0.132  51.948  0.00  0.00     0.161 C 
ATOM      4  O62 IDS d 305      -4.274  -0.758  49.886  0.00  0.00    -0.646 OA
ATOM      5  O5  IDS d 305      -6.425  -0.289  51.211  0.00  0.00    -0.340 OA
ATOM      6  O61 IDS d 305      -3.571  -2.300  51.321  0.00  0.00    -0.646 OA
ATOM      7  O1S IDS d 305      -9.839   1.160  56.036  0.00  0.00    -0.572 OA
ATOM      8  C5  IDS d 305      -5.491  -1.081  51.923  0.00  0.00     0.152 C 
ATOM      9  S   IDS d 305      -9.526   0.313  54.906  0.00  0.00     0.252 S 
ATOM     10  C6  IDS d 305      -4.366  -1.417  50.954  0.00  0.00     0.206 C 
ATOM     11  C4  IDS d 305      -4.949  -0.242  53.099  0.00  0.00     0.103 C 
ATOM     12  O3  IDS d 305      -5.739   1.168  54.831  0.00  0.00    -0.390 OA
ATOM     13  O2S IDS d 305      -9.017  -0.945  55.372  0.00  0.00    -0.572 OA
ATOM     14  C2  IDS d 305      -7.294   0.134  53.426  0.00  0.00     0.134 C 
ATOM     15  O2  IDS d 305      -8.221   1.039  53.974  0.00  0.00    -0.244 OA
ATOM     16  H   IDS d 305      -5.916   1.675  52.890  0.00  0.00     0.091 H 
ATOM     17  H   IDS d 305      -8.203   0.691  51.594  0.00  0.00     0.133 H 
ATOM     18  H   IDS d 305      -5.929  -1.979  52.307  0.00  0.00     0.104 H 
ATOM     19  H   IDS d 305      -4.753  -0.918  53.904  0.00  0.00     0.092 H 
ATOM     20  H   IDS d 305      -5.787   0.382  55.396  0.00  0.00     0.210 HD
ATOM     21  H   IDS d 305      -7.315  -0.799  53.949  0.00  0.00     0.097 H 
ATOM     22  C6  IDS d 303       3.363   2.637  52.528  0.00  0.00     0.206 C 
ATOM     23  O61 IDS d 303       3.830   3.516  51.819  0.00  0.00    -0.646 OA
ATOM     24  C5  IDS d 303       2.883   1.378  51.897  0.00  0.00     0.152 C 
ATOM     25  C1  IDS d 303       1.741  -0.637  52.365  0.00  0.00     0.161 C 
ATOM     26  O3  IDS d 303       2.178   0.027  49.450  0.00  0.00    -0.390 OA
ATOM     27  O2S IDS d 303       3.021  -4.236  50.776  0.00  0.00    -0.572 OA
ATOM     28  O5  IDS d 303       2.481   0.458  52.919  0.00  0.00    -0.340 OA
ATOM     29  C3  IDS d 303       3.189  -0.441  50.276  0.00  0.00     0.094 C 
ATOM     30  S   IDS d 303       3.080  -3.721  52.092  0.00  0.00     0.252 S 
ATOM     31  C4  IDS d 303       3.914   0.719  50.991  0.00  0.00     0.103 C 
ATOM     32  O1S IDS d 303       4.075  -4.342  52.874  0.00  0.00    -0.572 OA
ATOM     33  C2  IDS d 303       2.572  -1.349  51.297  0.00  0.00     0.134 C 
ATOM     34  O3S IDS d 303       1.782  -3.908  52.626  0.00  0.00    -0.572 OA
ATOM     35  O2  IDS d 303       3.534  -2.082  51.911  0.00  0.00    -0.244 OA
ATOM     36  O62 IDS d 303       3.072   2.794  53.695  0.00  0.00    -0.646 OA
ATOM     37  H   IDS d 303       2.056   1.641  51.272  0.00  0.00     0.104 H 
ATOM     38  H   IDS d 303       1.540  -1.327  53.157  0.00  0.00     0.133 H 
ATOM     39  H   IDS d 303       1.742  -0.723  49.016  0.00  0.00     0.210 HD
ATOM     40  H   IDS d 303       3.913  -0.961  49.684  0.00  0.00     0.091 H 
ATOM     41  H   IDS d 303       4.336   1.383  50.266  0.00  0.00     0.092 H 
ATOM     42  H   IDS d 303       1.897  -1.970  50.747  0.00  0.00     0.097 H 
ATOM     43  C6  SGN d 306     -10.398   0.382  50.877  0.00  0.00     0.067 C 
ATOM     44  S1  SGN d 306      -9.778  -5.358  47.080  0.00  0.00     0.156 S 
ATOM     45  C5  SGN d 306     -10.351  -1.117  50.634  0.00  0.00     0.091 C 
ATOM     46  C3  SGN d 306      -8.790  -3.003  50.144  0.00  0.00     0.083 C 
ATOM     47  C1  SGN d 306     -11.047  -2.782  49.028  0.00  0.00     0.147 C 
ATOM     48  O1S SGN d 306      -9.822  -6.794  47.190  0.00  0.00    -0.296 OA
ATOM     49  O6  SGN d 306      -9.442   1.019  50.033  0.00  0.00    -0.254 OA
ATOM     50  S2  SGN d 306      -9.566   2.756  49.712  0.00  0.00     0.251 S 
ATOM     51  O4S SGN d 306      -8.618   3.486  50.506  0.00  0.00    -0.572 OA
ATOM     52  O1  SGN d 306     -11.708  -3.571  50.007  0.00  0.00    -0.369 OA
ATOM     53  O4  SGN d 306      -8.300  -1.361  51.817  0.00  0.00    -0.348 OA
ATOM     54  C4  SGN d 306      -8.894  -1.537  50.533  0.00  0.00     0.095 C 
ATOM     55  N   SGN d 306      -9.643  -4.697  48.707  0.00  0.00    -0.210 NA
ATOM     56  O2S SGN d 306      -8.616  -4.950  46.344  0.00  0.00    -0.296 OA
ATOM     57  O5  SGN d 306     -11.035  -1.408  49.393  0.00  0.00    -0.350 OA
ATOM     58  O6S SGN d 306      -9.272   2.964  48.319  0.00  0.00    -0.572 OA
ATOM     59  C2  SGN d 306      -9.605  -3.259  48.881  0.00  0.00     0.081 C 
ATOM     60  O3S SGN d 306     -10.979  -4.882  46.445  0.00  0.00    -0.296 OA
ATOM     61  O5S SGN d 306     -10.916   3.181  49.989  0.00  0.00    -0.572 OA
ATOM     62  O3  SGN d 306      -7.436  -3.251  49.787  0.00  0.00    -0.391 OA
ATOM     63  H   SGN d 306     -10.166   0.587  51.901  0.00  0.00     0.080 H 
ATOM     64  H   SGN d 306     -11.378   0.753  50.659  0.00  0.00     0.080 H 
ATOM     65  H   SGN d 306     -10.826  -1.648  51.432  0.00  0.00     0.090 H 
ATOM     66  H   SGN d 306      -9.133  -3.615  50.952  0.00  0.00     0.089 H 
ATOM     67  H   SGN d 306     -11.577  -2.889  48.105  0.00  0.00     0.131 H 
ATOM     68  H   SGN d 306      -9.011  -7.110  47.619  0.00  0.00     0.231 HD
ATOM     69  H   SGN d 306     -11.245  -3.491  50.855  0.00  0.00     0.212 HD
ATOM     70  H   SGN d 306      -8.399  -0.947  49.790  0.00  0.00     0.091 H 
ATOM     71  H   SGN d 306      -8.783  -5.069  49.111  0.00  0.00     0.140 HD
ATOM     72  H   SGN d 306      -7.819  -5.280  46.788  0.00  0.00     0.231 HD
ATOM     73  H   SGN d 306      -9.159  -2.737  48.061  0.00  0.00     0.076 H 
ATOM     74  H   SGN d 306     -11.752  -5.169  46.958  0.00  0.00     0.231 HD
ATOM     75  H   SGN d 306      -7.184  -2.669  49.053  0.00  0.00     0.210 HD
ATOM     76  C1  SGN d 302       6.278   0.631  51.562  0.00  0.00     0.150 C 
ATOM     77  O4  SGN d 302       7.411   0.220  55.534  0.00  0.00    -0.348 OA
ATOM     78  O6  SGN d 302       8.338   2.955  54.428  0.00  0.00    -0.254 OA
ATOM     79  O3S SGN d 302       6.239  -1.138  48.975  0.00  0.00    -0.296 OA
ATOM     80  S2  SGN d 302       8.950   4.556  54.404  0.00  0.00     0.251 S 
ATOM     81  O5  SGN d 302       6.662   1.782  52.316  0.00  0.00    -0.349 OA
ATOM     82  O1S SGN d 302       6.351  -3.411  49.536  0.00  0.00    -0.296 OA
ATOM     83  O6S SGN d 302       8.078   5.340  53.570  0.00  0.00    -0.572 OA
ATOM     84  N   SGN d 302       6.620  -1.706  51.453  0.00  0.00    -0.210 NA
ATOM     85  O5S SGN d 302       8.888   5.050  55.732  0.00  0.00    -0.572 OA
ATOM     86  C4  SGN d 302       7.642   0.531  54.160  0.00  0.00     0.095 C 
ATOM     87  O3  SGN d 302       8.232  -1.712  53.753  0.00  0.00    -0.391 OA
ATOM     88  C2  SGN d 302       7.228  -0.505  51.940  0.00  0.00     0.081 C 
ATOM     89  O2S SGN d 302       8.247  -2.064  49.531  0.00  0.00    -0.296 OA
ATOM     90  O1  SGN d 302       4.942   0.219  51.843  0.00  0.00    -0.348 OA
ATOM     91  C5  SGN d 302       6.627   1.588  53.725  0.00  0.00     0.091 C 
ATOM     92  S1  SGN d 302       6.873  -2.110  49.783  0.00  0.00     0.156 S 
ATOM     93  C6  SGN d 302       6.946   2.894  54.354  0.00  0.00     0.067 C 
ATOM     94  O4S SGN d 302      10.297   4.530  53.966  0.00  0.00    -0.572 OA
ATOM     95  C3  SGN d 302       7.272  -0.730  53.437  0.00  0.00     0.083 C 
ATOM     96  H   SGN d 302       6.327   0.873  50.521  0.00  0.00     0.131 H 
ATOM     97  H   SGN d 302       5.283  -1.155  49.137  0.00  0.00     0.231 HD
ATOM     98  H   SGN d 302       5.399  -3.417  49.718  0.00  0.00     0.231 HD
ATOM     99  H   SGN d 302       5.614  -1.621  51.597  0.00  0.00     0.140 HD
ATOM    100  H   SGN d 302       8.640   0.872  53.978  0.00  0.00     0.091 H 
ATOM    101  H   SGN d 302       8.251  -1.848  54.714  0.00  0.00     0.210 HD
ATOM    102  H   SGN d 302       8.199  -0.271  51.556  0.00  0.00     0.076 H 
ATOM    103  H   SGN d 302       8.412  -2.287  48.601  0.00  0.00     0.231 HD
ATOM    104  H   SGN d 302       5.661   1.241  54.026  0.00  0.00     0.090 H 
ATOM    105  H   SGN d 302       6.570   3.697  53.755  0.00  0.00     0.080 H 
ATOM    106  H   SGN d 302       6.498   2.983  55.322  0.00  0.00     0.080 H 
ATOM    107  H   SGN d 302       6.298  -1.048  53.742  0.00  0.00     0.089 H 
ATOM    108  O2S SGN d 304      -3.723   5.367  53.101  0.00  0.00    -0.296 OA
ATOM    109  C1  SGN d 304      -2.978   0.796  53.869  0.00  0.00     0.150 C 
ATOM    110  S2  SGN d 304       0.052  -1.797  56.397  0.00  0.00     0.251 S 
ATOM    111  O4  SGN d 304       0.477  -0.236  51.860  0.00  0.00    -0.348 OA
ATOM    112  C6  SGN d 304      -0.635  -2.094  53.719  0.00  0.00     0.067 C 
ATOM    113  O4S SGN d 304       1.381  -2.289  56.205  0.00  0.00    -0.572 OA
ATOM    114  O1  SGN d 304      -3.755   0.434  52.745  0.00  0.00    -0.348 OA
ATOM    115  O5  SGN d 304      -2.180  -0.299  54.291  0.00  0.00    -0.349 OA
ATOM    116  S1  SGN d 304      -3.386   4.276  53.961  0.00  0.00     0.156 S 
ATOM    117  O5S SGN d 304      -0.464  -2.262  57.649  0.00  0.00    -0.572 OA
ATOM    118  C3  SGN d 304      -1.171   1.453  52.327  0.00  0.00     0.083 C 
ATOM    119  N   SGN d 304      -2.916   2.950  52.885  0.00  0.00    -0.210 NA
ATOM    120  O1S SGN d 304      -4.506   3.911  54.783  0.00  0.00    -0.296 OA
ATOM    121  O6  SGN d 304      -0.967  -2.408  55.074  0.00  0.00    -0.254 OA
ATOM    122  C4  SGN d 304      -0.382   0.267  52.864  0.00  0.00     0.095 C 
ATOM    123  C5  SGN d 304      -1.343  -0.825  53.271  0.00  0.00     0.091 C 
ATOM    124  C2  SGN d 304      -2.078   1.920  53.427  0.00  0.00     0.081 C 
ATOM    125  O6S SGN d 304       0.056  -0.358  56.391  0.00  0.00    -0.572 OA
ATOM    126  O3  SGN d 304      -0.323   2.523  51.970  0.00  0.00    -0.391 OA
ATOM    127  O3S SGN d 304      -2.271   4.629  54.800  0.00  0.00    -0.296 OA
ATOM    128  H   SGN d 304      -4.475   5.118  52.541  0.00  0.00     0.231 HD
ATOM    129  H   SGN d 304      -3.606   1.087  54.685  0.00  0.00     0.131 H 
ATOM    130  H   SGN d 304       0.423  -1.952  53.641  0.00  0.00     0.080 H 
ATOM    131  H   SGN d 304      -0.948  -2.903  53.093  0.00  0.00     0.080 H 
ATOM    132  H   SGN d 304      -1.710   1.149  51.454  0.00  0.00     0.089 H 
ATOM    133  H   SGN d 304      -2.422   3.360  52.092  0.00  0.00     0.140 HD
ATOM    134  H   SGN d 304      -5.258   3.673  54.219  0.00  0.00     0.231 HD
ATOM    135  H   SGN d 304       0.197   0.584  53.706  0.00  0.00     0.091 H 
ATOM    136  H   SGN d 304      -1.928  -1.119  52.424  0.00  0.00     0.090 H 
ATOM    137  H   SGN d 304      -1.494   2.264  54.255  0.00  0.00     0.076 H 
ATOM    138  H   SGN d 304       0.175   2.814  52.750  0.00  0.00     0.210 HD
ATOM    139  H   SGN d 304      -1.515   4.876  54.245  0.00  0.00     0.231 HD
ATOM    140  O1S UAP d 301       8.412   3.051  58.997  0.00  0.00    -0.572 OA
ATOM    141  C3  UAP d 301       7.664  -1.208  58.066  0.00  0.00     0.086 C 
ATOM    142  O62 UAP d 301      11.763  -1.695  55.898  0.00  0.00    -0.642 OA
ATOM    143  C2  UAP d 301       7.940   0.260  57.862  0.00  0.00     0.135 C 
ATOM    144  O61 UAP d 301      10.892  -3.396  56.899  0.00  0.00    -0.642 OA
ATOM    145  C1  UAP d 301       8.444   0.540  56.462  0.00  0.00     0.167 C 
ATOM    146  C5  UAP d 301       9.635  -1.541  56.670  0.00  0.00     0.147 C 
ATOM    147  C4  UAP d 301       8.674  -2.059  57.463  0.00  0.00    -0.034 C 
ATOM    148  O3S UAP d 301       7.709   1.565  60.699  0.00  0.00    -0.572 OA
ATOM    149  C6  UAP d 301      10.779  -2.252  56.438  0.00  0.00     0.233 C 
ATOM    150  O5  UAP d 301       9.625  -0.229  56.279  0.00  0.00    -0.311 OA
ATOM    151  O2S UAP d 301       9.986   2.216  60.473  0.00  0.00    -0.572 OA
ATOM    152  O2  UAP d 301       8.998   0.593  58.712  0.00  0.00    -0.244 OA
ATOM    153  O3  UAP d 301       6.377  -1.485  57.646  0.00  0.00    -0.389 OA
ATOM    154  S   UAP d 301       8.765   1.934  59.801  0.00  0.00     0.252 S 
ATOM    155  H   UAP d 301       7.728  -1.437  59.109  0.00  0.00     0.093 H 
ATOM    156  H   UAP d 301       7.039   0.808  58.042  0.00  0.00     0.097 H 
ATOM    157  H   UAP d 301       8.691   1.569  56.305  0.00  0.00     0.134 H 
ATOM    158  H   UAP d 301       8.657  -3.074  57.644  0.00  0.00     0.085 H 
ATOM    159  H   UAP d 301       6.295  -1.285  56.700  0.00  0.00     0.210 HD
ENDROOT
TORSDOF 50
ENDMDL
MODEL 9
REMARK VINA RESULT:      -8.8      2.075      2.579
REMARK  0 active torsions:
REMARK  status: ('A' for Active; 'I' for Inactive)
REMARK       I    between atoms: C3_1  and  O3_85 
REMARK       I    between atoms: C6_2  and  C5_22 
REMARK       I    between atoms: C6_3  and  C5_14 
REMARK       I    between atoms: C6_3  and  O6_30 
REMARK       I    between atoms: C1_4  and  O1_84 
REMARK       I    between atoms: O2S_6  and  S1_45 
REMARK       I    between atoms: C1_7  and  O1_36 
REMARK       I    between atoms: S1_10  and  N_69 
REMARK       I    between atoms: S1_10  and  O1S_27 
REMARK       I    between atoms: S1_10  and  O2S_71 
REMARK       I    between atoms: S1_10  and  O3S_88 
REMARK       I    between atoms: O4_11  and  C1_42 
REMARK       I    between atoms: O4_11  and  C4_63 
REMARK       I    between atoms: O6_12  and  C6_94 
REMARK       I    between atoms: O6_12  and  S2_28 
REMARK       I    between atoms: C1_13  and  O4_51 
REMARK       I    between atoms: S2_16  and  O6_76 
REMARK       I    between atoms: C3_18  and  O3_103 
REMARK       I    between atoms: C1_19  and  O1_37 
REMARK       I    between atoms: O4_20  and  C1_23 
REMARK       I    between atoms: O4_20  and  C4_77 
REMARK       I    between atoms: O3S_21  and  S1_92 
REMARK       I    between atoms: C3_24  and  O3_87 
REMARK       I    between atoms: O3_25  and  C3_46 
REMARK       I    between atoms: C6_29  and  C5_79 
REMARK       I    between atoms: C6_29  and  O6_76 
REMARK       I    between atoms: O6_30  and  S2_31 
REMARK       I    between atoms: O1_36  and  C4_81 
REMARK       I    between atoms: C2_38  and  O2_72 
REMARK       I    between atoms: S1_45  and  N_74 
REMARK       I    between atoms: S1_45  and  O1S_75 
REMARK       I    between atoms: S1_45  and  O3S_101 
REMARK       I    between atoms: O1S_47  and  S1_92 
REMARK       I    between atoms: S_48  and  O2_91 
REMARK       I    between atoms: C5_49  and  C6_67 
REMARK       I    between atoms: O4_51  and  C4_57 
REMARK       I    between atoms: N_52  and  C2_73 
REMARK       I    between atoms: N_52  and  S1_92 
REMARK       I    between atoms: C5_53  and  C6_61 
REMARK       I    between atoms: C4_56  and  O1_84 
REMARK       I    between atoms: C2_62  and  O2_91 
REMARK       I    between atoms: S_66  and  O2_105 
REMARK       I    between atoms: O3_68  and  C3_102 
REMARK       I    between atoms: N_69  and  C2_83 
REMARK       I    between atoms: C3_70  and  O3_98 
REMARK       I    between atoms: O2_72  and  S_96 
REMARK       I    between atoms: N_74  and  C2_86 
REMARK       I    between atoms: O2S_80  and  S1_92 
REMARK       I    between atoms: C5_89  and  C6_94 
REMARK       I    between atoms: C2_104  and  O2_105 
ROOT
ATOM      1  C3  IDS d 305      -4.398  -0.506  55.611  0.00  0.00     0.094 C 
ATOM      2  O3S IDS d 305      -9.093  -1.317  56.317  0.00  0.00    -0.572 OA
ATOM      3  C1  IDS d 305      -6.352   0.716  54.759  0.00  0.00     0.161 C 
ATOM      4  O62 IDS d 305      -3.446   2.585  52.787  0.00  0.00    -0.646 OA
ATOM      5  O5  IDS d 305      -5.299   1.402  54.117  0.00  0.00    -0.340 OA
ATOM      6  O61 IDS d 305      -3.019   0.798  51.540  0.00  0.00    -0.646 OA
ATOM      7  O1S IDS d 305      -7.838  -2.905  57.587  0.00  0.00    -0.572 OA
ATOM      8  C5  IDS d 305      -4.528   0.517  53.323  0.00  0.00     0.152 C 
ATOM      9  S   IDS d 305      -7.836  -2.042  56.426  0.00  0.00     0.252 S 
ATOM     10  C6  IDS d 305      -3.604   1.377  52.471  0.00  0.00     0.206 C 
ATOM     11  C4  IDS d 305      -3.701  -0.378  54.269  0.00  0.00     0.103 C 
ATOM     12  O3  IDS d 305      -3.975  -1.676  56.233  0.00  0.00    -0.390 OA
ATOM     13  O2S IDS d 305      -7.610  -2.823  55.244  0.00  0.00    -0.572 OA
ATOM     14  C2  IDS d 305      -5.848  -0.629  55.305  0.00  0.00     0.134 C 
ATOM     15  O2  IDS d 305      -6.478  -0.927  56.528  0.00  0.00    -0.244 OA
ATOM     16  H   IDS d 305      -4.188   0.327  56.249  0.00  0.00     0.091 H 
ATOM     17  H   IDS d 305      -6.747   1.270  55.584  0.00  0.00     0.133 H 
ATOM     18  H   IDS d 305      -5.136  -0.103  52.698  0.00  0.00     0.104 H 
ATOM     19  H   IDS d 305      -3.607  -1.333  53.797  0.00  0.00     0.092 H 
ATOM     20  H   IDS d 305      -4.165  -2.433  55.658  0.00  0.00     0.210 HD
ATOM     21  H   IDS d 305      -6.050  -1.386  54.576  0.00  0.00     0.097 H 
ATOM     22  C6  IDS d 303       4.982   1.088  54.672  0.00  0.00     0.206 C 
ATOM     23  O61 IDS d 303       5.587   2.017  55.189  0.00  0.00    -0.646 OA
ATOM     24  C5  IDS d 303       4.159   1.346  53.460  0.00  0.00     0.152 C 
ATOM     25  C1  IDS d 303       2.607   0.331  51.997  0.00  0.00     0.161 C 
ATOM     26  O3  IDS d 303       2.942   3.323  51.751  0.00  0.00    -0.390 OA
ATOM     27  O2S IDS d 303       2.836   0.905  47.905  0.00  0.00    -0.572 OA
ATOM     28  O5  IDS d 303       3.634   0.106  52.969  0.00  0.00    -0.340 OA
ATOM     29  C3  IDS d 303       3.877   2.418  51.269  0.00  0.00     0.094 C 
ATOM     30  S   IDS d 303       3.129  -0.221  48.710  0.00  0.00     0.252 S 
ATOM     31  C4  IDS d 303       4.919   2.056  52.347  0.00  0.00     0.103 C 
ATOM     32  O1S IDS d 303       4.006  -1.126  48.078  0.00  0.00    -0.572 OA
ATOM     33  C2  IDS d 303       3.147   1.179  50.845  0.00  0.00     0.134 C 
ATOM     34  O3S IDS d 303       1.875  -0.807  49.007  0.00  0.00    -0.572 OA
ATOM     35  O2  IDS d 303       3.951   0.405  50.074  0.00  0.00    -0.244 OA
ATOM     36  O62 IDS d 303       4.838   0.003  55.194  0.00  0.00    -0.646 OA
ATOM     37  H   IDS d 303       3.371   2.005  53.756  0.00  0.00     0.104 H 
ATOM     38  H   IDS d 303       2.312  -0.622  51.610  0.00  0.00     0.133 H 
ATOM     39  H   IDS d 303       2.303   3.531  51.052  0.00  0.00     0.210 HD
ATOM     40  H   IDS d 303       4.399   2.859  50.445  0.00  0.00     0.091 H 
ATOM     41  H   IDS d 303       5.426   2.941  52.671  0.00  0.00     0.092 H 
ATOM     42  H   IDS d 303       2.297   1.529  50.297  0.00  0.00     0.097 H 
ATOM     43  C6  SGN d 306      -9.004   1.840  55.675  0.00  0.00     0.067 C 
ATOM     44  S1  SGN d 306     -10.119   3.948  49.188  0.00  0.00     0.156 S 
ATOM     45  C5  SGN d 306      -9.343   1.669  54.203  0.00  0.00     0.091 C 
ATOM     46  C3  SGN d 306      -8.333   1.654  51.919  0.00  0.00     0.083 C 
ATOM     47  C1  SGN d 306     -10.555   2.751  52.416  0.00  0.00     0.147 C 
ATOM     48  O1S SGN d 306     -10.500   3.452  47.891  0.00  0.00    -0.296 OA
ATOM     49  O6  SGN d 306      -7.997   2.841  55.805  0.00  0.00    -0.254 OA
ATOM     50  S2  SGN d 306      -7.723   3.619  57.372  0.00  0.00     0.251 S 
ATOM     51  O4S SGN d 306      -6.562   3.068  58.013  0.00  0.00    -0.572 OA
ATOM     52  O1  SGN d 306     -11.303   1.585  52.103  0.00  0.00    -0.369 OA
ATOM     53  O4  SGN d 306      -7.319   0.497  53.755  0.00  0.00    -0.348 OA
ATOM     54  C4  SGN d 306      -8.045   1.676  53.412  0.00  0.00     0.095 C 
ATOM     55  N   SGN d 306      -9.690   2.564  50.190  0.00  0.00    -0.210 NA
ATOM     56  O2S SGN d 306      -8.959   4.787  49.080  0.00  0.00    -0.296 OA
ATOM     57  O5  SGN d 306     -10.180   2.773  53.788  0.00  0.00    -0.350 OA
ATOM     58  O6S SGN d 306      -7.506   5.021  57.130  0.00  0.00    -0.572 OA
ATOM     59  C2  SGN d 306      -9.290   2.787  51.564  0.00  0.00     0.081 C 
ATOM     60  O3S SGN d 306     -11.218   4.669  49.776  0.00  0.00    -0.296 OA
ATOM     61  O5S SGN d 306      -8.901   3.445  58.186  0.00  0.00    -0.572 OA
ATOM     62  O3  SGN d 306      -7.115   1.952  51.250  0.00  0.00    -0.391 OA
ATOM     63  H   SGN d 306      -8.643   0.915  56.070  0.00  0.00     0.080 H 
ATOM     64  H   SGN d 306      -9.880   2.135  56.215  0.00  0.00     0.080 H 
ATOM     65  H   SGN d 306      -9.863   0.749  54.036  0.00  0.00     0.090 H 
ATOM     66  H   SGN d 306      -8.744   0.705  51.647  0.00  0.00     0.089 H 
ATOM     67  H   SGN d 306     -11.172   3.602  52.215  0.00  0.00     0.131 H 
ATOM     68  H   SGN d 306      -9.757   2.967  47.499  0.00  0.00     0.231 HD
ATOM     69  H   SGN d 306     -10.763   0.798  52.278  0.00  0.00     0.212 HD
ATOM     70  H   SGN d 306      -7.487   2.559  53.643  0.00  0.00     0.091 H 
ATOM     71  H   SGN d 306      -8.915   2.088  49.727  0.00  0.00     0.140 HD
ATOM     72  H   SGN d 306      -8.232   4.283  48.684  0.00  0.00     0.231 HD
ATOM     73  H   SGN d 306      -8.802   3.725  51.724  0.00  0.00     0.076 H 
ATOM     74  H   SGN d 306     -11.991   4.085  49.839  0.00  0.00     0.231 HD
ATOM     75  H   SGN d 306      -6.793   2.821  51.537  0.00  0.00     0.210 HD
ATOM     76  C1  SGN d 302       7.231   1.521  51.807  0.00  0.00     0.150 C 
ATOM     77  O4  SGN d 302       8.562  -2.394  52.159  0.00  0.00    -0.348 OA
ATOM     78  O6  SGN d 302      10.028  -0.573  54.184  0.00  0.00    -0.254 OA
ATOM     79  O3S SGN d 302       6.545   3.531  49.502  0.00  0.00    -0.296 OA
ATOM     80  S2  SGN d 302      11.006  -0.106  55.512  0.00  0.00     0.251 S 
ATOM     81  O5  SGN d 302       7.945   1.115  52.976  0.00  0.00    -0.349 OA
ATOM     82  O1S SGN d 302       6.149   2.376  47.500  0.00  0.00    -0.296 OA
ATOM     83  O6S SGN d 302      10.283   0.895  56.250  0.00  0.00    -0.572 OA
ATOM     84  N   SGN d 302       6.985   0.998  49.514  0.00  0.00    -0.210 NA
ATOM     85  O5S SGN d 302      11.178  -1.251  56.330  0.00  0.00    -0.572 OA
ATOM     86  C4  SGN d 302       8.745  -0.984  52.035  0.00  0.00     0.095 C 
ATOM     87  O3  SGN d 302       8.737  -1.191  49.689  0.00  0.00    -0.391 OA
ATOM     88  C2  SGN d 302       7.905   0.866  50.603  0.00  0.00     0.081 C 
ATOM     89  O2S SGN d 302       8.307   2.778  48.267  0.00  0.00    -0.296 OA
ATOM     90  O1  SGN d 302       5.863   1.118  51.838  0.00  0.00    -0.348 OA
ATOM     91  C5  SGN d 302       7.984  -0.295  53.167  0.00  0.00     0.091 C 
ATOM     92  S1  SGN d 302       6.990   2.500  48.642  0.00  0.00     0.156 S 
ATOM     93  C6  SGN d 302       8.662  -0.541  54.464  0.00  0.00     0.067 C 
ATOM     94  O4S SGN d 302      12.264   0.331  55.029  0.00  0.00    -0.572 OA
ATOM     95  C3  SGN d 302       8.020  -0.635  50.768  0.00  0.00     0.083 C 
ATOM     96  H   SGN d 302       7.249   2.590  51.752  0.00  0.00     0.131 H 
ATOM     97  H   SGN d 302       5.630   3.355  49.772  0.00  0.00     0.231 HD
ATOM     98  H   SGN d 302       5.243   2.184  47.786  0.00  0.00     0.231 HD
ATOM     99  H   SGN d 302       6.046   0.866  49.889  0.00  0.00     0.140 HD
ATOM    100  H   SGN d 302       9.776  -0.699  52.050  0.00  0.00     0.091 H 
ATOM    101  H   SGN d 302       8.804  -2.152  49.806  0.00  0.00     0.210 HD
ATOM    102  H   SGN d 302       8.868   1.314  50.473  0.00  0.00     0.076 H 
ATOM    103  H   SGN d 302       8.334   3.614  47.778  0.00  0.00     0.231 HD
ATOM    104  H   SGN d 302       6.991  -0.695  53.170  0.00  0.00     0.090 H 
ATOM    105  H   SGN d 302       8.442   0.247  55.154  0.00  0.00     0.080 H 
ATOM    106  H   SGN d 302       8.333  -1.456  54.912  0.00  0.00     0.080 H 
ATOM    107  H   SGN d 302       7.028  -1.032  50.800  0.00  0.00     0.089 H 
ATOM    108  O2S SGN d 304      -1.156   1.161  59.180  0.00  0.00    -0.296 OA
ATOM    109  C1  SGN d 304      -1.479  -0.805  54.929  0.00  0.00     0.150 C 
ATOM    110  S2  SGN d 304       1.034  -3.892  52.389  0.00  0.00     0.251 S 
ATOM    111  O4  SGN d 304       1.440   0.905  52.564  0.00  0.00    -0.348 OA
ATOM    112  C6  SGN d 304       0.072  -1.407  51.598  0.00  0.00     0.067 C 
ATOM    113  O4S SGN d 304       2.183  -3.819  51.541  0.00  0.00    -0.572 OA
ATOM    114  O1  SGN d 304      -2.413   0.165  54.502  0.00  0.00    -0.348 OA
ATOM    115  O5  SGN d 304      -0.937  -1.496  53.814  0.00  0.00    -0.349 OA
ATOM    116  S1  SGN d 304      -1.022   0.043  58.299  0.00  0.00     0.156 S 
ATOM    117  O5S SGN d 304       0.529  -5.231  52.411  0.00  0.00    -0.572 OA
ATOM    118  C3  SGN d 304       0.296   0.886  54.680  0.00  0.00     0.083 C 
ATOM    119  N   SGN d 304      -0.980   0.727  56.666  0.00  0.00    -0.210 NA
ATOM    120  O1S SGN d 304      -2.123  -0.866  58.458  0.00  0.00    -0.296 OA
ATOM    121  O6  SGN d 304      -0.211  -2.801  51.740  0.00  0.00    -0.254 OA
ATOM    122  C4  SGN d 304       0.816   0.061  53.511  0.00  0.00     0.095 C 
ATOM    123  C5  SGN d 304      -0.343  -0.643  52.846  0.00  0.00     0.091 C 
ATOM    124  C2  SGN d 304      -0.374  -0.061  55.632  0.00  0.00     0.081 C 
ATOM    125  O6S SGN d 304       1.387  -3.496  53.728  0.00  0.00    -0.572 OA
ATOM    126  O3  SGN d 304       1.345   1.533  55.367  0.00  0.00    -0.391 OA
ATOM    127  O3S SGN d 304       0.213  -0.650  58.559  0.00  0.00    -0.296 OA
ATOM    128  H   SGN d 304      -1.990   1.620  58.996  0.00  0.00     0.231 HD
ATOM    129  H   SGN d 304      -1.947  -1.522  55.572  0.00  0.00     0.131 H 
ATOM    130  H   SGN d 304       1.122  -1.276  51.439  0.00  0.00     0.080 H 
ATOM    131  H   SGN d 304      -0.480  -1.028  50.763  0.00  0.00     0.080 H 
ATOM    132  H   SGN d 304      -0.373   1.635  54.310  0.00  0.00     0.089 H 
ATOM    133  H   SGN d 304      -0.470   1.609  56.717  0.00  0.00     0.140 HD
ATOM    134  H   SGN d 304      -2.955  -0.399  58.284  0.00  0.00     0.231 HD
ATOM    135  H   SGN d 304       1.524  -0.654  53.876  0.00  0.00     0.091 H 
ATOM    136  H   SGN d 304      -1.051   0.083  52.503  0.00  0.00     0.090 H 
ATOM    137  H   SGN d 304       0.344  -0.754  56.016  0.00  0.00     0.076 H 
ATOM    138  H   SGN d 304       1.963   0.870  55.712  0.00  0.00     0.210 HD
ATOM    139  H   SGN d 304       0.957  -0.037  58.452  0.00  0.00     0.231 HD
ATOM    140  O1S UAP d 301      10.510  -4.943  55.433  0.00  0.00    -0.572 OA
ATOM    141  C3  UAP d 301       8.675  -5.214  51.417  0.00  0.00     0.086 C 
ATOM    142  O62 UAP d 301      12.335  -3.193  49.353  0.00  0.00    -0.642 OA
ATOM    143  C2  UAP d 301       9.281  -4.615  52.662  0.00  0.00     0.135 C 
ATOM    144  O61 UAP d 301      11.166  -4.631  48.250  0.00  0.00    -0.642 OA
ATOM    145  C1  UAP d 301       9.717  -3.184  52.431  0.00  0.00     0.167 C 
ATOM    146  C5  UAP d 301      10.381  -3.928  50.241  0.00  0.00     0.147 C 
ATOM    147  C4  UAP d 301       9.394  -4.848  50.210  0.00  0.00    -0.034 C 
ATOM    148  O3S UAP d 301       9.614  -6.995  54.668  0.00  0.00    -0.572 OA
ATOM    149  C6  UAP d 301      11.294  -3.879  49.225  0.00  0.00     0.233 C 
ATOM    150  O5  UAP d 301      10.656  -3.197  51.365  0.00  0.00    -0.311 OA
ATOM    151  O2S UAP d 301      11.953  -6.564  54.632  0.00  0.00    -0.572 OA
ATOM    152  O2  UAP d 301      10.456  -5.326  52.919  0.00  0.00    -0.244 OA
ATOM    153  O3  UAP d 301       7.329  -4.906  51.380  0.00  0.00    -0.389 OA
ATOM    154  S   UAP d 301      10.648  -6.013  54.510  0.00  0.00     0.252 S 
ATOM    155  H   UAP d 301       8.770  -6.279  51.457  0.00  0.00     0.093 H 
ATOM    156  H   UAP d 301       8.558  -4.654  53.449  0.00  0.00     0.097 H 
ATOM    157  H   UAP d 301      10.192  -2.750  53.286  0.00  0.00     0.134 H 
ATOM    158  H   UAP d 301       9.147  -5.298  49.315  0.00  0.00     0.085 H 
ATOM    159  H   UAP d 301       7.218  -3.943  51.344  0.00  0.00     0.210 HD
ENDROOT
TORSDOF 50
ENDMDL
MODEL 10
REMARK VINA RESULT:      -8.6      3.954      5.210
REMARK  0 active torsions:
REMARK  status: ('A' for Active; 'I' for Inactive)
REMARK       I    between atoms: C3_1  and  O3_85 
REMARK       I    between atoms: C6_2  and  C5_22 
REMARK       I    between atoms: C6_3  and  C5_14 
REMARK       I    between atoms: C6_3  and  O6_30 
REMARK       I    between atoms: C1_4  and  O1_84 
REMARK       I    between atoms: O2S_6  and  S1_45 
REMARK       I    between atoms: C1_7  and  O1_36 
REMARK       I    between atoms: S1_10  and  N_69 
REMARK       I    between atoms: S1_10  and  O1S_27 
REMARK       I    between atoms: S1_10  and  O2S_71 
REMARK       I    between atoms: S1_10  and  O3S_88 
REMARK       I    between atoms: O4_11  and  C1_42 
REMARK       I    between atoms: O4_11  and  C4_63 
REMARK       I    between atoms: O6_12  and  C6_94 
REMARK       I    between atoms: O6_12  and  S2_28 
REMARK       I    between atoms: C1_13  and  O4_51 
REMARK       I    between atoms: S2_16  and  O6_76 
REMARK       I    between atoms: C3_18  and  O3_103 
REMARK       I    between atoms: C1_19  and  O1_37 
REMARK       I    between atoms: O4_20  and  C1_23 
REMARK       I    between atoms: O4_20  and  C4_77 
REMARK       I    between atoms: O3S_21  and  S1_92 
REMARK       I    between atoms: C3_24  and  O3_87 
REMARK       I    between atoms: O3_25  and  C3_46 
REMARK       I    between atoms: C6_29  and  C5_79 
REMARK       I    between atoms: C6_29  and  O6_76 
REMARK       I    between atoms: O6_30  and  S2_31 
REMARK       I    between atoms: O1_36  and  C4_81 
REMARK       I    between atoms: C2_38  and  O2_72 
REMARK       I    between atoms: S1_45  and  N_74 
REMARK       I    between atoms: S1_45  and  O1S_75 
REMARK       I    between atoms: S1_45  and  O3S_101 
REMARK       I    between atoms: O1S_47  and  S1_92 
REMARK       I    between atoms: S_48  and  O2_91 
REMARK       I    between atoms: C5_49  and  C6_67 
REMARK       I    between atoms: O4_51  and  C4_57 
REMARK       I    between atoms: N_52  and  C2_73 
REMARK       I    between atoms: N_52  and  S1_92 
REMARK       I    between atoms: C5_53  and  C6_61 
REMARK       I    between atoms: C4_56  and  O1_84 
REMARK       I    between atoms: C2_62  and  O2_91 
REMARK       I    between atoms: S_66  and  O2_105 
REMARK       I    between atoms: O3_68  and  C3_102 
REMARK       I    between atoms: N_69  and  C2_83 
REMARK       I    between atoms: C3_70  and  O3_98 
REMARK       I    between atoms: O2_72  and  S_96 
REMARK       I    between atoms: N_74  and  C2_86 
REMARK       I    between atoms: O2S_80  and  S1_92 
REMARK       I    between atoms: C5_89  and  C6_94 
REMARK       I    between atoms: C2_104  and  O2_105 
ROOT
ATOM      1  C3  IDS d 305      -3.691  -4.229  55.082  0.00  0.00     0.094 C 
ATOM      2  O3S IDS d 305      -8.000  -6.361  55.383  0.00  0.00    -0.572 OA
ATOM      3  C1  IDS d 305      -5.917  -3.370  54.495  0.00  0.00     0.161 C 
ATOM      4  O62 IDS d 305      -3.646  -0.384  53.171  0.00  0.00    -0.646 OA
ATOM      5  O5  IDS d 305      -5.094  -2.298  54.088  0.00  0.00    -0.340 OA
ATOM      6  O61 IDS d 305      -2.813  -1.625  51.529  0.00  0.00    -0.646 OA
ATOM      7  O1S IDS d 305      -6.343  -7.846  56.255  0.00  0.00    -0.572 OA
ATOM      8  C5  IDS d 305      -4.146  -2.725  53.125  0.00  0.00     0.152 C 
ATOM      9  S   IDS d 305      -6.597  -6.745  55.352  0.00  0.00     0.252 S 
ATOM     10  C6  IDS d 305      -3.499  -1.471  52.554  0.00  0.00     0.206 C 
ATOM     11  C4  IDS d 305      -3.091  -3.591  53.843  0.00  0.00     0.103 C 
ATOM     12  O3  IDS d 305      -2.965  -5.371  55.402  0.00  0.00    -0.390 OA
ATOM     13  O2S IDS d 305      -6.213  -7.115  54.020  0.00  0.00    -0.572 OA
ATOM     14  C2  IDS d 305      -5.070  -4.635  54.701  0.00  0.00     0.134 C 
ATOM     15  O2  IDS d 305      -5.566  -5.385  55.783  0.00  0.00    -0.244 OA
ATOM     16  H   IDS d 305      -3.682  -3.561  55.917  0.00  0.00     0.091 H 
ATOM     17  H   IDS d 305      -6.416  -3.164  55.419  0.00  0.00     0.133 H 
ATOM     18  H   IDS d 305      -4.595  -3.300  52.341  0.00  0.00     0.104 H 
ATOM     19  H   IDS d 305      -2.769  -4.337  53.148  0.00  0.00     0.092 H 
ATOM     20  H   IDS d 305      -2.972  -5.980  54.647  0.00  0.00     0.210 HD
ATOM     21  H   IDS d 305      -5.094  -5.207  53.797  0.00  0.00     0.097 H 
ATOM     22  C6  IDS d 303       4.937  -0.114  54.928  0.00  0.00     0.206 C 
ATOM     23  O61 IDS d 303       5.299   0.775  55.685  0.00  0.00    -0.646 OA
ATOM     24  C5  IDS d 303       4.040   0.226  53.791  0.00  0.00     0.152 C 
ATOM     25  C1  IDS d 303       2.755  -0.744  52.061  0.00  0.00     0.161 C 
ATOM     26  O3  IDS d 303       2.307   2.196  52.595  0.00  0.00    -0.390 OA
ATOM     27  O2S IDS d 303       2.708   0.892  48.261  0.00  0.00    -0.572 OA
ATOM     28  O5  IDS d 303       3.835  -0.940  52.983  0.00  0.00    -0.340 OA
ATOM     29  C3  IDS d 303       3.427   1.712  51.935  0.00  0.00     0.094 C 
ATOM     30  S   IDS d 303       3.303  -0.289  48.764  0.00  0.00     0.252 S 
ATOM     31  C4  IDS d 303       4.559   1.365  52.924  0.00  0.00     0.103 C 
ATOM     32  O1S IDS d 303       4.363  -0.749  47.956  0.00  0.00    -0.572 OA
ATOM     33  C2  IDS d 303       3.026   0.478  51.183  0.00  0.00     0.134 C 
ATOM     34  O3S IDS d 303       2.250  -1.230  48.855  0.00  0.00    -0.572 OA
ATOM     35  O2  IDS d 303       3.978   0.157  50.271  0.00  0.00    -0.244 OA
ATOM     36  O62 IDS d 303       5.091  -1.296  55.152  0.00  0.00    -0.646 OA
ATOM     37  H   IDS d 303       3.118   0.564  54.215  0.00  0.00     0.104 H 
ATOM     38  H   IDS d 303       2.703  -1.610  51.434  0.00  0.00     0.133 H 
ATOM     39  H   IDS d 303       1.615   2.404  51.949  0.00  0.00     0.210 HD
ATOM     40  H   IDS d 303       3.795   2.466  51.270  0.00  0.00     0.091 H 
ATOM     41  H   IDS d 303       4.833   2.237  53.480  0.00  0.00     0.092 H 
ATOM     42  H   IDS d 303       2.099   0.727  50.711  0.00  0.00     0.097 H 
ATOM     43  C6  SGN d 306      -8.740  -3.230  55.567  0.00  0.00     0.067 C 
ATOM     44  S1  SGN d 306     -10.550   0.105  49.790  0.00  0.00     0.156 S 
ATOM     45  C5  SGN d 306      -9.067  -3.101  54.089  0.00  0.00     0.091 C 
ATOM     46  C3  SGN d 306      -8.156  -2.276  51.915  0.00  0.00     0.083 C 
ATOM     47  C1  SGN d 306     -10.569  -1.946  52.591  0.00  0.00     0.147 C 
ATOM     48  O1S SGN d 306     -10.830  -0.125  48.396  0.00  0.00    -0.296 OA
ATOM     49  O6  SGN d 306      -8.019  -2.072  55.984  0.00  0.00    -0.254 OA
ATOM     50  S2  SGN d 306      -7.906  -1.676  57.706  0.00  0.00     0.251 S 
ATOM     51  O4S SGN d 306      -6.625  -2.058  58.230  0.00  0.00    -0.572 OA
ATOM     52  O1  SGN d 306     -11.003  -3.144  51.964  0.00  0.00    -0.369 OA
ATOM     53  O4  SGN d 306      -6.826  -3.565  53.433  0.00  0.00    -0.348 OA
ATOM     54  C4  SGN d 306      -7.839  -2.562  53.374  0.00  0.00     0.095 C 
ATOM     55  N   SGN d 306      -9.752  -1.333  50.423  0.00  0.00    -0.210 NA
ATOM     56  O2S SGN d 306      -9.647   1.210  49.942  0.00  0.00    -0.296 OA
ATOM     57  O5  SGN d 306     -10.171  -2.178  53.935  0.00  0.00    -0.350 OA
ATOM     58  O6S SGN d 306      -8.063  -0.252  57.836  0.00  0.00    -0.572 OA
ATOM     59  C2  SGN d 306      -9.381  -1.373  51.823  0.00  0.00     0.081 C 
ATOM     60  O3S SGN d 306     -11.779   0.347  50.500  0.00  0.00    -0.296 OA
ATOM     61  O5S SGN d 306      -8.976  -2.346  58.405  0.00  0.00    -0.572 OA
ATOM     62  O3  SGN d 306      -7.076  -1.517  51.389  0.00  0.00    -0.391 OA
ATOM     63  H   SGN d 306      -8.143  -4.102  55.728  0.00  0.00     0.080 H 
ATOM     64  H   SGN d 306      -9.645  -3.316  56.131  0.00  0.00     0.080 H 
ATOM     65  H   SGN d 306      -9.340  -4.050  53.674  0.00  0.00     0.090 H 
ATOM     66  H   SGN d 306      -8.319  -3.197  51.395  0.00  0.00     0.089 H 
ATOM     67  H   SGN d 306     -11.389  -1.258  52.589  0.00  0.00     0.131 H 
ATOM     68  H   SGN d 306     -10.000  -0.288  47.922  0.00  0.00     0.231 HD
ATOM     69  H   SGN d 306     -10.275  -3.785  51.954  0.00  0.00     0.212 HD
ATOM     70  H   SGN d 306      -7.518  -1.655  53.842  0.00  0.00     0.091 H 
ATOM     71  H   SGN d 306      -8.895  -1.461  49.884  0.00  0.00     0.140 HD
ATOM     72  H   SGN d 306      -8.827   1.026  49.458  0.00  0.00     0.231 HD
ATOM     73  H   SGN d 306      -9.145  -0.414  52.234  0.00  0.00     0.076 H 
ATOM     74  H   SGN d 306     -12.374  -0.411  50.385  0.00  0.00     0.231 HD
ATOM     75  H   SGN d 306      -6.977  -0.698  51.899  0.00  0.00     0.210 HD
ATOM     76  C1  SGN d 302       6.914   1.593  52.352  0.00  0.00     0.150 C 
ATOM     77  O4  SGN d 302       9.212  -1.811  51.749  0.00  0.00    -0.348 OA
ATOM     78  O6  SGN d 302      10.223  -0.254  54.222  0.00  0.00    -0.254 OA
ATOM     79  O3S SGN d 302       5.668   3.880  50.608  0.00  0.00    -0.296 OA
ATOM     80  S2  SGN d 302      11.088   0.093  55.661  0.00  0.00     0.251 S 
ATOM     81  O5  SGN d 302       7.743   1.097  53.405  0.00  0.00    -0.349 OA
ATOM     82  O1S SGN d 302       5.521   3.211  48.366  0.00  0.00    -0.296 OA
ATOM     83  O6S SGN d 302      10.156   0.654  56.601  0.00  0.00    -0.572 OA
ATOM     84  N   SGN d 302       6.741   1.626  49.994  0.00  0.00    -0.210 NA
ATOM     85  O5S SGN d 302      11.572  -1.141  56.168  0.00  0.00    -0.572 OA
ATOM     86  C4  SGN d 302       9.024  -0.417  51.993  0.00  0.00     0.095 C 
ATOM     87  O3  SGN d 302       8.999  -0.015  49.673  0.00  0.00    -0.391 OA
ATOM     88  C2  SGN d 302       7.697   1.459  51.047  0.00  0.00     0.081 C 
ATOM     89  O2S SGN d 302       7.527   3.940  49.290  0.00  0.00    -0.296 OA
ATOM     90  O1  SGN d 302       5.696   0.860  52.229  0.00  0.00    -0.348 OA
ATOM     91  C5  SGN d 302       8.146  -0.257  53.234  0.00  0.00     0.091 C 
ATOM     92  S1  SGN d 302       6.337   3.250  49.532  0.00  0.00     0.156 S 
ATOM     93  C6  SGN d 302       8.904  -0.644  54.451  0.00  0.00     0.067 C 
ATOM     94  O4S SGN d 302      12.178   0.944  55.352  0.00  0.00    -0.572 OA
ATOM     95  C3  SGN d 302       8.197   0.046  50.830  0.00  0.00     0.083 C 
ATOM     96  H   SGN d 302       6.657   2.608  52.570  0.00  0.00     0.131 H 
ATOM     97  H   SGN d 302       4.838   3.414  50.791  0.00  0.00     0.231 HD
ATOM     98  H   SGN d 302       4.703   2.728  48.560  0.00  0.00     0.231 HD
ATOM     99  H   SGN d 302       5.879   1.168  50.288  0.00  0.00     0.140 HD
ATOM    100  H   SGN d 302       9.949   0.107  52.118  0.00  0.00     0.091 H 
ATOM    101  H   SGN d 302       9.313  -0.924  49.545  0.00  0.00     0.210 HD
ATOM    102  H   SGN d 302       8.509   2.155  51.071  0.00  0.00     0.076 H 
ATOM    103  H   SGN d 302       7.325   4.852  49.030  0.00  0.00     0.231 HD
ATOM    104  H   SGN d 302       7.289  -0.883  53.098  0.00  0.00     0.090 H 
ATOM    105  H   SGN d 302       8.510  -0.140  55.309  0.00  0.00     0.080 H 
ATOM    106  H   SGN d 302       8.832  -1.695  54.639  0.00  0.00     0.080 H 
ATOM    107  H   SGN d 302       7.340  -0.585  50.724  0.00  0.00     0.089 H 
ATOM    108  O2S SGN d 304      -0.878  -2.757  59.075  0.00  0.00    -0.296 OA
ATOM    109  C1  SGN d 304      -0.814  -3.591  54.456  0.00  0.00     0.150 C 
ATOM    110  S2  SGN d 304       2.328  -5.184  51.311  0.00  0.00     0.251 S 
ATOM    111  O4  SGN d 304       1.498  -0.651  52.711  0.00  0.00    -0.348 OA
ATOM    112  C6  SGN d 304       0.738  -2.909  51.141  0.00  0.00     0.067 C 
ATOM    113  O4S SGN d 304       3.393  -4.607  50.553  0.00  0.00    -0.572 OA
ATOM    114  O1  SGN d 304      -1.978  -2.815  54.253  0.00  0.00    -0.348 OA
ATOM    115  O5  SGN d 304      -0.148  -3.814  53.223  0.00  0.00    -0.349 OA
ATOM    116  S1  SGN d 304      -0.489  -3.542  57.945  0.00  0.00     0.156 S 
ATOM    117  O5S SGN d 304       2.183  -6.568  50.974  0.00  0.00    -0.572 OA
ATOM    118  C3  SGN d 304       0.461  -1.498  54.710  0.00  0.00     0.083 C 
ATOM    119  N   SGN d 304      -0.673  -2.477  56.541  0.00  0.00    -0.210 NA
ATOM    120  O1S SGN d 304      -1.316  -4.710  57.827  0.00  0.00    -0.296 OA
ATOM    121  O6  SGN d 304       0.826  -4.318  50.914  0.00  0.00    -0.254 OA
ATOM    122  C4  SGN d 304       1.139  -1.838  53.390  0.00  0.00     0.095 C 
ATOM    123  C5  SGN d 304       0.179  -2.620  52.526  0.00  0.00     0.091 C 
ATOM    124  C2  SGN d 304       0.083  -2.794  55.365  0.00  0.00     0.081 C 
ATOM    125  O6S SGN d 304       2.607  -5.066  52.719  0.00  0.00    -0.572 OA
ATOM    126  O3  SGN d 304       1.329  -0.802  55.577  0.00  0.00    -0.391 OA
ATOM    127  O3S SGN d 304       0.890  -3.940  58.066  0.00  0.00    -0.296 OA
ATOM    128  H   SGN d 304      -1.807  -2.495  58.983  0.00  0.00     0.231 HD
ATOM    129  H   SGN d 304      -1.064  -4.543  54.877  0.00  0.00     0.131 H 
ATOM    130  H   SGN d 304       1.715  -2.479  51.059  0.00  0.00     0.080 H 
ATOM    131  H   SGN d 304       0.083  -2.484  50.409  0.00  0.00     0.080 H 
ATOM    132  H   SGN d 304      -0.388  -0.875  54.517  0.00  0.00     0.089 H 
ATOM    133  H   SGN d 304      -0.404  -1.538  56.833  0.00  0.00     0.140 HD
ATOM    134  H   SGN d 304      -2.244  -4.443  57.746  0.00  0.00     0.231 HD
ATOM    135  H   SGN d 304       2.017  -2.417  53.587  0.00  0.00     0.091 H 
ATOM    136  H   SGN d 304      -0.701  -2.036  52.352  0.00  0.00     0.090 H 
ATOM    137  H   SGN d 304       0.966  -3.356  55.587  0.00  0.00     0.076 H 
ATOM    138  H   SGN d 304       2.107  -1.351  55.765  0.00  0.00     0.210 HD
ATOM    139  H   SGN d 304       1.448  -3.151  58.146  0.00  0.00     0.231 HD
ATOM    140  O1S UAP d 301      11.843  -4.526  54.339  0.00  0.00    -0.572 OA
ATOM    141  C3  UAP d 301      10.020  -4.223  50.321  0.00  0.00     0.086 C 
ATOM    142  O62 UAP d 301      12.977  -0.881  48.975  0.00  0.00    -0.642 OA
ATOM    143  C2  UAP d 301      10.489  -3.828  51.698  0.00  0.00     0.135 C 
ATOM    144  O61 UAP d 301      12.183  -2.239  47.500  0.00  0.00    -0.642 OA
ATOM    145  C1  UAP d 301      10.538  -2.322  51.855  0.00  0.00     0.167 C 
ATOM    146  C5  UAP d 301      11.305  -2.290  49.574  0.00  0.00     0.147 C 
ATOM    147  C4  UAP d 301      10.585  -3.392  49.274  0.00  0.00    -0.034 C 
ATOM    148  O3S UAP d 301      11.480  -6.474  53.046  0.00  0.00    -0.572 OA
ATOM    149  C6  UAP d 301      12.144  -1.753  48.638  0.00  0.00     0.233 C 
ATOM    150  O5  UAP d 301      11.417  -1.824  50.856  0.00  0.00    -0.311 OA
ATOM    151  O2S UAP d 301      13.629  -5.467  53.208  0.00  0.00    -0.572 OA
ATOM    152  O2  UAP d 301      11.814  -4.257  51.811  0.00  0.00    -0.244 OA
ATOM    153  O3  UAP d 301       8.639  -4.270  50.313  0.00  0.00    -0.389 OA
ATOM    154  S   UAP d 301      12.223  -5.254  53.181  0.00  0.00     0.252 S 
ATOM    155  H   UAP d 301      10.385  -5.203  50.092  0.00  0.00     0.093 H 
ATOM    156  H   UAP d 301       9.824  -4.249  52.423  0.00  0.00     0.097 H 
ATOM    157  H   UAP d 301      10.911  -2.014  52.809  0.00  0.00     0.134 H 
ATOM    158  H   UAP d 301      10.434  -3.647  48.285  0.00  0.00     0.085 H 
ATOM    159  H   UAP d 301       8.285  -3.390  50.518  0.00  0.00     0.210 HD
ENDROOT
TORSDOF 50
ENDMDL
MODEL 11
REMARK VINA RESULT:      -8.5      4.004      5.581
REMARK  0 active torsions:
REMARK  status: ('A' for Active; 'I' for Inactive)
REMARK       I    between atoms: C3_1  and  O3_85 
REMARK       I    between atoms: C6_2  and  C5_22 
REMARK       I    between atoms: C6_3  and  C5_14 
REMARK       I    between atoms: C6_3  and  O6_30 
REMARK       I    between atoms: C1_4  and  O1_84 
REMARK       I    between atoms: O2S_6  and  S1_45 
REMARK       I    between atoms: C1_7  and  O1_36 
REMARK       I    between atoms: S1_10  and  N_69 
REMARK       I    between atoms: S1_10  and  O1S_27 
REMARK       I    between atoms: S1_10  and  O2S_71 
REMARK       I    between atoms: S1_10  and  O3S_88 
REMARK       I    between atoms: O4_11  and  C1_42 
REMARK       I    between atoms: O4_11  and  C4_63 
REMARK       I    between atoms: O6_12  and  C6_94 
REMARK       I    between atoms: O6_12  and  S2_28 
REMARK       I    between atoms: C1_13  and  O4_51 
REMARK       I    between atoms: S2_16  and  O6_76 
REMARK       I    between atoms: C3_18  and  O3_103 
REMARK       I    between atoms: C1_19  and  O1_37 
REMARK       I    between atoms: O4_20  and  C1_23 
REMARK       I    between atoms: O4_20  and  C4_77 
REMARK       I    between atoms: O3S_21  and  S1_92 
REMARK       I    between atoms: C3_24  and  O3_87 
REMARK       I    between atoms: O3_25  and  C3_46 
REMARK       I    between atoms: C6_29  and  C5_79 
REMARK       I    between atoms: C6_29  and  O6_76 
REMARK       I    between atoms: O6_30  and  S2_31 
REMARK       I    between atoms: O1_36  and  C4_81 
REMARK       I    between atoms: C2_38  and  O2_72 
REMARK       I    between atoms: S1_45  and  N_74 
REMARK       I    between atoms: S1_45  and  O1S_75 
REMARK       I    between atoms: S1_45  and  O3S_101 
REMARK       I    between atoms: O1S_47  and  S1_92 
REMARK       I    between atoms: S_48  and  O2_91 
REMARK       I    between atoms: C5_49  and  C6_67 
REMARK       I    between atoms: O4_51  and  C4_57 
REMARK       I    between atoms: N_52  and  C2_73 
REMARK       I    between atoms: N_52  and  S1_92 
REMARK       I    between atoms: C5_53  and  C6_61 
REMARK       I    between atoms: C4_56  and  O1_84 
REMARK       I    between atoms: C2_62  and  O2_91 
REMARK       I    between atoms: S_66  and  O2_105 
REMARK       I    between atoms: O3_68  and  C3_102 
REMARK       I    between atoms: N_69  and  C2_83 
REMARK       I    between atoms: C3_70  and  O3_98 
REMARK       I    between atoms: O2_72  and  S_96 
REMARK       I    between atoms: N_74  and  C2_86 
REMARK       I    between atoms: O2S_80  and  S1_92 
REMARK       I    between atoms: C5_89  and  C6_94 
REMARK       I    between atoms: C2_104  and  O2_105 
ROOT
ATOM      1  C3  IDS d 305      -3.364   0.207  54.318  0.00  0.00     0.094 C 
ATOM      2  O3S IDS d 305      -7.614  -1.390  55.925  0.00  0.00    -0.572 OA
ATOM      3  C1  IDS d 305      -5.127  -1.032  53.139  0.00  0.00     0.161 C 
ATOM      4  O62 IDS d 305      -2.302  -1.006  50.338  0.00  0.00    -0.646 OA
ATOM      5  O5  IDS d 305      -4.132  -0.957  52.141  0.00  0.00    -0.340 OA
ATOM      6  O61 IDS d 305      -1.006  -2.381  51.504  0.00  0.00    -0.646 OA
ATOM      7  O1S IDS d 305      -6.531  -0.184  57.680  0.00  0.00    -0.572 OA
ATOM      8  C5  IDS d 305      -2.925  -1.554  52.584  0.00  0.00     0.152 C 
ATOM      9  S   IDS d 305      -6.338  -0.957  56.473  0.00  0.00     0.252 S 
ATOM     10  C6  IDS d 305      -2.016  -1.669  51.369  0.00  0.00     0.206 C 
ATOM     11  C4  IDS d 305      -2.291  -0.624  53.639  0.00  0.00     0.103 C 
ATOM     12  O3  IDS d 305      -2.903   0.611  55.567  0.00  0.00    -0.390 OA
ATOM     13  O2S IDS d 305      -5.508  -2.092  56.754  0.00  0.00    -0.572 OA
ATOM     14  C2  IDS d 305      -4.522  -0.705  54.512  0.00  0.00     0.134 C 
ATOM     15  O2  IDS d 305      -5.447   0.005  55.298  0.00  0.00    -0.244 OA
ATOM     16  H   IDS d 305      -3.621   1.071  53.742  0.00  0.00     0.091 H 
ATOM     17  H   IDS d 305      -5.922  -0.337  52.965  0.00  0.00     0.133 H 
ATOM     18  H   IDS d 305      -3.086  -2.519  53.019  0.00  0.00     0.104 H 
ATOM     19  H   IDS d 305      -1.788  -1.249  54.348  0.00  0.00     0.092 H 
ATOM     20  H   IDS d 305      -2.669  -0.170  56.092  0.00  0.00     0.210 HD
ATOM     21  H   IDS d 305      -4.245  -1.624  54.985  0.00  0.00     0.097 H 
ATOM     22  C6  IDS d 303       4.966   3.798  51.299  0.00  0.00     0.206 C 
ATOM     23  O61 IDS d 303       5.081   4.750  50.540  0.00  0.00    -0.646 OA
ATOM     24  C5  IDS d 303       4.597   2.469  50.741  0.00  0.00     0.152 C 
ATOM     25  C1  IDS d 303       3.994   0.273  51.371  0.00  0.00     0.161 C 
ATOM     26  O3  IDS d 303       3.604   1.004  48.465  0.00  0.00    -0.390 OA
ATOM     27  O2S IDS d 303       5.518  -3.015  49.375  0.00  0.00    -0.572 OA
ATOM     28  O5  IDS d 303       4.625   1.491  51.787  0.00  0.00    -0.340 OA
ATOM     29  C3  IDS d 303       4.850   0.741  49.015  0.00  0.00     0.094 C 
ATOM     30  S   IDS d 303       5.785  -2.496  50.664  0.00  0.00     0.252 S 
ATOM     31  C4  IDS d 303       5.492   2.019  49.594  0.00  0.00     0.103 C 
ATOM     32  O1S IDS d 303       7.034  -2.913  51.168  0.00  0.00    -0.572 OA
ATOM     33  C2  IDS d 303       4.670  -0.267  50.110  0.00  0.00     0.134 C 
ATOM     34  O3S IDS d 303       4.707  -2.928  51.473  0.00  0.00    -0.572 OA
ATOM     35  O2  IDS d 303       5.869  -0.801  50.455  0.00  0.00    -0.244 OA
ATOM     36  O62 IDS d 303       4.933   3.898  52.507  0.00  0.00    -0.646 OA
ATOM     37  H   IDS d 303       3.612   2.568  50.335  0.00  0.00     0.104 H 
ATOM     38  H   IDS d 303       4.117  -0.441  52.157  0.00  0.00     0.133 H 
ATOM     39  H   IDS d 303       3.227   0.184  48.110  0.00  0.00     0.210 HD
ATOM     40  H   IDS d 303       5.500   0.368  48.251  0.00  0.00     0.091 H 
ATOM     41  H   IDS d 303       5.600   2.751  48.821  0.00  0.00     0.092 H 
ATOM     42  H   IDS d 303       4.014  -1.008  49.704  0.00  0.00     0.097 H 
ATOM     43  C6  SGN d 306      -8.126  -1.063  52.759  0.00  0.00     0.067 C 
ATOM     44  S1  SGN d 306      -7.347  -6.583  48.675  0.00  0.00     0.156 S 
ATOM     45  C5  SGN d 306      -7.857  -2.525  52.447  0.00  0.00     0.091 C 
ATOM     46  C3  SGN d 306      -6.129  -4.077  51.529  0.00  0.00     0.083 C 
ATOM     47  C1  SGN d 306      -8.585  -4.296  50.973  0.00  0.00     0.147 C 
ATOM     48  O1S SGN d 306      -7.095  -8.000  48.730  0.00  0.00    -0.296 OA
ATOM     49  O6  SGN d 306      -7.531  -0.255  51.746  0.00  0.00    -0.254 OA
ATOM     50  S2  SGN d 306      -8.050   1.425  51.538  0.00  0.00     0.251 S 
ATOM     51  O4S SGN d 306      -7.096   2.324  52.124  0.00  0.00    -0.572 OA
ATOM     52  O1  SGN d 306      -8.839  -5.196  52.042  0.00  0.00    -0.369 OA
ATOM     53  O4  SGN d 306      -5.577  -2.369  53.115  0.00  0.00    -0.348 OA
ATOM     54  C4  SGN d 306      -6.412  -2.657  51.995  0.00  0.00     0.095 C 
ATOM     55  N   SGN d 306      -6.962  -5.905  50.255  0.00  0.00    -0.210 NA
ATOM     56  O2S SGN d 306      -6.487  -5.961  47.710  0.00  0.00    -0.296 OA
ATOM     57  O5  SGN d 306      -8.746  -2.944  51.385  0.00  0.00    -0.350 OA
ATOM     58  O6S SGN d 306      -8.134   1.683  50.125  0.00  0.00    -0.572 OA
ATOM     59  C2  SGN d 306      -7.154  -4.487  50.477  0.00  0.00     0.081 C 
ATOM     60  O3S SGN d 306      -8.731  -6.348  48.354  0.00  0.00    -0.296 OA
ATOM     61  O5S SGN d 306      -9.352   1.583  52.137  0.00  0.00    -0.572 OA
ATOM     62  O3  SGN d 306      -4.875  -4.060  50.861  0.00  0.00    -0.391 OA
ATOM     63  H   SGN d 306      -7.704  -0.816  53.710  0.00  0.00     0.080 H 
ATOM     64  H   SGN d 306      -9.182  -0.888  52.788  0.00  0.00     0.080 H 
ATOM     65  H   SGN d 306      -8.024  -3.137  53.309  0.00  0.00     0.090 H 
ATOM     66  H   SGN d 306      -6.152  -4.742  52.367  0.00  0.00     0.089 H 
ATOM     67  H   SGN d 306      -9.287  -4.504  50.193  0.00  0.00     0.131 H 
ATOM     68  H   SGN d 306      -6.161  -8.154  48.946  0.00  0.00     0.231 HD
ATOM     69  H   SGN d 306      -8.213  -5.027  52.763  0.00  0.00     0.212 HD
ATOM     70  H   SGN d 306      -6.224  -1.985  51.185  0.00  0.00     0.091 H 
ATOM     71  H   SGN d 306      -5.978  -6.105  50.434  0.00  0.00     0.140 HD
ATOM     72  H   SGN d 306      -5.562  -6.130  47.944  0.00  0.00     0.231 HD
ATOM     73  H   SGN d 306      -7.018  -3.891  49.600  0.00  0.00     0.076 H 
ATOM     74  H   SGN d 306      -9.294  -6.777  49.018  0.00  0.00     0.231 HD
ATOM     75  H   SGN d 306      -4.915  -3.442  50.114  0.00  0.00     0.210 HD
ATOM     76  C1  SGN d 302       7.897   2.388  49.602  0.00  0.00     0.150 C 
ATOM     77  O4  SGN d 302       9.984   2.210  53.186  0.00  0.00    -0.348 OA
ATOM     78  O6  SGN d 302      10.098   5.070  52.017  0.00  0.00    -0.254 OA
ATOM     79  O3S SGN d 302       7.586   0.642  47.019  0.00  0.00    -0.296 OA
ATOM     80  S2  SGN d 302      10.376   6.759  51.922  0.00  0.00     0.251 S 
ATOM     81  O5  SGN d 302       8.224   3.594  50.297  0.00  0.00    -0.349 OA
ATOM     82  O1S SGN d 302       8.250  -1.568  47.440  0.00  0.00    -0.296 OA
ATOM     83  O6S SGN d 302       9.202   7.359  51.346  0.00  0.00    -0.572 OA
ATOM     84  N   SGN d 302       8.636   0.160  49.316  0.00  0.00    -0.210 NA
ATOM     85  O5S SGN d 302      10.535   7.234  53.249  0.00  0.00    -0.572 OA
ATOM     86  C4  SGN d 302       9.825   2.557  51.810  0.00  0.00     0.095 C 
ATOM     87  O3  SGN d 302      10.713   0.469  51.182  0.00  0.00    -0.391 OA
ATOM     88  C2  SGN d 302       9.104   1.457  49.702  0.00  0.00     0.081 C 
ATOM     89  O2S SGN d 302       9.805   0.119  47.058  0.00  0.00    -0.296 OA
ATOM     90  O1  SGN d 302       6.765   1.728  50.164  0.00  0.00    -0.348 OA
ATOM     91  C5  SGN d 302       8.557   3.399  51.667  0.00  0.00     0.091 C 
ATOM     92  S1  SGN d 302       8.562  -0.189  47.617  0.00  0.00     0.156 S 
ATOM     93  C6  SGN d 302       8.764   4.742  52.262  0.00  0.00     0.067 C 
ATOM     94  O4S SGN d 302      11.564   6.992  51.185  0.00  0.00    -0.572 OA
ATOM     95  C3  SGN d 302       9.539   1.247  51.137  0.00  0.00     0.083 C 
ATOM     96  H   SGN d 302       7.655   2.634  48.590  0.00  0.00     0.131 H 
ATOM     97  H   SGN d 302       6.715   0.440  47.395  0.00  0.00     0.231 HD
ATOM     98  H   SGN d 302       7.385  -1.756  47.836  0.00  0.00     0.231 HD
ATOM     99  H   SGN d 302       7.694   0.051  49.691  0.00  0.00     0.140 HD
ATOM    100  H   SGN d 302      10.670   3.083  51.419  0.00  0.00     0.091 H 
ATOM    101  H   SGN d 302      10.981   0.341  52.105  0.00  0.00     0.210 HD
ATOM    102  H   SGN d 302       9.897   1.873  49.116  0.00  0.00     0.076 H 
ATOM    103  H   SGN d 302       9.787  -0.069  46.107  0.00  0.00     0.231 HD
ATOM    104  H   SGN d 302       7.771   2.873  52.167  0.00  0.00     0.090 H 
ATOM    105  H   SGN d 302       8.114   5.457  51.801  0.00  0.00     0.080 H 
ATOM    106  H   SGN d 302       8.547   4.745  53.310  0.00  0.00     0.080 H 
ATOM    107  H   SGN d 302       8.741   0.748  51.644  0.00  0.00     0.089 H 
ATOM    108  O2S SGN d 304      -2.171   5.116  53.604  0.00  0.00    -0.296 OA
ATOM    109  C1  SGN d 304      -0.424   0.775  53.980  0.00  0.00     0.150 C 
ATOM    110  S2  SGN d 304       3.543  -1.184  55.629  0.00  0.00     0.251 S 
ATOM    111  O4  SGN d 304       2.595   0.423  51.188  0.00  0.00    -0.348 OA
ATOM    112  C6  SGN d 304       2.317  -1.611  53.170  0.00  0.00     0.067 C 
ATOM    113  O4S SGN d 304       4.858  -1.411  55.115  0.00  0.00    -0.572 OA
ATOM    114  O1  SGN d 304      -1.361   0.268  53.051  0.00  0.00    -0.348 OA
ATOM    115  O5  SGN d 304       0.641  -0.146  54.160  0.00  0.00    -0.349 OA
ATOM    116  S1  SGN d 304      -1.444   4.111  54.315  0.00  0.00     0.156 S 
ATOM    117  O5S SGN d 304       3.431  -1.737  56.944  0.00  0.00    -0.572 OA
ATOM    118  C3  SGN d 304       0.815   1.764  52.094  0.00  0.00     0.083 C 
ATOM    119  N   SGN d 304      -1.000   2.899  53.103  0.00  0.00    -0.210 NA
ATOM    120  O1S SGN d 304      -2.252   3.539  55.356  0.00  0.00    -0.296 OA
ATOM    121  O6  SGN d 304       2.376  -1.981  54.550  0.00  0.00    -0.254 OA
ATOM    122  C4  SGN d 304       1.916   0.753  52.383  0.00  0.00     0.095 C 
ATOM    123  C5  SGN d 304       1.299  -0.503  52.952  0.00  0.00     0.091 C 
ATOM    124  C2  SGN d 304       0.120   2.050  53.393  0.00  0.00     0.081 C 
ATOM    125  O6S SGN d 304       3.276   0.230  55.685  0.00  0.00    -0.572 OA
ATOM    126  O3  SGN d 304       1.341   2.977  51.599  0.00  0.00    -0.391 OA
ATOM    127  O3S SGN d 304      -0.250   4.674  54.889  0.00  0.00    -0.296 OA
ATOM    128  H   SGN d 304      -2.973   4.726  53.221  0.00  0.00     0.231 HD
ATOM    129  H   SGN d 304      -0.888   0.940  54.930  0.00  0.00     0.131 H 
ATOM    130  H   SGN d 304       3.282  -1.269  52.857  0.00  0.00     0.080 H 
ATOM    131  H   SGN d 304       2.023  -2.466  52.598  0.00  0.00     0.080 H 
ATOM    132  H   SGN d 304       0.154   1.361  51.356  0.00  0.00     0.089 H 
ATOM    133  H   SGN d 304      -0.790   3.395  52.237  0.00  0.00     0.140 HD
ATOM    134  H   SGN d 304      -3.057   3.160  54.969  0.00  0.00     0.231 HD
ATOM    135  H   SGN d 304       2.606   1.177  53.082  0.00  0.00     0.091 H 
ATOM    136  H   SGN d 304       0.598  -0.906  52.251  0.00  0.00     0.090 H 
ATOM    137  H   SGN d 304       0.806   2.501  54.078  0.00  0.00     0.076 H 
ATOM    138  H   SGN d 304       1.944   3.360  52.255  0.00  0.00     0.210 HD
ATOM    139  H   SGN d 304       0.295   5.061  54.187  0.00  0.00     0.231 HD
ATOM    140  O1S UAP d 301      11.219   5.185  56.446  0.00  0.00    -0.572 OA
ATOM    141  C3  UAP d 301      11.085   0.861  55.527  0.00  0.00     0.086 C 
ATOM    142  O62 UAP d 301      14.580   1.168  52.456  0.00  0.00    -0.642 OA
ATOM    143  C2  UAP d 301      11.026   2.354  55.329  0.00  0.00     0.135 C 
ATOM    144  O61 UAP d 301      14.302  -0.668  53.555  0.00  0.00    -0.642 OA
ATOM    145  C1  UAP d 301      11.127   2.723  53.865  0.00  0.00     0.167 C 
ATOM    146  C5  UAP d 301      12.702   0.911  53.702  0.00  0.00     0.147 C 
ATOM    147  C4  UAP d 301      12.068   0.219  54.672  0.00  0.00    -0.034 C 
ATOM    148  O3S UAP d 301      11.225   3.595  58.198  0.00  0.00    -0.572 OA
ATOM    149  C6  UAP d 301      13.872   0.432  53.183  0.00  0.00     0.233 C 
ATOM    150  O5  UAP d 301      12.355   2.196  53.382  0.00  0.00    -0.311 OA
ATOM    151  O2S UAP d 301      13.222   4.671  57.483  0.00  0.00    -0.572 OA
ATOM    152  O2  UAP d 301      12.172   2.886  55.927  0.00  0.00    -0.244 OA
ATOM    153  O3  UAP d 301       9.811   0.340  55.402  0.00  0.00    -0.389 OA
ATOM    154  S   UAP d 301      11.953   4.159  57.098  0.00  0.00     0.252 S 
ATOM    155  H   UAP d 301      11.434   0.650  56.517  0.00  0.00     0.093 H 
ATOM    156  H   UAP d 301      10.106   2.719  55.735  0.00  0.00     0.097 H 
ATOM    157  H   UAP d 301      11.133   3.781  53.700  0.00  0.00     0.134 H 
ATOM    158  H   UAP d 301      12.284  -0.781  54.808  0.00  0.00     0.085 H 
ATOM    159  H   UAP d 301       9.475   0.520  54.511  0.00  0.00     0.210 HD
ENDROOT
TORSDOF 50
ENDMDL
MODEL 12
REMARK VINA RESULT:      -8.4      2.778      5.977
REMARK  0 active torsions:
REMARK  status: ('A' for Active; 'I' for Inactive)
REMARK       I    between atoms: C3_1  and  O3_85 
REMARK       I    between atoms: C6_2  and  C5_22 
REMARK       I    between atoms: C6_3  and  C5_14 
REMARK       I    between atoms: C6_3  and  O6_30 
REMARK       I    between atoms: C1_4  and  O1_84 
REMARK       I    between atoms: O2S_6  and  S1_45 
REMARK       I    between atoms: C1_7  and  O1_36 
REMARK       I    between atoms: S1_10  and  N_69 
REMARK       I    between atoms: S1_10  and  O1S_27 
REMARK       I    between atoms: S1_10  and  O2S_71 
REMARK       I    between atoms: S1_10  and  O3S_88 
REMARK       I    between atoms: O4_11  and  C1_42 
REMARK       I    between atoms: O4_11  and  C4_63 
REMARK       I    between atoms: O6_12  and  C6_94 
REMARK       I    between atoms: O6_12  and  S2_28 
REMARK       I    between atoms: C1_13  and  O4_51 
REMARK       I    between atoms: S2_16  and  O6_76 
REMARK       I    between atoms: C3_18  and  O3_103 
REMARK       I    between atoms: C1_19  and  O1_37 
REMARK       I    between atoms: O4_20  and  C1_23 
REMARK       I    between atoms: O4_20  and  C4_77 
REMARK       I    between atoms: O3S_21  and  S1_92 
REMARK       I    between atoms: C3_24  and  O3_87 
REMARK       I    between atoms: O3_25  and  C3_46 
REMARK       I    between atoms: C6_29  and  C5_79 
REMARK       I    between atoms: C6_29  and  O6_76 
REMARK       I    between atoms: O6_30  and  S2_31 
REMARK       I    between atoms: O1_36  and  C4_81 
REMARK       I    between atoms: C2_38  and  O2_72 
REMARK       I    between atoms: S1_45  and  N_74 
REMARK       I    between atoms: S1_45  and  O1S_75 
REMARK       I    between atoms: S1_45  and  O3S_101 
REMARK       I    between atoms: O1S_47  and  S1_92 
REMARK       I    between atoms: S_48  and  O2_91 
REMARK       I    between atoms: C5_49  and  C6_67 
REMARK       I    between atoms: O4_51  and  C4_57 
REMARK       I    between atoms: N_52  and  C2_73 
REMARK       I    between atoms: N_52  and  S1_92 
REMARK       I    between atoms: C5_53  and  C6_61 
REMARK       I    between atoms: C4_56  and  O1_84 
REMARK       I    between atoms: C2_62  and  O2_91 
REMARK       I    between atoms: S_66  and  O2_105 
REMARK       I    between atoms: O3_68  and  C3_102 
REMARK       I    between atoms: N_69  and  C2_83 
REMARK       I    between atoms: C3_70  and  O3_98 
REMARK       I    between atoms: O2_72  and  S_96 
REMARK       I    between atoms: N_74  and  C2_86 
REMARK       I    between atoms: O2S_80  and  S1_92 
REMARK       I    between atoms: C5_89  and  C6_94 
REMARK       I    between atoms: C2_104  and  O2_105 
ROOT
ATOM      1  C3  IDS d 305      -3.338  -0.982  52.003  0.00  0.00     0.094 C 
ATOM      2  O3S IDS d 305      -7.903  -0.229  50.663  0.00  0.00    -0.572 OA
ATOM      3  C1  IDS d 305      -4.876   0.836  52.606  0.00  0.00     0.161 C 
ATOM      4  O62 IDS d 305      -1.531   2.158  54.308  0.00  0.00    -0.646 OA
ATOM      5  O5  IDS d 305      -3.692   1.254  53.251  0.00  0.00    -0.340 OA
ATOM      6  O61 IDS d 305      -0.576   2.544  52.340  0.00  0.00    -0.646 OA
ATOM      7  O1S IDS d 305      -7.151  -2.290  49.714  0.00  0.00    -0.572 OA
ATOM      8  C5  IDS d 305      -2.635   1.406  52.320  0.00  0.00     0.152 C 
ATOM      9  S   IDS d 305      -6.749  -0.992  50.211  0.00  0.00     0.252 S 
ATOM     10  C6  IDS d 305      -1.499   2.109  53.050  0.00  0.00     0.206 C 
ATOM     11  C4  IDS d 305      -2.189   0.000  51.868  0.00  0.00     0.103 C 
ATOM     12  O3  IDS d 305      -3.129  -2.048  51.135  0.00  0.00    -0.390 OA
ATOM     13  O2S IDS d 305      -6.052  -0.276  49.183  0.00  0.00    -0.572 OA
ATOM     14  C2  IDS d 305      -4.555  -0.247  51.566  0.00  0.00     0.134 C 
ATOM     15  O2  IDS d 305      -5.588  -1.201  51.518  0.00  0.00    -0.244 OA
ATOM     16  H   IDS d 305      -3.427  -1.354  53.002  0.00  0.00     0.091 H 
ATOM     17  H   IDS d 305      -5.582   0.421  53.295  0.00  0.00     0.133 H 
ATOM     18  H   IDS d 305      -2.929   1.973  51.461  0.00  0.00     0.104 H 
ATOM     19  H   IDS d 305      -1.876   0.082  50.848  0.00  0.00     0.092 H 
ATOM     20  H   IDS d 305      -3.048  -1.715  50.228  0.00  0.00     0.210 HD
ATOM     21  H   IDS d 305      -4.427   0.227  50.615  0.00  0.00     0.097 H 
ATOM     22  C6  IDS d 303       5.603  -2.910  54.785  0.00  0.00     0.206 C 
ATOM     23  O61 IDS d 303       5.920  -3.282  55.906  0.00  0.00    -0.646 OA
ATOM     24  C5  IDS d 303       5.294  -1.472  54.560  0.00  0.00     0.152 C 
ATOM     25  C1  IDS d 303       4.466   0.037  52.942  0.00  0.00     0.161 C 
ATOM     26  O3  IDS d 303       4.726   1.085  55.764  0.00  0.00    -0.390 OA
ATOM     27  O2S IDS d 303       6.210   3.750  52.395  0.00  0.00    -0.572 OA
ATOM     28  O5  IDS d 303       5.055  -1.250  53.165  0.00  0.00    -0.340 OA
ATOM     29  C3  IDS d 303       5.816   0.899  54.926  0.00  0.00     0.094 C 
ATOM     30  S   IDS d 303       6.227   2.581  51.598  0.00  0.00     0.252 S 
ATOM     31  C4  IDS d 303       6.384  -0.530  55.051  0.00  0.00     0.103 C 
ATOM     32  O1S IDS d 303       7.322   2.547  50.710  0.00  0.00    -0.572 OA
ATOM     33  C2  IDS d 303       5.363   1.135  53.516  0.00  0.00     0.134 C 
ATOM     34  O3S IDS d 303       4.985   2.570  50.921  0.00  0.00    -0.572 OA
ATOM     35  O2  IDS d 303       6.436   1.290  52.701  0.00  0.00    -0.244 OA
ATOM     36  O62 IDS d 303       5.324  -3.664  53.877  0.00  0.00    -0.646 OA
ATOM     37  H   IDS d 303       4.420  -1.251  55.138  0.00  0.00     0.104 H 
ATOM     38  H   IDS d 303       4.388   0.179  51.884  0.00  0.00     0.133 H 
ATOM     39  H   IDS d 303       4.392   1.990  55.663  0.00  0.00     0.210 HD
ATOM     40  H   IDS d 303       6.591   1.583  55.201  0.00  0.00     0.091 H 
ATOM     41  H   IDS d 303       6.687  -0.712  56.061  0.00  0.00     0.092 H 
ATOM     42  H   IDS d 303       4.770   2.024  53.558  0.00  0.00     0.097 H 
ATOM     43  C6  SGN d 306      -7.728   1.307  53.491  0.00  0.00     0.067 C 
ATOM     44  S1  SGN d 306      -6.387   8.086  53.518  0.00  0.00     0.156 S 
ATOM     45  C5  SGN d 306      -7.472   2.668  52.868  0.00  0.00     0.091 C 
ATOM     46  C3  SGN d 306      -5.668   4.328  52.389  0.00  0.00     0.083 C 
ATOM     47  C1  SGN d 306      -7.963   5.010  53.202  0.00  0.00     0.147 C 
ATOM     48  O1S SGN d 306      -6.221   9.206  52.628  0.00  0.00    -0.296 OA
ATOM     49  O6  SGN d 306      -6.896   1.159  54.640  0.00  0.00    -0.254 OA
ATOM     50  S2  SGN d 306      -7.278  -0.073  55.853  0.00  0.00     0.251 S 
ATOM     51  O4S SGN d 306      -6.424  -1.217  55.698  0.00  0.00    -0.572 OA
ATOM     52  O1  SGN d 306      -8.477   5.177  51.889  0.00  0.00    -0.369 OA
ATOM     53  O4  SGN d 306      -5.376   1.989  51.964  0.00  0.00    -0.348 OA
ATOM     54  C4  SGN d 306      -5.972   2.917  52.868  0.00  0.00     0.095 C 
ATOM     55  N   SGN d 306      -6.306   6.614  52.552  0.00  0.00    -0.210 NA
ATOM     56  O2S SGN d 306      -5.315   8.044  54.471  0.00  0.00    -0.296 OA
ATOM     57  O5  SGN d 306      -8.139   3.676  53.662  0.00  0.00    -0.350 OA
ATOM     58  O6S SGN d 306      -7.053   0.509  57.150  0.00  0.00    -0.572 OA
ATOM     59  C2  SGN d 306      -6.471   5.333  53.208  0.00  0.00     0.081 C 
ATOM     60  O3S SGN d 306      -7.661   8.178  54.183  0.00  0.00    -0.296 OA
ATOM     61  O5S SGN d 306      -8.667  -0.437  55.721  0.00  0.00    -0.572 OA
ATOM     62  O3  SGN d 306      -4.303   4.590  52.686  0.00  0.00    -0.391 OA
ATOM     63  H   SGN d 306      -7.501   0.539  52.782  0.00  0.00     0.080 H 
ATOM     64  H   SGN d 306      -8.757   1.227  53.776  0.00  0.00     0.080 H 
ATOM     65  H   SGN d 306      -7.844   2.705  51.865  0.00  0.00     0.090 H 
ATOM     66  H   SGN d 306      -5.898   4.411  51.347  0.00  0.00     0.089 H 
ATOM     67  H   SGN d 306      -8.496   5.672  53.852  0.00  0.00     0.131 H 
ATOM     68  H   SGN d 306      -5.362   9.140  52.182  0.00  0.00     0.231 HD
ATOM     69  H   SGN d 306      -8.008   4.585  51.280  0.00  0.00     0.212 HD
ATOM     70  H   SGN d 306      -5.587   2.799  53.860  0.00  0.00     0.091 H 
ATOM     71  H   SGN d 306      -5.391   6.603  52.101  0.00  0.00     0.140 HD
ATOM     72  H   SGN d 306      -4.468   7.981  54.004  0.00  0.00     0.231 HD
ATOM     73  H   SGN d 306      -6.126   5.320  54.220  0.00  0.00     0.076 H 
ATOM     74  H   SGN d 306      -8.370   8.205  53.521  0.00  0.00     0.231 HD
ATOM     75  H   SGN d 306      -4.157   4.499  53.641  0.00  0.00     0.210 HD
ATOM     76  C1  SGN d 302       8.751  -1.026  54.772  0.00  0.00     0.150 C 
ATOM     77  O4  SGN d 302      10.034  -3.041  51.377  0.00  0.00    -0.348 OA
ATOM     78  O6  SGN d 302      10.529  -4.760  53.900  0.00  0.00    -0.254 OA
ATOM     79  O3S SGN d 302       8.899   1.883  55.929  0.00  0.00    -0.296 OA
ATOM     80  S2  SGN d 302      10.902  -6.124  54.868  0.00  0.00     0.251 S 
ATOM     81  O5  SGN d 302       8.984  -2.435  54.826  0.00  0.00    -0.349 OA
ATOM     82  O1S SGN d 302       9.352   3.421  54.218  0.00  0.00    -0.296 OA
ATOM     83  O6S SGN d 302       9.905  -6.207  55.902  0.00  0.00    -0.572 OA
ATOM     84  N   SGN d 302       9.422   0.917  53.604  0.00  0.00    -0.210 NA
ATOM     85  O5S SGN d 302      10.805  -7.269  54.037  0.00  0.00    -0.572 OA
ATOM     86  C4  SGN d 302      10.182  -2.547  52.709  0.00  0.00     0.095 C 
ATOM     87  O3  SGN d 302      11.079  -0.540  51.865  0.00  0.00    -0.391 OA
ATOM     88  C2  SGN d 302       9.863  -0.406  53.929  0.00  0.00     0.081 C 
ATOM     89  O2S SGN d 302      11.033   2.121  55.162  0.00  0.00    -0.296 OA
ATOM     90  O1  SGN d 302       7.496  -0.706  54.175  0.00  0.00    -0.348 OA
ATOM     91  C5  SGN d 302       9.015  -3.064  53.550  0.00  0.00     0.091 C 
ATOM     92  S1  SGN d 302       9.688   2.160  54.787  0.00  0.00     0.156 S 
ATOM     93  C6  SGN d 302       9.159  -4.523  53.784  0.00  0.00     0.067 C 
ATOM     94  O4S SGN d 302      12.228  -5.997  55.354  0.00  0.00    -0.572 OA
ATOM     95  C3  SGN d 302       9.979  -1.067  52.571  0.00  0.00     0.083 C 
ATOM     96  H   SGN d 302       8.737  -0.645  55.772  0.00  0.00     0.131 H 
ATOM     97  H   SGN d 302       7.960   1.907  55.687  0.00  0.00     0.231 HD
ATOM     98  H   SGN d 302       8.415   3.423  53.967  0.00  0.00     0.231 HD
ATOM     99  H   SGN d 302       8.419   0.871  53.429  0.00  0.00     0.140 HD
ATOM    100  H   SGN d 302      11.115  -2.829  53.151  0.00  0.00     0.091 H 
ATOM    101  H   SGN d 302      11.142  -0.971  50.998  0.00  0.00     0.210 HD
ATOM    102  H   SGN d 302      10.780  -0.484  54.475  0.00  0.00     0.076 H 
ATOM    103  H   SGN d 302      11.204   2.808  55.824  0.00  0.00     0.231 HD
ATOM    104  H   SGN d 302       8.117  -2.848  53.009  0.00  0.00     0.090 H 
ATOM    105  H   SGN d 302       8.655  -4.805  54.685  0.00  0.00     0.080 H 
ATOM    106  H   SGN d 302       8.728  -5.093  52.988  0.00  0.00     0.080 H 
ATOM    107  H   SGN d 302       9.070  -0.876  52.043  0.00  0.00     0.089 H 
ATOM    108  O2S SGN d 304      -1.785  -4.731  55.095  0.00  0.00    -0.296 OA
ATOM    109  C1  SGN d 304      -0.369  -1.491  52.008  0.00  0.00     0.150 C 
ATOM    110  S2  SGN d 304       3.068  -1.100  48.793  0.00  0.00     0.251 S 
ATOM    111  O4  SGN d 304       3.145   0.124  53.451  0.00  0.00    -0.348 OA
ATOM    112  C6  SGN d 304       2.362   0.720  50.772  0.00  0.00     0.067 C 
ATOM    113  O4S SGN d 304       4.449  -0.728  48.817  0.00  0.00    -0.572 OA
ATOM    114  O1  SGN d 304      -1.115  -0.481  52.656  0.00  0.00    -0.348 OA
ATOM    115  O5  SGN d 304       0.590  -0.913  51.134  0.00  0.00    -0.349 OA
ATOM    116  S1  SGN d 304      -1.272  -4.354  53.815  0.00  0.00     0.156 S 
ATOM    117  O5S SGN d 304       2.658  -1.369  47.449  0.00  0.00    -0.572 OA
ATOM    118  C3  SGN d 304       1.283  -1.352  53.831  0.00  0.00     0.083 C 
ATOM    119  N   SGN d 304      -0.644  -2.711  54.019  0.00  0.00    -0.210 NA
ATOM    120  O1S SGN d 304      -2.305  -4.400  52.818  0.00  0.00    -0.296 OA
ATOM    121  O6  SGN d 304       2.114   0.251  49.445  0.00  0.00    -0.254 OA
ATOM    122  C4  SGN d 304       2.249  -0.763  52.811  0.00  0.00     0.095 C 
ATOM    123  C5  SGN d 304       1.466   0.005  51.773  0.00  0.00     0.091 C 
ATOM    124  C2  SGN d 304       0.347  -2.258  53.087  0.00  0.00     0.081 C 
ATOM    125  O6S SGN d 304       2.865  -2.279  49.595  0.00  0.00    -0.572 OA
ATOM    126  O3  SGN d 304       1.959  -2.118  54.805  0.00  0.00    -0.391 OA
ATOM    127  O3S SGN d 304      -0.197  -5.233  53.431  0.00  0.00    -0.296 OA
ATOM    128  H   SGN d 304      -2.508  -4.133  55.343  0.00  0.00     0.231 HD
ATOM    129  H   SGN d 304      -1.011  -2.122  51.429  0.00  0.00     0.131 H 
ATOM    130  H   SGN d 304       3.386   0.537  51.024  0.00  0.00     0.080 H 
ATOM    131  H   SGN d 304       2.152   1.768  50.811  0.00  0.00     0.080 H 
ATOM    132  H   SGN d 304       0.771  -0.555  54.329  0.00  0.00     0.089 H 
ATOM    133  H   SGN d 304      -0.235  -2.654  54.952  0.00  0.00     0.140 HD
ATOM    134  H   SGN d 304      -3.029  -3.809  53.076  0.00  0.00     0.231 HD
ATOM    135  H   SGN d 304       2.798  -1.557  52.351  0.00  0.00     0.091 H 
ATOM    136  H   SGN d 304       0.908   0.783  52.250  0.00  0.00     0.090 H 
ATOM    137  H   SGN d 304       0.898  -3.067  52.653  0.00  0.00     0.076 H 
ATOM    138  H   SGN d 304       2.430  -2.847  54.372  0.00  0.00     0.210 HD
ATOM    139  H   SGN d 304       0.501  -5.203  54.104  0.00  0.00     0.231 HD
ATOM    140  O1S UAP d 301      10.708  -7.414  50.183  0.00  0.00    -0.572 OA
ATOM    141  C3  UAP d 301      10.557  -3.318  48.520  0.00  0.00     0.086 C 
ATOM    142  O62 UAP d 301      14.625  -2.129  50.463  0.00  0.00    -0.642 OA
ATOM    143  C2  UAP d 301      10.613  -4.437  49.530  0.00  0.00     0.135 C 
ATOM    144  O61 UAP d 301      14.035  -1.205  48.605  0.00  0.00    -0.642 OA
ATOM    145  C1  UAP d 301      11.035  -3.932  50.893  0.00  0.00     0.167 C 
ATOM    146  C5  UAP d 301      12.519  -2.466  49.692  0.00  0.00     0.147 C 
ATOM    147  C4  UAP d 301      11.663  -2.387  48.651  0.00  0.00    -0.034 C 
ATOM    148  O3S UAP d 301      10.271  -7.078  47.882  0.00  0.00    -0.572 OA
ATOM    149  C6  UAP d 301      13.746  -1.872  49.608  0.00  0.00     0.233 C 
ATOM    150  O5  UAP d 301      12.309  -3.322  50.740  0.00  0.00    -0.311 OA
ATOM    151  O2S UAP d 301      12.424  -7.723  48.663  0.00  0.00    -0.572 OA
ATOM    152  O2  UAP d 301      11.635  -5.298  49.119  0.00  0.00    -0.244 OA
ATOM    153  O3  UAP d 301       9.313  -2.720  48.582  0.00  0.00    -0.389 OA
ATOM    154  S   UAP d 301      11.239  -6.987  48.938  0.00  0.00     0.252 S 
ATOM    155  H   UAP d 301      10.681  -3.724  47.537  0.00  0.00     0.093 H 
ATOM    156  H   UAP d 301       9.647  -4.894  49.592  0.00  0.00     0.097 H 
ATOM    157  H   UAP d 301      11.127  -4.714  51.618  0.00  0.00     0.134 H 
ATOM    158  H   UAP d 301      11.797  -1.654  47.938  0.00  0.00     0.085 H 
ATOM    159  H   UAP d 301       9.179  -2.345  49.467  0.00  0.00     0.210 HD
ENDROOT
TORSDOF 50
ENDMDL
MODEL 13
REMARK VINA RESULT:      -8.4      2.898      4.262
REMARK  0 active torsions:
REMARK  status: ('A' for Active; 'I' for Inactive)
REMARK       I    between atoms: C3_1  and  O3_85 
REMARK       I    between atoms: C6_2  and  C5_22 
REMARK       I    between atoms: C6_3  and  C5_14 
REMARK       I    between atoms: C6_3  and  O6_30 
REMARK       I    between atoms: C1_4  and  O1_84 
REMARK       I    between atoms: O2S_6  and  S1_45 
REMARK       I    between atoms: C1_7  and  O1_36 
REMARK       I    between atoms: S1_10  and  N_69 
REMARK       I    between atoms: S1_10  and  O1S_27 
REMARK       I    between atoms: S1_10  and  O2S_71 
REMARK       I    between atoms: S1_10  and  O3S_88 
REMARK       I    between atoms: O4_11  and  C1_42 
REMARK       I    between atoms: O4_11  and  C4_63 
REMARK       I    between atoms: O6_12  and  C6_94 
REMARK       I    between atoms: O6_12  and  S2_28 
REMARK       I    between atoms: C1_13  and  O4_51 
REMARK       I    between atoms: S2_16  and  O6_76 
REMARK       I    between atoms: C3_18  and  O3_103 
REMARK       I    between atoms: C1_19  and  O1_37 
REMARK       I    between atoms: O4_20  and  C1_23 
REMARK       I    between atoms: O4_20  and  C4_77 
REMARK       I    between atoms: O3S_21  and  S1_92 
REMARK       I    between atoms: C3_24  and  O3_87 
REMARK       I    between atoms: O3_25  and  C3_46 
REMARK       I    between atoms: C6_29  and  C5_79 
REMARK       I    between atoms: C6_29  and  O6_76 
REMARK       I    between atoms: O6_30  and  S2_31 
REMARK       I    between atoms: O1_36  and  C4_81 
REMARK       I    between atoms: C2_38  and  O2_72 
REMARK       I    between atoms: S1_45  and  N_74 
REMARK       I    between atoms: S1_45  and  O1S_75 
REMARK       I    between atoms: S1_45  and  O3S_101 
REMARK       I    between atoms: O1S_47  and  S1_92 
REMARK       I    between atoms: S_48  and  O2_91 
REMARK       I    between atoms: C5_49  and  C6_67 
REMARK       I    between atoms: O4_51  and  C4_57 
REMARK       I    between atoms: N_52  and  C2_73 
REMARK       I    between atoms: N_52  and  S1_92 
REMARK       I    between atoms: C5_53  and  C6_61 
REMARK       I    between atoms: C4_56  and  O1_84 
REMARK       I    between atoms: C2_62  and  O2_91 
REMARK       I    between atoms: S_66  and  O2_105 
REMARK       I    between atoms: O3_68  and  C3_102 
REMARK       I    between atoms: N_69  and  C2_83 
REMARK       I    between atoms: C3_70  and  O3_98 
REMARK       I    between atoms: O2_72  and  S_96 
REMARK       I    between atoms: N_74  and  C2_86 
REMARK       I    between atoms: O2S_80  and  S1_92 
REMARK       I    between atoms: C5_89  and  C6_94 
REMARK       I    between atoms: C2_104  and  O2_105 
ROOT
ATOM      1  C3  IDS d 305      -1.811   3.271  54.255  0.00  0.00     0.094 C 
ATOM      2  O3S IDS d 305      -6.054   4.889  55.861  0.00  0.00    -0.572 OA
ATOM      3  C1  IDS d 305      -4.062   2.986  53.314  0.00  0.00     0.161 C 
ATOM      4  O62 IDS d 305      -1.983   0.628  50.875  0.00  0.00    -0.646 OA
ATOM      5  O5  IDS d 305      -3.294   2.203  52.427  0.00  0.00    -0.340 OA
ATOM      6  O61 IDS d 305      -1.601  -0.852  52.485  0.00  0.00    -0.646 OA
ATOM      7  O1S IDS d 305      -4.327   5.695  57.303  0.00  0.00    -0.572 OA
ATOM      8  C5  IDS d 305      -2.606   1.178  53.122  0.00  0.00     0.152 C 
ATOM      9  S   IDS d 305      -4.715   4.652  56.378  0.00  0.00     0.252 S 
ATOM     10  C6  IDS d 305      -2.034   0.236  52.070  0.00  0.00     0.206 C 
ATOM     11  C4  IDS d 305      -1.465   1.830  53.930  0.00  0.00     0.103 C 
ATOM     12  O3  IDS d 305      -1.094   3.668  55.379  0.00  0.00    -0.390 OA
ATOM     13  O2S IDS d 305      -4.655   3.378  57.034  0.00  0.00    -0.572 OA
ATOM     14  C2  IDS d 305      -3.260   3.275  54.592  0.00  0.00     0.134 C 
ATOM     15  O2  IDS d 305      -3.544   4.568  55.066  0.00  0.00    -0.244 OA
ATOM     16  H   IDS d 305      -1.583   3.928  53.442  0.00  0.00     0.091 H 
ATOM     17  H   IDS d 305      -4.334   3.928  52.885  0.00  0.00     0.133 H 
ATOM     18  H   IDS d 305      -3.246   0.641  53.790  0.00  0.00     0.104 H 
ATOM     19  H   IDS d 305      -1.345   1.256  54.825  0.00  0.00     0.092 H 
ATOM     20  H   IDS d 305      -1.299   3.075  56.118  0.00  0.00     0.210 HD
ATOM     21  H   IDS d 305      -3.512   2.535  55.323  0.00  0.00     0.097 H 
ATOM     22  C6  IDS d 303       6.777   0.493  51.105  0.00  0.00     0.206 C 
ATOM     23  O61 IDS d 303       7.344   0.956  50.126  0.00  0.00    -0.646 OA
ATOM     24  C5  IDS d 303       5.671  -0.482  50.906  0.00  0.00     0.152 C 
ATOM     25  C1  IDS d 303       3.987  -1.669  52.063  0.00  0.00     0.161 C 
ATOM     26  O3  IDS d 303       3.825  -1.683  49.046  0.00  0.00    -0.390 OA
ATOM     27  O2S IDS d 303       3.191  -5.636  51.196  0.00  0.00    -0.572 OA
ATOM     28  O5  IDS d 303       5.231  -0.968  52.180  0.00  0.00    -0.340 OA
ATOM     29  C3  IDS d 303       4.744  -2.443  49.755  0.00  0.00     0.094 C 
ATOM     30  S   IDS d 303       3.818  -5.029  52.310  0.00  0.00     0.252 S 
ATOM     31  C4  IDS d 303       6.046  -1.656  50.012  0.00  0.00     0.103 C 
ATOM     32  O1S IDS d 303       4.648  -5.922  53.018  0.00  0.00    -0.572 OA
ATOM     33  C2  IDS d 303       4.122  -2.820  51.066  0.00  0.00     0.134 C 
ATOM     34  O3S IDS d 303       2.763  -4.528  53.109  0.00  0.00    -0.572 OA
ATOM     35  O2  IDS d 303       4.831  -3.820  51.648  0.00  0.00    -0.244 OA
ATOM     36  O62 IDS d 303       6.914   0.923  52.230  0.00  0.00    -0.646 OA
ATOM     37  H   IDS d 303       4.885   0.042  50.404  0.00  0.00     0.104 H 
ATOM     38  H   IDS d 303       3.752  -2.076  53.024  0.00  0.00     0.133 H 
ATOM     39  H   IDS d 303       3.020  -2.203  48.900  0.00  0.00     0.210 HD
ATOM     40  H   IDS d 303       4.996  -3.312  49.183  0.00  0.00     0.091 H 
ATOM     41  H   IDS d 303       6.482  -1.363  49.079  0.00  0.00     0.092 H 
ATOM     42  H   IDS d 303       3.128  -3.134  50.824  0.00  0.00     0.097 H 
ATOM     43  C6  SGN d 306      -6.569   4.559  52.696  0.00  0.00     0.067 C 
ATOM     44  S1  SGN d 306      -9.427  -1.292  50.382  0.00  0.00     0.156 S 
ATOM     45  C5  SGN d 306      -7.206   3.186  52.825  0.00  0.00     0.091 C 
ATOM     46  C3  SGN d 306      -6.754   0.748  52.528  0.00  0.00     0.083 C 
ATOM     47  C1  SGN d 306      -8.938   1.820  51.840  0.00  0.00     0.147 C 
ATOM     48  O1S SGN d 306     -10.019  -2.519  50.849  0.00  0.00    -0.296 OA
ATOM     49  O6  SGN d 306      -5.713   4.568  51.555  0.00  0.00    -0.254 OA
ATOM     50  S2  SGN d 306      -5.202   6.108  50.846  0.00  0.00     0.251 S 
ATOM     51  O4S SGN d 306      -3.859   6.426  51.242  0.00  0.00    -0.572 OA
ATOM     52  O1  SGN d 306      -9.562   1.561  53.090  0.00  0.00    -0.369 OA
ATOM     53  O4  SGN d 306      -5.192   2.198  53.622  0.00  0.00    -0.348 OA
ATOM     54  C4  SGN d 306      -6.138   2.139  52.556  0.00  0.00     0.095 C 
ATOM     55  N   SGN d 306      -8.586  -0.548  51.741  0.00  0.00    -0.210 NA
ATOM     56  O2S SGN d 306      -8.455  -1.564  49.362  0.00  0.00    -0.296 OA
ATOM     57  O5  SGN d 306      -8.265   3.073  51.846  0.00  0.00    -0.350 OA
ATOM     58  O6S SGN d 306      -5.250   5.966  49.415  0.00  0.00    -0.572 OA
ATOM     59  C2  SGN d 306      -7.919   0.722  51.545  0.00  0.00     0.081 C 
ATOM     60  O3S SGN d 306     -10.455  -0.412  49.889  0.00  0.00    -0.296 OA
ATOM     61  O5S SGN d 306      -6.125   7.136  51.261  0.00  0.00    -0.572 OA
ATOM     62  O3  SGN d 306      -5.777  -0.135  51.994  0.00  0.00    -0.391 OA
ATOM     63  H   SGN d 306      -5.997   4.774  53.574  0.00  0.00     0.080 H 
ATOM     64  H   SGN d 306      -7.330   5.303  52.583  0.00  0.00     0.080 H 
ATOM     65  H   SGN d 306      -7.613   3.045  53.804  0.00  0.00     0.090 H 
ATOM     66  H   SGN d 306      -7.076   0.478  53.512  0.00  0.00     0.089 H 
ATOM     67  H   SGN d 306      -9.699   1.841  51.090  0.00  0.00     0.131 H 
ATOM     68  H   SGN d 306      -9.323  -3.108  51.180  0.00  0.00     0.231 HD
ATOM     69  H   SGN d 306      -8.889   1.536  53.788  0.00  0.00     0.212 HD
ATOM     70  H   SGN d 306      -5.675   2.330  51.611  0.00  0.00     0.091 H 
ATOM     71  H   SGN d 306      -7.878  -1.212  52.054  0.00  0.00     0.140 HD
ATOM     72  H   SGN d 306      -7.773  -2.156  49.714  0.00  0.00     0.231 HD
ATOM     73  H   SGN d 306      -7.547   0.865  50.552  0.00  0.00     0.076 H 
ATOM     74  H   SGN d 306     -11.100  -0.242  50.593  0.00  0.00     0.231 HD
ATOM     75  H   SGN d 306      -5.525   0.161  51.104  0.00  0.00     0.210 HD
ATOM     76  C1  SGN d 302       8.225  -2.733  50.129  0.00  0.00     0.150 C 
ATOM     77  O4  SGN d 302      10.150  -3.067  53.792  0.00  0.00    -0.348 OA
ATOM     78  O6  SGN d 302      11.763  -1.236  51.891  0.00  0.00    -0.254 OA
ATOM     79  O3S SGN d 302       6.750  -4.625  48.112  0.00  0.00    -0.296 OA
ATOM     80  S2  SGN d 302      12.941  -0.110  51.358  0.00  0.00     0.251 S 
ATOM     81  O5  SGN d 302       9.239  -1.792  50.489  0.00  0.00    -0.349 OA
ATOM     82  O1S SGN d 302       6.077  -6.598  49.185  0.00  0.00    -0.296 OA
ATOM     83  O6S SGN d 302      12.270   0.862  50.538  0.00  0.00    -0.572 OA
ATOM     84  N   SGN d 302       7.540  -4.959  50.536  0.00  0.00    -0.210 NA
ATOM     85  O5S SGN d 302      13.458   0.534  52.511  0.00  0.00    -0.572 OA
ATOM     86  C4  SGN d 302      10.095  -3.087  52.365  0.00  0.00     0.095 C 
ATOM     87  O3  SGN d 302       9.581  -5.384  52.419  0.00  0.00    -0.391 OA
ATOM     88  C2  SGN d 302       8.694  -4.113  50.588  0.00  0.00     0.081 C 
ATOM     89  O2S SGN d 302       8.273  -6.279  48.489  0.00  0.00    -0.296 OA
ATOM     90  O1  SGN d 302       6.974  -2.448  50.750  0.00  0.00    -0.348 OA
ATOM     91  C5  SGN d 302       9.522  -1.754  51.883  0.00  0.00     0.091 C 
ATOM     92  S1  SGN d 302       7.130  -5.658  49.000  0.00  0.00     0.156 S 
ATOM     93  C6  SGN d 302      10.507  -0.665  52.099  0.00  0.00     0.067 C 
ATOM     94  O4S SGN d 302      13.980  -0.808  50.693  0.00  0.00    -0.572 OA
ATOM     95  C3  SGN d 302       9.058  -4.127  52.058  0.00  0.00     0.083 C 
ATOM     96  H   SGN d 302       8.077  -2.685  49.071  0.00  0.00     0.131 H 
ATOM     97  H   SGN d 302       5.956  -4.182  48.451  0.00  0.00     0.231 HD
ATOM     98  H   SGN d 302       5.297  -6.144  49.539  0.00  0.00     0.231 HD
ATOM     99  H   SGN d 302       6.740  -4.405  50.842  0.00  0.00     0.140 HD
ATOM    100  H   SGN d 302      11.051  -3.267  51.919  0.00  0.00     0.091 H 
ATOM    101  H   SGN d 302       9.810  -5.381  53.361  0.00  0.00     0.210 HD
ATOM    102  H   SGN d 302       9.527  -4.402  49.982  0.00  0.00     0.076 H 
ATOM    103  H   SGN d 302       8.067  -6.677  47.629  0.00  0.00     0.231 HD
ATOM    104  H   SGN d 302       8.624  -1.577  52.438  0.00  0.00     0.090 H 
ATOM    105  H   SGN d 302      10.340   0.131  51.404  0.00  0.00     0.080 H 
ATOM    106  H   SGN d 302      10.424  -0.250  53.082  0.00  0.00     0.080 H 
ATOM    107  H   SGN d 302       8.166  -3.920  52.611  0.00  0.00     0.089 H 
ATOM    108  O2S SGN d 304       1.888   6.203  52.319  0.00  0.00    -0.296 OA
ATOM    109  C1  SGN d 304       0.887   1.949  54.033  0.00  0.00     0.150 C 
ATOM    110  S2  SGN d 304       3.169  -1.367  56.501  0.00  0.00     0.251 S 
ATOM    111  O4  SGN d 304       2.911  -0.809  51.724  0.00  0.00    -0.348 OA
ATOM    112  C6  SGN d 304       1.705  -1.681  54.159  0.00  0.00     0.067 C 
ATOM    113  O4S SGN d 304       4.071  -2.431  56.188  0.00  0.00    -0.572 OA
ATOM    114  O1  SGN d 304      -0.250   1.831  53.201  0.00  0.00    -0.348 OA
ATOM    115  O5  SGN d 304       1.252   0.680  54.553  0.00  0.00    -0.349 OA
ATOM    116  S1  SGN d 304       1.976   5.208  53.341  0.00  0.00     0.156 S 
ATOM    117  O5S SGN d 304       2.880  -1.369  57.903  0.00  0.00    -0.572 OA
ATOM    118  C3  SGN d 304       2.296   1.492  52.064  0.00  0.00     0.083 C 
ATOM    119  N   SGN d 304       1.544   3.680  52.556  0.00  0.00    -0.210 NA
ATOM    120  O1S SGN d 304       1.082   5.510  54.425  0.00  0.00    -0.296 OA
ATOM    121  O6  SGN d 304       1.666  -1.621  55.587  0.00  0.00    -0.254 OA
ATOM    122  C4  SGN d 304       2.648   0.162  52.717  0.00  0.00     0.095 C 
ATOM    123  C5  SGN d 304       1.481  -0.304  53.554  0.00  0.00     0.091 C 
ATOM    124  C2  SGN d 304       2.004   2.467  53.166  0.00  0.00     0.081 C 
ATOM    125  O6S SGN d 304       3.758  -0.103  56.140  0.00  0.00    -0.572 OA
ATOM    126  O3  SGN d 304       3.370   1.997  51.301  0.00  0.00    -0.391 OA
ATOM    127  O3S SGN d 304       3.324   5.125  53.840  0.00  0.00    -0.296 OA
ATOM    128  H   SGN d 304       0.976   6.251  51.991  0.00  0.00     0.231 HD
ATOM    129  H   SGN d 304       0.686   2.603  54.856  0.00  0.00     0.131 H 
ATOM    130  H   SGN d 304       2.661  -2.050  53.850  0.00  0.00     0.080 H 
ATOM    131  H   SGN d 304       0.928  -2.336  53.822  0.00  0.00     0.080 H 
ATOM    132  H   SGN d 304       1.460   1.351  51.411  0.00  0.00     0.089 H 
ATOM    133  H   SGN d 304       1.920   3.707  51.608  0.00  0.00     0.140 HD
ATOM    134  H   SGN d 304       0.174   5.566  54.089  0.00  0.00     0.231 HD
ATOM    135  H   SGN d 304       3.516   0.292  53.329  0.00  0.00     0.091 H 
ATOM    136  H   SGN d 304       0.617  -0.412  52.933  0.00  0.00     0.090 H 
ATOM    137  H   SGN d 304       2.883   2.616  53.758  0.00  0.00     0.076 H 
ATOM    138  H   SGN d 304       4.140   2.133  51.876  0.00  0.00     0.210 HD
ATOM    139  H   SGN d 304       3.927   4.921  53.109  0.00  0.00     0.231 HD
ATOM    140  O1S UAP d 301      13.140  -0.560  56.197  0.00  0.00    -0.572 OA
ATOM    141  C3  UAP d 301      10.494  -4.092  56.501  0.00  0.00     0.086 C 
ATOM    142  O62 UAP d 301      13.256  -6.685  53.785  0.00  0.00    -0.642 OA
ATOM    143  C2  UAP d 301      11.276  -2.954  55.894  0.00  0.00     0.135 C 
ATOM    144  O61 UAP d 301      12.085  -7.648  55.320  0.00  0.00    -0.642 OA
ATOM    145  C1  UAP d 301      11.438  -3.130  54.399  0.00  0.00     0.167 C 
ATOM    146  C5  UAP d 301      11.683  -5.475  54.883  0.00  0.00     0.147 C 
ATOM    147  C4  UAP d 301      10.858  -5.383  55.947  0.00  0.00    -0.034 C 
ATOM    148  O3S UAP d 301      12.397  -1.313  58.313  0.00  0.00    -0.572 OA
ATOM    149  C6  UAP d 301      12.323  -6.653  54.621  0.00  0.00     0.233 C 
ATOM    150  O5  UAP d 301      12.100  -4.369  54.191  0.00  0.00    -0.311 OA
ATOM    151  O2S UAP d 301      14.579  -1.810  57.507  0.00  0.00    -0.572 OA
ATOM    152  O2  UAP d 301      12.568  -3.028  56.420  0.00  0.00    -0.244 OA
ATOM    153  O3  UAP d 301       9.145  -3.806  56.414  0.00  0.00    -0.389 OA
ATOM    154  S   UAP d 301      13.215  -1.593  57.169  0.00  0.00     0.252 S 
ATOM    155  H   UAP d 301      10.748  -4.179  57.538  0.00  0.00     0.093 H 
ATOM    156  H   UAP d 301      10.765  -2.036  56.101  0.00  0.00     0.097 H 
ATOM    157  H   UAP d 301      12.028  -2.359  53.950  0.00  0.00     0.134 H 
ATOM    158  H   UAP d 301      10.480  -6.243  56.373  0.00  0.00     0.085 H 
ATOM    159  H   UAP d 301       8.892  -3.722  55.481  0.00  0.00     0.210 HD
ENDROOT
TORSDOF 50
ENDMDL
MODEL 14
REMARK VINA RESULT:      -8.3      2.616      3.713
REMARK  0 active torsions:
REMARK  status: ('A' for Active; 'I' for Inactive)
REMARK       I    between atoms: C3_1  and  O3_85 
REMARK       I    between atoms: C6_2  and  C5_22 
REMARK       I    between atoms: C6_3  and  C5_14 
REMARK       I    between atoms: C6_3  and  O6_30 
REMARK       I    between atoms: C1_4  and  O1_84 
REMARK       I    between atoms: O2S_6  and  S1_45 
REMARK       I    between atoms: C1_7  and  O1_36 
REMARK       I    between atoms: S1_10  and  N_69 
REMARK       I    between atoms: S1_10  and  O1S_27 
REMARK       I    between atoms: S1_10  and  O2S_71 
REMARK       I    between atoms: S1_10  and  O3S_88 
REMARK       I    between atoms: O4_11  and  C1_42 
REMARK       I    between atoms: O4_11  and  C4_63 
REMARK       I    between atoms: O6_12  and  C6_94 
REMARK       I    between atoms: O6_12  and  S2_28 
REMARK       I    between atoms: C1_13  and  O4_51 
REMARK       I    between atoms: S2_16  and  O6_76 
REMARK       I    between atoms: C3_18  and  O3_103 
REMARK       I    between atoms: C1_19  and  O1_37 
REMARK       I    between atoms: O4_20  and  C1_23 
REMARK       I    between atoms: O4_20  and  C4_77 
REMARK       I    between atoms: O3S_21  and  S1_92 
REMARK       I    between atoms: C3_24  and  O3_87 
REMARK       I    between atoms: O3_25  and  C3_46 
REMARK       I    between atoms: C6_29  and  C5_79 
REMARK       I    between atoms: C6_29  and  O6_76 
REMARK       I    between atoms: O6_30  and  S2_31 
REMARK       I    between atoms: O1_36  and  C4_81 
REMARK       I    between atoms: C2_38  and  O2_72 
REMARK       I    between atoms: S1_45  and  N_74 
REMARK       I    between atoms: S1_45  and  O1S_75 
REMARK       I    between atoms: S1_45  and  O3S_101 
REMARK       I    between atoms: O1S_47  and  S1_92 
REMARK       I    between atoms: S_48  and  O2_91 
REMARK       I    between atoms: C5_49  and  C6_67 
REMARK       I    between atoms: O4_51  and  C4_57 
REMARK       I    between atoms: N_52  and  C2_73 
REMARK       I    between atoms: N_52  and  S1_92 
REMARK       I    between atoms: C5_53  and  C6_61 
REMARK       I    between atoms: C4_56  and  O1_84 
REMARK       I    between atoms: C2_62  and  O2_91 
REMARK       I    between atoms: S_66  and  O2_105 
REMARK       I    between atoms: O3_68  and  C3_102 
REMARK       I    between atoms: N_69  and  C2_83 
REMARK       I    between atoms: C3_70  and  O3_98 
REMARK       I    between atoms: O2_72  and  S_96 
REMARK       I    between atoms: N_74  and  C2_86 
REMARK       I    between atoms: O2S_80  and  S1_92 
REMARK       I    between atoms: C5_89  and  C6_94 
REMARK       I    between atoms: C2_104  and  O2_105 
ROOT
ATOM      1  C3  IDS d 305      -4.046   4.019  54.240  0.00  0.00     0.094 C 
ATOM      2  O3S IDS d 305      -8.721   4.658  55.205  0.00  0.00    -0.572 OA
ATOM      3  C1  IDS d 305      -6.017   3.559  52.848  0.00  0.00     0.161 C 
ATOM      4  O62 IDS d 305      -3.163   2.013  50.548  0.00  0.00    -0.646 OA
ATOM      5  O5  IDS d 305      -4.980   3.071  52.024  0.00  0.00    -0.340 OA
ATOM      6  O61 IDS d 305      -2.789   0.351  51.973  0.00  0.00    -0.646 OA
ATOM      7  O1S IDS d 305      -7.437   5.457  57.056  0.00  0.00    -0.572 OA
ATOM      8  C5  IDS d 305      -4.242   2.059  52.686  0.00  0.00     0.152 C 
ATOM      9  S   IDS d 305      -7.467   4.544  55.933  0.00  0.00     0.252 S 
ATOM     10  C6  IDS d 305      -3.340   1.415  51.641  0.00  0.00     0.206 C 
ATOM     11  C4  IDS d 305      -3.391   2.728  53.785  0.00  0.00     0.103 C 
ATOM     12  O3  IDS d 305      -3.612   4.320  55.527  0.00  0.00    -0.390 OA
ATOM     13  O2S IDS d 305      -7.284   3.200  56.399  0.00  0.00    -0.572 OA
ATOM     14  C2  IDS d 305      -5.506   3.741  54.285  0.00  0.00     0.134 C 
ATOM     15  O2  IDS d 305      -6.098   4.872  54.876  0.00  0.00    -0.244 OA
ATOM     16  H   IDS d 305      -3.809   4.835  53.590  0.00  0.00     0.091 H 
ATOM     17  H   IDS d 305      -6.382   4.508  52.515  0.00  0.00     0.133 H 
ATOM     18  H   IDS d 305      -4.875   1.321  53.133  0.00  0.00     0.104 H 
ATOM     19  H   IDS d 305      -3.319   2.032  54.594  0.00  0.00     0.092 H 
ATOM     20  H   IDS d 305      -3.824   3.582  56.119  0.00  0.00     0.210 HD
ATOM     21  H   IDS d 305      -5.736   2.855  54.840  0.00  0.00     0.097 H 
ATOM     22  C6  IDS d 303       5.310   3.193  52.454  0.00  0.00     0.206 C 
ATOM     23  O61 IDS d 303       5.938   3.902  51.680  0.00  0.00    -0.646 OA
ATOM     24  C5  IDS d 303       4.451   2.109  51.906  0.00  0.00     0.152 C 
ATOM     25  C1  IDS d 303       2.844   0.493  52.531  0.00  0.00     0.161 C 
ATOM     26  O3  IDS d 303       3.193   0.980  49.570  0.00  0.00    -0.390 OA
ATOM     27  O2S IDS d 303       2.946  -3.336  50.967  0.00  0.00    -0.572 OA
ATOM     28  O5  IDS d 303       3.901   1.346  52.988  0.00  0.00    -0.340 OA
ATOM     29  C3  IDS d 303       4.105   0.260  50.328  0.00  0.00     0.094 C 
ATOM     30  S   IDS d 303       3.257  -2.844  52.257  0.00  0.00     0.252 S 
ATOM     31  C4  IDS d 303       5.179   1.181  50.943  0.00  0.00     0.103 C 
ATOM     32  O1S IDS d 303       4.107  -3.708  52.977  0.00  0.00    -0.572 OA
ATOM     33  C2  IDS d 303       3.353  -0.432  51.425  0.00  0.00     0.134 C 
ATOM     34  O3S IDS d 303       2.009  -2.659  52.898  0.00  0.00    -0.572 OA
ATOM     35  O2  IDS d 303       4.126  -1.396  51.985  0.00  0.00    -0.244 OA
ATOM     36  O62 IDS d 303       5.175   3.436  53.634  0.00  0.00    -0.646 OA
ATOM     37  H   IDS d 303       3.677   2.584  51.341  0.00  0.00     0.104 H 
ATOM     38  H   IDS d 303       2.531  -0.107  53.360  0.00  0.00     0.133 H 
ATOM     39  H   IDS d 303       2.533   0.376  49.198  0.00  0.00     0.210 HD
ATOM     40  H   IDS d 303       4.604  -0.447  49.697  0.00  0.00     0.091 H 
ATOM     41  H   IDS d 303       5.703   1.696  50.164  0.00  0.00     0.092 H 
ATOM     42  H   IDS d 303       2.488  -0.848  50.952  0.00  0.00     0.097 H 
ATOM     43  C6  SGN d 306      -8.631   4.810  51.987  0.00  0.00     0.067 C 
ATOM     44  S1  SGN d 306      -9.939  -0.917  48.348  0.00  0.00     0.156 S 
ATOM     45  C5  SGN d 306      -9.018   3.354  51.791  0.00  0.00     0.091 C 
ATOM     46  C3  SGN d 306      -8.082   1.105  51.242  0.00  0.00     0.083 C 
ATOM     47  C1  SGN d 306     -10.280   1.930  50.304  0.00  0.00     0.147 C 
ATOM     48  O1S SGN d 306     -10.365  -2.283  48.510  0.00  0.00    -0.296 OA
ATOM     49  O6  SGN d 306      -7.613   5.150  51.047  0.00  0.00    -0.254 OA
ATOM     50  S2  SGN d 306      -7.283   6.850  50.679  0.00  0.00     0.251 S 
ATOM     51  O4S SGN d 306      -6.106   7.298  51.370  0.00  0.00    -0.572 OA
ATOM     52  O1  SGN d 306     -11.045   1.364  51.358  0.00  0.00    -0.369 OA
ATOM     53  O4  SGN d 306      -7.018   2.565  52.814  0.00  0.00    -0.348 OA
ATOM     54  C4  SGN d 306      -7.746   2.547  51.588  0.00  0.00     0.095 C 
ATOM     55  N   SGN d 306      -9.488  -0.302  49.936  0.00  0.00    -0.210 NA
ATOM     56  O2S SGN d 306      -8.778  -0.854  47.507  0.00  0.00    -0.296 OA
ATOM     57  O5  SGN d 306      -9.860   3.251  50.620  0.00  0.00    -0.350 OA
ATOM     58  O6S SGN d 306      -7.064   6.954  49.261  0.00  0.00    -0.572 OA
ATOM     59  C2  SGN d 306      -9.042   1.071  50.057  0.00  0.00     0.081 C 
ATOM     60  O3S SGN d 306     -11.014  -0.134  47.795  0.00  0.00    -0.296 OA
ATOM     61  O5S SGN d 306      -8.435   7.635  51.050  0.00  0.00    -0.572 OA
ATOM     62  O3  SGN d 306      -6.885   0.490  50.787  0.00  0.00    -0.391 OA
ATOM     63  H   SGN d 306      -8.264   4.954  52.981  0.00  0.00     0.080 H 
ATOM     64  H   SGN d 306      -9.486   5.436  51.836  0.00  0.00     0.080 H 
ATOM     65  H   SGN d 306      -9.549   2.983  52.643  0.00  0.00     0.090 H 
ATOM     66  H   SGN d 306      -8.509   0.621  52.095  0.00  0.00     0.089 H 
ATOM     67  H   SGN d 306     -10.897   1.964  49.430  0.00  0.00     0.131 H 
ATOM     68  H   SGN d 306      -9.638  -2.806  48.882  0.00  0.00     0.231 HD
ATOM     69  H   SGN d 306     -10.506   1.322  52.163  0.00  0.00     0.212 HD
ATOM     70  H   SGN d 306      -7.174   2.970  50.788  0.00  0.00     0.091 H 
ATOM     71  H   SGN d 306      -8.732  -0.893  50.282  0.00  0.00     0.140 HD
ATOM     72  H   SGN d 306      -8.067  -1.386  47.897  0.00  0.00     0.231 HD
ATOM     73  H   SGN d 306      -8.543   1.441  49.187  0.00  0.00     0.076 H 
ATOM     74  H   SGN d 306     -11.788  -0.191  48.378  0.00  0.00     0.231 HD
ATOM     75  H   SGN d 306      -6.547   0.971  50.015  0.00  0.00     0.210 HD
ATOM     76  C1  SGN d 302       7.468   0.450  51.325  0.00  0.00     0.150 C 
ATOM     77  O4  SGN d 302       8.783  -0.217  55.206  0.00  0.00    -0.348 OA
ATOM     78  O6  SGN d 302      10.326   2.144  53.938  0.00  0.00    -0.254 OA
ATOM     79  O3S SGN d 302       6.723  -1.266  48.811  0.00  0.00    -0.296 OA
ATOM     80  S2  SGN d 302      11.349   3.513  53.811  0.00  0.00     0.251 S 
ATOM     81  O5  SGN d 302       8.217   1.458  52.007  0.00  0.00    -0.349 OA
ATOM     82  O1S SGN d 302       6.254  -3.476  49.438  0.00  0.00    -0.296 OA
ATOM     83  O6S SGN d 302      10.657   4.499  53.024  0.00  0.00    -0.572 OA
ATOM     84  N   SGN d 302       7.145  -1.892  51.268  0.00  0.00    -0.210 NA
ATOM     85  O5S SGN d 302      11.540   4.019  55.122  0.00  0.00    -0.572 OA
ATOM     86  C4  SGN d 302       8.971   0.004  53.808  0.00  0.00     0.095 C 
ATOM     87  O3  SGN d 302       8.886  -2.319  53.431  0.00  0.00    -0.391 OA
ATOM     88  C2  SGN d 302       8.099  -0.900  51.664  0.00  0.00     0.081 C 
ATOM     89  O2S SGN d 302       8.439  -2.705  49.235  0.00  0.00    -0.296 OA
ATOM     90  O1  SGN d 302       6.100   0.426  51.726  0.00  0.00    -0.348 OA
ATOM     91  C5  SGN d 302       8.252   1.296  53.420  0.00  0.00     0.091 C 
ATOM     92  S1  SGN d 302       7.133  -2.367  49.598  0.00  0.00     0.156 S 
ATOM     93  C6  SGN d 302       8.970   2.469  53.978  0.00  0.00     0.067 C 
ATOM     94  O4S SGN d 302      12.595   3.111  53.267  0.00  0.00    -0.572 OA
ATOM     95  C3  SGN d 302       8.209  -1.114  53.159  0.00  0.00     0.083 C 
ATOM     96  H   SGN d 302       7.492   0.658  50.277  0.00  0.00     0.131 H 
ATOM     97  H   SGN d 302       5.816  -1.017  49.049  0.00  0.00     0.231 HD
ATOM     98  H   SGN d 302       5.356  -3.217  49.696  0.00  0.00     0.231 HD
ATOM     99  H   SGN d 302       6.218  -1.530  51.490  0.00  0.00     0.140 HD
ATOM    100  H   SGN d 302      10.005   0.054  53.535  0.00  0.00     0.091 H 
ATOM    101  H   SGN d 302       8.950  -2.445  54.391  0.00  0.00     0.210 HD
ATOM    102  H   SGN d 302       9.060  -0.947  51.197  0.00  0.00     0.076 H 
ATOM    103  H   SGN d 302       8.456  -2.974  48.304  0.00  0.00     0.231 HD
ATOM    104  H   SGN d 302       7.257   1.232  53.810  0.00  0.00     0.090 H 
ATOM    105  H   SGN d 302       8.778   3.338  53.384  0.00  0.00     0.080 H 
ATOM    106  H   SGN d 302       8.649   2.688  54.975  0.00  0.00     0.080 H 
ATOM    107  H   SGN d 302       7.215  -1.147  53.552  0.00  0.00     0.089 H 
ATOM    108  O2S SGN d 304      -0.678   7.780  53.500  0.00  0.00    -0.296 OA
ATOM    109  C1  SGN d 304      -1.152   3.189  54.359  0.00  0.00     0.150 C 
ATOM    110  S2  SGN d 304       1.256  -0.114  56.723  0.00  0.00     0.251 S 
ATOM    111  O4  SGN d 304       1.700   1.222  52.116  0.00  0.00    -0.348 OA
ATOM    112  C6  SGN d 304       0.286  -0.237  54.120  0.00  0.00     0.067 C 
ATOM    113  O4S SGN d 304       2.377  -0.955  56.441  0.00  0.00    -0.572 OA
ATOM    114  O1  SGN d 304      -2.093   3.044  53.314  0.00  0.00    -0.348 OA
ATOM    115  O5  SGN d 304      -0.652   1.921  54.753  0.00  0.00    -0.349 OA
ATOM    116  S1  SGN d 304      -0.581   6.647  54.366  0.00  0.00     0.156 S 
ATOM    117  O5S SGN d 304       0.743  -0.406  58.026  0.00  0.00    -0.572 OA
ATOM    118  C3  SGN d 304       0.626   3.306  52.656  0.00  0.00     0.083 C 
ATOM    119  N   SGN d 304      -0.587   5.232  53.301  0.00  0.00    -0.210 NA
ATOM    120  O1S SGN d 304      -1.683   6.614  55.288  0.00  0.00    -0.296 OA
ATOM    121  O6  SGN d 304      -0.002  -0.433  55.507  0.00  0.00    -0.254 OA
ATOM    122  C4  SGN d 304       1.102   1.953  53.168  0.00  0.00     0.095 C 
ATOM    123  C5  SGN d 304      -0.083   1.174  53.687  0.00  0.00     0.091 C 
ATOM    124  C2  SGN d 304      -0.020   4.016  53.809  0.00  0.00     0.081 C 
ATOM    125  O6S SGN d 304       1.654   1.268  56.668  0.00  0.00    -0.572 OA
ATOM    126  O3  SGN d 304       1.701   4.096  52.197  0.00  0.00    -0.391 OA
ATOM    127  O3S SGN d 304       0.657   6.687  55.101  0.00  0.00    -0.296 OA
ATOM    128  H   SGN d 304      -1.515   7.742  53.011  0.00  0.00     0.231 HD
ATOM    129  H   SGN d 304      -1.604   3.650  55.213  0.00  0.00     0.131 H 
ATOM    130  H   SGN d 304       1.331  -0.394  53.953  0.00  0.00     0.080 H 
ATOM    131  H   SGN d 304      -0.290  -0.934  53.548  0.00  0.00     0.080 H 
ATOM    132  H   SGN d 304      -0.049   3.153  51.840  0.00  0.00     0.089 H 
ATOM    133  H   SGN d 304      -0.070   5.482  52.458  0.00  0.00     0.140 HD
ATOM    134  H   SGN d 304      -2.516   6.587  54.793  0.00  0.00     0.231 HD
ATOM    135  H   SGN d 304       1.816   2.107  53.949  0.00  0.00     0.091 H 
ATOM    136  H   SGN d 304      -0.797   1.043  52.900  0.00  0.00     0.090 H 
ATOM    137  H   SGN d 304       0.705   4.194  54.575  0.00  0.00     0.076 H 
ATOM    138  H   SGN d 304       2.325   4.246  52.924  0.00  0.00     0.210 HD
ATOM    139  H   SGN d 304       1.401   6.710  54.479  0.00  0.00     0.231 HD
ATOM    140  O1S UAP d 301      10.817   2.263  58.480  0.00  0.00    -0.572 OA
ATOM    141  C3  UAP d 301       8.852  -1.634  57.756  0.00  0.00     0.086 C 
ATOM    142  O62 UAP d 301      12.457  -3.256  55.285  0.00  0.00    -0.642 OA
ATOM    143  C2  UAP d 301       9.502  -0.300  57.481  0.00  0.00     0.135 C 
ATOM    144  O61 UAP d 301      11.243  -4.640  56.409  0.00  0.00    -0.642 OA
ATOM    145  C1  UAP d 301       9.941  -0.186  56.037  0.00  0.00     0.167 C 
ATOM    146  C5  UAP d 301      10.528  -2.512  56.218  0.00  0.00     0.147 C 
ATOM    147  C4  UAP d 301       9.534  -2.736  57.103  0.00  0.00    -0.034 C 
ATOM    148  O3S UAP d 301       9.883   1.046  60.282  0.00  0.00    -0.572 OA
ATOM    149  C6  UAP d 301      11.408  -3.514  55.920  0.00  0.00     0.233 C 
ATOM    150  O5  UAP d 301      10.845  -1.253  55.786  0.00  0.00    -0.311 OA
ATOM    151  O2S UAP d 301      12.223   1.040  59.853  0.00  0.00    -0.572 OA
ATOM    152  O2  UAP d 301      10.680  -0.265  58.232  0.00  0.00    -0.244 OA
ATOM    153  O3  UAP d 301       7.507  -1.549  57.450  0.00  0.00    -0.389 OA
ATOM    154  S   UAP d 301      10.918   1.100  59.290  0.00  0.00     0.252 S 
ATOM    155  H   UAP d 301       8.941  -1.860  58.798  0.00  0.00     0.093 H 
ATOM    156  H   UAP d 301       8.804   0.477  57.714  0.00  0.00     0.097 H 
ATOM    157  H   UAP d 301      10.446   0.734  55.826  0.00  0.00     0.134 H 
ATOM    158  H   UAP d 301       9.255  -3.706  57.320  0.00  0.00     0.085 H 
ATOM    159  H   UAP d 301       7.402  -1.343  56.507  0.00  0.00     0.210 HD
ENDROOT
TORSDOF 50
ENDMDL
MODEL 15
REMARK VINA RESULT:      -8.2      3.120      4.190
REMARK  0 active torsions:
REMARK  status: ('A' for Active; 'I' for Inactive)
REMARK       I    between atoms: C3_1  and  O3_85 
REMARK       I    between atoms: C6_2  and  C5_22 
REMARK       I    between atoms: C6_3  and  C5_14 
REMARK       I    between atoms: C6_3  and  O6_30 
REMARK       I    between atoms: C1_4  and  O1_84 
REMARK       I    between atoms: O2S_6  and  S1_45 
REMARK       I    between atoms: C1_7  and  O1_36 
REMARK       I    between atoms: S1_10  and  N_69 
REMARK       I    between atoms: S1_10  and  O1S_27 
REMARK       I    between atoms: S1_10  and  O2S_71 
REMARK       I    between atoms: S1_10  and  O3S_88 
REMARK       I    between atoms: O4_11  and  C1_42 
REMARK       I    between atoms: O4_11  and  C4_63 
REMARK       I    between atoms: O6_12  and  C6_94 
REMARK       I    between atoms: O6_12  and  S2_28 
REMARK       I    between atoms: C1_13  and  O4_51 
REMARK       I    between atoms: S2_16  and  O6_76 
REMARK       I    between atoms: C3_18  and  O3_103 
REMARK       I    between atoms: C1_19  and  O1_37 
REMARK       I    between atoms: O4_20  and  C1_23 
REMARK       I    between atoms: O4_20  and  C4_77 
REMARK       I    between atoms: O3S_21  and  S1_92 
REMARK       I    between atoms: C3_24  and  O3_87 
REMARK       I    between atoms: O3_25  and  C3_46 
REMARK       I    between atoms: C6_29  and  C5_79 
REMARK       I    between atoms: C6_29  and  O6_76 
REMARK       I    between atoms: O6_30  and  S2_31 
REMARK       I    between atoms: O1_36  and  C4_81 
REMARK       I    between atoms: C2_38  and  O2_72 
REMARK       I    between atoms: S1_45  and  N_74 
REMARK       I    between atoms: S1_45  and  O1S_75 
REMARK       I    between atoms: S1_45  and  O3S_101 
REMARK       I    between atoms: O1S_47  and  S1_92 
REMARK       I    between atoms: S_48  and  O2_91 
REMARK       I    between atoms: C5_49  and  C6_67 
REMARK       I    between atoms: O4_51  and  C4_57 
REMARK       I    between atoms: N_52  and  C2_73 
REMARK       I    between atoms: N_52  and  S1_92 
REMARK       I    between atoms: C5_53  and  C6_61 
REMARK       I    between atoms: C4_56  and  O1_84 
REMARK       I    between atoms: C2_62  and  O2_91 
REMARK       I    between atoms: S_66  and  O2_105 
REMARK       I    between atoms: O3_68  and  C3_102 
REMARK       I    between atoms: N_69  and  C2_83 
REMARK       I    between atoms: C3_70  and  O3_98 
REMARK       I    between atoms: O2_72  and  S_96 
REMARK       I    between atoms: N_74  and  C2_86 
REMARK       I    between atoms: O2S_80  and  S1_92 
REMARK       I    between atoms: C5_89  and  C6_94 
REMARK       I    between atoms: C2_104  and  O2_105 
ROOT
ATOM      1  C3  IDS d 305      -4.617   1.723  54.181  0.00  0.00     0.094 C 
ATOM      2  O3S IDS d 305      -9.362   1.160  54.779  0.00  0.00    -0.572 OA
ATOM      3  C1  IDS d 305      -6.360   1.205  52.529  0.00  0.00     0.161 C 
ATOM      4  O62 IDS d 305      -3.117   0.843  50.254  0.00  0.00    -0.646 OA
ATOM      5  O5  IDS d 305      -5.199   1.141  51.730  0.00  0.00    -0.340 OA
ATOM      6  O61 IDS d 305      -2.462  -0.991  51.323  0.00  0.00    -0.646 OA
ATOM      7  O1S IDS d 305      -8.387   1.755  56.878  0.00  0.00    -0.572 OA
ATOM      8  C5  IDS d 305      -4.292   0.175  52.232  0.00  0.00     0.152 C 
ATOM      9  S   IDS d 305      -8.155   1.138  55.590  0.00  0.00     0.252 S 
ATOM     10  C6  IDS d 305      -3.216  -0.014  51.172  0.00  0.00     0.206 C 
ATOM     11  C4  IDS d 305      -3.670   0.732  53.529  0.00  0.00     0.103 C 
ATOM     12  O3  IDS d 305      -4.329   1.801  55.539  0.00  0.00    -0.390 OA
ATOM     13  O2S IDS d 305      -7.705  -0.211  55.774  0.00  0.00    -0.572 OA
ATOM     14  C2  IDS d 305      -5.979   1.151  54.017  0.00  0.00     0.134 C 
ATOM     15  O2  IDS d 305      -6.837   1.972  54.771  0.00  0.00    -0.244 OA
ATOM     16  H   IDS d 305      -4.532   2.697  53.746  0.00  0.00     0.091 H 
ATOM     17  H   IDS d 305      -6.907   2.111  52.370  0.00  0.00     0.133 H 
ATOM     18  H   IDS d 305      -4.769  -0.758  52.445  0.00  0.00     0.104 H 
ATOM     19  H   IDS d 305      -3.490  -0.102  54.175  0.00  0.00     0.092 H 
ATOM     20  H   IDS d 305      -4.405   0.920  55.936  0.00  0.00     0.210 HD
ATOM     21  H   IDS d 305      -6.038   0.134  54.343  0.00  0.00     0.097 H 
ATOM     22  C6  IDS d 303       4.772   3.247  53.220  0.00  0.00     0.206 C 
ATOM     23  O61 IDS d 303       5.269   4.227  52.684  0.00  0.00    -0.646 OA
ATOM     24  C5  IDS d 303       4.205   2.167  52.370  0.00  0.00     0.152 C 
ATOM     25  C1  IDS d 303       2.963   0.159  52.469  0.00  0.00     0.161 C 
ATOM     26  O3  IDS d 303       3.354   1.375  49.731  0.00  0.00    -0.390 OA
ATOM     27  O2S IDS d 303       3.991  -3.105  50.143  0.00  0.00    -0.572 OA
ATOM     28  O5  IDS d 303       3.780   1.081  53.202  0.00  0.00    -0.340 OA
ATOM     29  C3  IDS d 303       4.361   0.701  50.406  0.00  0.00     0.094 C 
ATOM     30  S   IDS d 303       4.116  -2.870  51.533  0.00  0.00     0.252 S 
ATOM     31  C4  IDS d 303       5.170   1.654  51.310  0.00  0.00     0.103 C 
ATOM     32  O1S IDS d 303       5.096  -3.685  52.135  0.00  0.00    -0.572 OA
ATOM     33  C2  IDS d 303       3.722  -0.363  51.249  0.00  0.00     0.134 C 
ATOM     34  O3S IDS d 303       2.825  -3.095  52.069  0.00  0.00    -0.572 OA
ATOM     35  O2  IDS d 303       4.658  -1.253  51.666  0.00  0.00    -0.244 OA
ATOM     36  O62 IDS d 303       4.525   3.179  54.405  0.00  0.00    -0.646 OA
ATOM     37  H   IDS d 303       3.376   2.592  51.843  0.00  0.00     0.104 H 
ATOM     38  H   IDS d 303       2.746  -0.666  53.115  0.00  0.00     0.133 H 
ATOM     39  H   IDS d 303       2.864   0.752  49.173  0.00  0.00     0.210 HD
ATOM     40  H   IDS d 303       5.036   0.274  49.694  0.00  0.00     0.091 H 
ATOM     41  H   IDS d 303       5.608   2.429  50.717  0.00  0.00     0.092 H 
ATOM     42  H   IDS d 303       2.997  -0.826  50.613  0.00  0.00     0.097 H 
ATOM     43  C6  SGN d 306      -9.136   2.064  51.693  0.00  0.00     0.067 C 
ATOM     44  S1  SGN d 306      -8.951  -2.815  46.803  0.00  0.00     0.156 S 
ATOM     45  C5  SGN d 306      -9.181   0.644  51.153  0.00  0.00     0.091 C 
ATOM     46  C3  SGN d 306      -7.744  -1.180  50.235  0.00  0.00     0.083 C 
ATOM     47  C1  SGN d 306     -10.016  -0.625  49.275  0.00  0.00     0.147 C 
ATOM     48  O1S SGN d 306      -9.073  -4.239  46.625  0.00  0.00    -0.296 OA
ATOM     49  O6  SGN d 306      -8.169   2.809  50.956  0.00  0.00    -0.254 OA
ATOM     50  S2  SGN d 306      -8.203   4.580  50.995  0.00  0.00     0.251 S 
ATOM     51  O4S SGN d 306      -7.193   5.085  51.881  0.00  0.00    -0.572 OA
ATOM     52  O1  SGN d 306     -10.693  -1.562  50.101  0.00  0.00    -0.369 OA
ATOM     53  O4  SGN d 306      -7.114   0.063  52.182  0.00  0.00    -0.348 OA
ATOM     54  C4  SGN d 306      -7.753   0.181  50.913  0.00  0.00     0.095 C 
ATOM     55  N   SGN d 306      -8.733  -2.504  48.523  0.00  0.00    -0.210 NA
ATOM     56  O2S SGN d 306      -7.789  -2.326  46.118  0.00  0.00    -0.296 OA
ATOM     57  O5  SGN d 306      -9.915   0.645  49.907  0.00  0.00    -0.350 OA
ATOM     58  O6S SGN d 306      -7.938   5.049  49.661  0.00  0.00    -0.572 OA
ATOM     59  C2  SGN d 306      -8.608  -1.135  48.979  0.00  0.00     0.081 C 
ATOM     60  O3S SGN d 306     -10.141  -2.161  46.323  0.00  0.00    -0.296 OA
ATOM     61  O5S SGN d 306      -9.518   5.007  51.405  0.00  0.00    -0.572 OA
ATOM     62  O3  SGN d 306      -6.418  -1.418  49.783  0.00  0.00    -0.391 OA
ATOM     63  H   SGN d 306      -8.863   2.046  52.727  0.00  0.00     0.080 H 
ATOM     64  H   SGN d 306     -10.099   2.520  51.593  0.00  0.00     0.080 H 
ATOM     65  H   SGN d 306      -9.662  -0.013  51.847  0.00  0.00     0.090 H 
ATOM     66  H   SGN d 306      -8.098  -1.924  50.917  0.00  0.00     0.089 H 
ATOM     67  H   SGN d 306     -10.577  -0.517  48.371  0.00  0.00     0.131 H 
ATOM     68  H   SGN d 306      -8.270  -4.676  46.949  0.00  0.00     0.231 HD
ATOM     69  H   SGN d 306     -10.201  -1.678  50.929  0.00  0.00     0.212 HD
ATOM     70  H   SGN d 306      -7.247   0.883  50.284  0.00  0.00     0.091 H 
ATOM     71  H   SGN d 306      -7.884  -2.992  48.810  0.00  0.00     0.140 HD
ATOM     72  H   SGN d 306      -7.000  -2.778  46.455  0.00  0.00     0.231 HD
ATOM     73  H   SGN d 306      -8.156  -0.481  48.263  0.00  0.00     0.076 H 
ATOM     74  H   SGN d 306     -10.913  -2.507  46.799  0.00  0.00     0.231 HD
ATOM     75  H   SGN d 306      -6.153  -0.713  49.170  0.00  0.00     0.210 HD
ATOM     76  C1  SGN d 302       7.540   1.334  51.759  0.00  0.00     0.150 C 
ATOM     77  O4  SGN d 302       8.760   0.074  55.521  0.00  0.00    -0.348 OA
ATOM     78  O6  SGN d 302       9.810   2.926  54.949  0.00  0.00    -0.254 OA
ATOM     79  O3S SGN d 302       7.328   0.129  48.873  0.00  0.00    -0.296 OA
ATOM     80  S2  SGN d 302      10.511   4.466  55.222  0.00  0.00     0.251 S 
ATOM     81  O5  SGN d 302       8.011   2.289  52.712  0.00  0.00    -0.349 OA
ATOM     82  O1S SGN d 302       7.326  -2.214  48.964  0.00  0.00    -0.296 OA
ATOM     83  O6S SGN d 302       9.662   5.445  54.597  0.00  0.00    -0.572 OA
ATOM     84  N   SGN d 302       7.745  -0.947  51.171  0.00  0.00    -0.210 NA
ATOM     85  O5S SGN d 302      10.515   4.684  56.624  0.00  0.00    -0.572 OA
ATOM     86  C4  SGN d 302       8.969   0.644  54.229  0.00  0.00     0.095 C 
ATOM     87  O3  SGN d 302       9.419  -1.498  53.359  0.00  0.00    -0.391 OA
ATOM     88  C2  SGN d 302       8.434   0.100  51.864  0.00  0.00     0.081 C 
ATOM     89  O2S SGN d 302       9.294  -0.990  49.154  0.00  0.00    -0.296 OA
ATOM     90  O1  SGN d 302       6.192   0.941  52.004  0.00  0.00    -0.348 OA
ATOM     91  C5  SGN d 302       8.005   1.816  54.054  0.00  0.00     0.091 C 
ATOM     92  S1  SGN d 302       7.928  -1.017  49.446  0.00  0.00     0.156 S 
ATOM     93  C6  SGN d 302       8.415   2.951  54.919  0.00  0.00     0.067 C 
ATOM     94  O4S SGN d 302      11.842   4.462  54.735  0.00  0.00    -0.572 OA
ATOM     95  C3  SGN d 302       8.508  -0.425  53.283  0.00  0.00     0.083 C 
ATOM     96  H   SGN d 302       7.574   1.779  50.787  0.00  0.00     0.131 H 
ATOM     97  H   SGN d 302       6.377   0.127  49.066  0.00  0.00     0.231 HD
ATOM     98  H   SGN d 302       6.380  -2.209  49.178  0.00  0.00     0.231 HD
ATOM     99  H   SGN d 302       6.751  -0.842  51.369  0.00  0.00     0.140 HD
ATOM    100  H   SGN d 302       9.980   0.964  54.079  0.00  0.00     0.091 H 
ATOM    101  H   SGN d 302       9.458  -1.825  54.271  0.00  0.00     0.210 HD
ATOM    102  H   SGN d 302       9.406   0.357  51.498  0.00  0.00     0.076 H 
ATOM    103  H   SGN d 302       9.420  -1.028  48.193  0.00  0.00     0.231 HD
ATOM    104  H   SGN d 302       7.029   1.464  54.318  0.00  0.00     0.090 H 
ATOM    105  H   SGN d 302       8.068   3.876  54.508  0.00  0.00     0.080 H 
ATOM    106  H   SGN d 302       8.001   2.864  55.902  0.00  0.00     0.080 H 
ATOM    107  H   SGN d 302       7.527  -0.750  53.556  0.00  0.00     0.089 H 
ATOM    108  O2S SGN d 304      -2.127   6.156  54.606  0.00  0.00    -0.296 OA
ATOM    109  C1  SGN d 304      -1.622   1.493  54.414  0.00  0.00     0.150 C 
ATOM    110  S2  SGN d 304       1.326  -1.706  56.251  0.00  0.00     0.251 S 
ATOM    111  O4  SGN d 304       1.710   0.716  52.105  0.00  0.00    -0.348 OA
ATOM    112  C6  SGN d 304       0.548  -1.421  53.597  0.00  0.00     0.067 C 
ATOM    113  O4S SGN d 304       2.619  -2.214  55.912  0.00  0.00    -0.572 OA
ATOM    114  O1  SGN d 304      -2.450   1.405  53.272  0.00  0.00    -0.348 OA
ATOM    115  O5  SGN d 304      -0.876   0.297  54.577  0.00  0.00    -0.349 OA
ATOM    116  S1  SGN d 304      -1.829   4.898  55.216  0.00  0.00     0.156 S 
ATOM    117  O5S SGN d 304       0.820  -2.388  57.403  0.00  0.00    -0.572 OA
ATOM    118  C3  SGN d 304       0.175   2.357  52.965  0.00  0.00     0.083 C 
ATOM    119  N   SGN d 304      -1.466   3.795  53.879  0.00  0.00    -0.210 NA
ATOM    120  O1S SGN d 304      -2.944   4.431  55.992  0.00  0.00    -0.296 OA
ATOM    121  O6  SGN d 304       0.237  -1.985  54.873  0.00  0.00    -0.254 OA
ATOM    122  C4  SGN d 304       0.910   1.048  53.222  0.00  0.00     0.095 C 
ATOM    123  C5  SGN d 304      -0.100  -0.053  53.440  0.00  0.00     0.091 C 
ATOM    124  C2  SGN d 304      -0.673   2.637  54.171  0.00  0.00     0.081 C 
ATOM    125  O6S SGN d 304       1.412  -0.297  56.533  0.00  0.00    -0.572 OA
ATOM    126  O3  SGN d 304       1.072   3.433  52.796  0.00  0.00    -0.391 OA
ATOM    127  O3S SGN d 304      -0.671   5.019  56.065  0.00  0.00    -0.296 OA
ATOM    128  H   SGN d 304      -2.908   6.063  54.038  0.00  0.00     0.231 HD
ATOM    129  H   SGN d 304      -2.209   1.644  55.295  0.00  0.00     0.131 H 
ATOM    130  H   SGN d 304       1.609  -1.319  53.507  0.00  0.00     0.080 H 
ATOM    131  H   SGN d 304       0.171  -2.070  52.834  0.00  0.00     0.080 H 
ATOM    132  H   SGN d 304      -0.405   2.262  52.071  0.00  0.00     0.089 H 
ATOM    133  H   SGN d 304      -0.972   4.332  53.166  0.00  0.00     0.140 HD
ATOM    134  H   SGN d 304      -3.724   4.350  55.421  0.00  0.00     0.231 HD
ATOM    135  H   SGN d 304       1.530   1.160  54.087  0.00  0.00     0.091 H 
ATOM    136  H   SGN d 304      -0.724  -0.141  52.575  0.00  0.00     0.090 H 
ATOM    137  H   SGN d 304      -0.047   2.777  55.027  0.00  0.00     0.076 H 
ATOM    138  H   SGN d 304       1.608   3.535  53.598  0.00  0.00     0.210 HD
ATOM    139  H   SGN d 304       0.081   5.335  55.541  0.00  0.00     0.231 HD
ATOM    140  O1S UAP d 301      10.018   2.093  59.438  0.00  0.00    -0.572 OA
ATOM    141  C3  UAP d 301       9.003  -1.847  57.703  0.00  0.00     0.086 C 
ATOM    142  O62 UAP d 301      13.005  -2.091  55.323  0.00  0.00    -0.642 OA
ATOM    143  C2  UAP d 301       9.357  -0.384  57.787  0.00  0.00     0.135 C 
ATOM    144  O61 UAP d 301      12.068  -3.913  55.997  0.00  0.00    -0.642 OA
ATOM    145  C1  UAP d 301       9.836   0.147  56.453  0.00  0.00     0.167 C 
ATOM    146  C5  UAP d 301      10.912  -1.990  56.193  0.00  0.00     0.147 C 
ATOM    147  C4  UAP d 301       9.946  -2.608  56.904  0.00  0.00    -0.034 C 
ATOM    148  O3S UAP d 301       9.281   0.331  60.835  0.00  0.00    -0.572 OA
ATOM    149  C6  UAP d 301      12.006  -2.696  55.779  0.00  0.00     0.233 C 
ATOM    150  O5  UAP d 301      10.965  -0.627  56.074  0.00  0.00    -0.311 OA
ATOM    151  O2S UAP d 301      11.583   0.899  60.654  0.00  0.00    -0.572 OA
ATOM    152  O2  UAP d 301      10.456  -0.283  58.644  0.00  0.00    -0.244 OA
ATOM    153  O3  UAP d 301       7.691  -1.969  57.287  0.00  0.00    -0.389 OA
ATOM    154  S   UAP d 301      10.330   0.821  59.988  0.00  0.00     0.252 S 
ATOM    155  H   UAP d 301       9.084  -2.285  58.677  0.00  0.00     0.093 H 
ATOM    156  H   UAP d 301       8.493   0.161  58.108  0.00  0.00     0.097 H 
ATOM    157  H   UAP d 301      10.136   1.173  56.495  0.00  0.00     0.134 H 
ATOM    158  H   UAP d 301       9.876  -3.637  56.879  0.00  0.00     0.085 H 
ATOM    159  H   UAP d 301       7.595  -1.578  56.405  0.00  0.00     0.210 HD
ENDROOT
TORSDOF 50
ENDMDL
MODEL 16
REMARK VINA RESULT:      -8.2      4.129     15.825
REMARK  0 active torsions:
REMARK  status: ('A' for Active; 'I' for Inactive)
REMARK       I    between atoms: C3_1  and  O3_85 
REMARK       I    between atoms: C6_2  and  C5_22 
REMARK       I    between atoms: C6_3  and  C5_14 
REMARK       I    between atoms: C6_3  and  O6_30 
REMARK       I    between atoms: C1_4  and  O1_84 
REMARK       I    between atoms: O2S_6  and  S1_45 
REMARK       I    between atoms: C1_7  and  O1_36 
REMARK       I    between atoms: S1_10  and  N_69 
REMARK       I    between atoms: S1_10  and  O1S_27 
REMARK       I    between atoms: S1_10  and  O2S_71 
REMARK       I    between atoms: S1_10  and  O3S_88 
REMARK       I    between atoms: O4_11  and  C1_42 
REMARK       I    between atoms: O4_11  and  C4_63 
REMARK       I    between atoms: O6_12  and  C6_94 
REMARK       I    between atoms: O6_12  and  S2_28 
REMARK       I    between atoms: C1_13  and  O4_51 
REMARK       I    between atoms: S2_16  and  O6_76 
REMARK       I    between atoms: C3_18  and  O3_103 
REMARK       I    between atoms: C1_19  and  O1_37 
REMARK       I    between atoms: O4_20  and  C1_23 
REMARK       I    between atoms: O4_20  and  C4_77 
REMARK       I    between atoms: O3S_21  and  S1_92 
REMARK       I    between atoms: C3_24  and  O3_87 
REMARK       I    between atoms: O3_25  and  C3_46 
REMARK       I    between atoms: C6_29  and  C5_79 
REMARK       I    between atoms: C6_29  and  O6_76 
REMARK       I    between atoms: O6_30  and  S2_31 
REMARK       I    between atoms: O1_36  and  C4_81 
REMARK       I    between atoms: C2_38  and  O2_72 
REMARK       I    between atoms: S1_45  and  N_74 
REMARK       I    between atoms: S1_45  and  O1S_75 
REMARK       I    between atoms: S1_45  and  O3S_101 
REMARK       I    between atoms: O1S_47  and  S1_92 
REMARK       I    between atoms: S_48  and  O2_91 
REMARK       I    between atoms: C5_49  and  C6_67 
REMARK       I    between atoms: O4_51  and  C4_57 
REMARK       I    between atoms: N_52  and  C2_73 
REMARK       I    between atoms: N_52  and  S1_92 
REMARK       I    between atoms: C5_53  and  C6_61 
REMARK       I    between atoms: C4_56  and  O1_84 
REMARK       I    between atoms: C2_62  and  O2_91 
REMARK       I    between atoms: S_66  and  O2_105 
REMARK       I    between atoms: O3_68  and  C3_102 
REMARK       I    between atoms: N_69  and  C2_83 
REMARK       I    between atoms: C3_70  and  O3_98 
REMARK       I    between atoms: O2_72  and  S_96 
REMARK       I    between atoms: N_74  and  C2_86 
REMARK       I    between atoms: O2S_80  and  S1_92 
REMARK       I    between atoms: C5_89  and  C6_94 
REMARK       I    between atoms: C2_104  and  O2_105 
ROOT
ATOM      1  C3  IDS d 305       7.138  -1.694  50.353  0.00  0.00     0.094 C 
ATOM      2  O3S IDS d 305      11.605  -2.879  48.998  0.00  0.00    -0.572 OA
ATOM      3  C1  IDS d 305       9.237  -1.633  51.627  0.00  0.00     0.161 C 
ATOM      4  O62 IDS d 305       6.647  -0.724  54.507  0.00  0.00    -0.646 OA
ATOM      5  O5  IDS d 305       8.305  -1.255  52.617  0.00  0.00    -0.340 OA
ATOM      6  O61 IDS d 305       5.780  -2.769  54.497  0.00  0.00    -0.646 OA
ATOM      7  O1S IDS d 305      10.142  -3.125  47.125  0.00  0.00    -0.572 OA
ATOM      8  C5  IDS d 305       7.318  -2.256  52.792  0.00  0.00     0.152 C 
ATOM      9  S   IDS d 305      10.238  -3.126  48.569  0.00  0.00     0.252 S 
ATOM     10  C6  IDS d 305       6.533  -1.890  54.045  0.00  0.00     0.206 C 
ATOM     11  C4  IDS d 305       6.392  -2.236  51.558  0.00  0.00     0.103 C 
ATOM     12  O3  IDS d 305       6.529  -2.162  49.194  0.00  0.00    -0.390 OA
ATOM     13  O2S IDS d 305       9.777  -4.384  49.082  0.00  0.00    -0.572 OA
ATOM     14  C2  IDS d 305       8.508  -2.266  50.432  0.00  0.00     0.134 C 
ATOM     15  O2  IDS d 305       9.145  -1.914  49.229  0.00  0.00    -0.244 OA
ATOM     16  H   IDS d 305       7.146  -0.624  50.339  0.00  0.00     0.091 H 
ATOM     17  H   IDS d 305       9.792  -0.796  51.259  0.00  0.00     0.133 H 
ATOM     18  H   IDS d 305       7.743  -3.232  52.895  0.00  0.00     0.104 H 
ATOM     19  H   IDS d 305       6.073  -3.242  51.388  0.00  0.00     0.092 H 
ATOM     20  H   IDS d 305       6.520  -3.132  49.203  0.00  0.00     0.210 HD
ATOM     21  H   IDS d 305       8.501  -3.328  50.566  0.00  0.00     0.097 H 
ATOM     22  C6  IDS d 303      -1.761   0.928  52.664  0.00  0.00     0.206 C 
ATOM     23  O61 IDS d 303      -2.127   2.082  52.829  0.00  0.00    -0.646 OA
ATOM     24  C5  IDS d 303      -0.988   0.253  53.740  0.00  0.00     0.152 C 
ATOM     25  C1  IDS d 303       0.222  -1.718  54.226  0.00  0.00     0.161 C 
ATOM     26  O3  IDS d 303       0.488   0.556  56.198  0.00  0.00    -0.390 OA
ATOM     27  O2S IDS d 303      -0.163  -3.613  57.885  0.00  0.00    -0.572 OA
ATOM     28  O5  IDS d 303      -0.761  -1.115  53.376  0.00  0.00    -0.340 OA
ATOM     29  C3  IDS d 303      -0.642  -0.245  56.120  0.00  0.00     0.094 C 
ATOM     30  S   IDS d 303      -0.624  -3.966  56.595  0.00  0.00     0.252 S 
ATOM     31  C4  IDS d 303      -1.660   0.315  55.105  0.00  0.00     0.103 C 
ATOM     32  O1S IDS d 303      -1.708  -4.866  56.634  0.00  0.00    -0.572 OA
ATOM     33  C2  IDS d 303      -0.210  -1.615  55.690  0.00  0.00     0.134 C 
ATOM     34  O3S IDS d 303       0.502  -4.509  55.929  0.00  0.00    -0.572 OA
ATOM     35  O2  IDS d 303      -1.206  -2.509  55.913  0.00  0.00    -0.244 OA
ATOM     36  O62 IDS d 303      -1.807   0.352  51.598  0.00  0.00    -0.646 OA
ATOM     37  H   IDS d 303      -0.063   0.782  53.834  0.00  0.00     0.104 H 
ATOM     38  H   IDS d 303       0.289  -2.752  53.962  0.00  0.00     0.133 H 
ATOM     39  H   IDS d 303       1.108   0.180  56.842  0.00  0.00     0.210 HD
ATOM     40  H   IDS d 303      -1.118  -0.274  57.078  0.00  0.00     0.091 H 
ATOM     41  H   IDS d 303      -1.953   1.303  55.395  0.00  0.00     0.092 H 
ATOM     42  H   IDS d 303       0.654  -1.835  56.281  0.00  0.00     0.097 H 
ATOM     43  C6  SGN d 306      12.119  -0.758  51.370  0.00  0.00     0.067 C 
ATOM     44  S1  SGN d 306      13.197  -3.125  57.773  0.00  0.00     0.156 S 
ATOM     45  C5  SGN d 306      12.315  -1.822  52.436  0.00  0.00     0.091 C 
ATOM     46  C3  SGN d 306      11.171  -2.962  54.341  0.00  0.00     0.083 C 
ATOM     47  C1  SGN d 306      13.599  -2.266  54.434  0.00  0.00     0.147 C 
ATOM     48  O1S SGN d 306      13.380  -4.351  58.506  0.00  0.00    -0.296 OA
ATOM     49  O6  SGN d 306      11.349   0.310  51.917  0.00  0.00    -0.254 OA
ATOM     50  S2  SGN d 306      11.346   1.894  51.124  0.00  0.00     0.251 S 
ATOM     51  O4S SGN d 306      10.144   2.074  50.359  0.00  0.00    -0.572 OA
ATOM     52  O1  SGN d 306      14.069  -3.517  53.956  0.00  0.00    -0.369 OA
ATOM     53  O4  SGN d 306      10.069  -2.590  52.247  0.00  0.00    -0.348 OA
ATOM     54  C4  SGN d 306      10.995  -2.013  53.166  0.00  0.00     0.095 C 
ATOM     55  N   SGN d 306      12.564  -3.538  56.181  0.00  0.00    -0.210 NA
ATOM     56  O2S SGN d 306      12.228  -2.292  58.427  0.00  0.00    -0.296 OA
ATOM     57  O5  SGN d 306      13.329  -1.370  53.364  0.00  0.00    -0.350 OA
ATOM     58  O6S SGN d 306      11.404   2.897  52.153  0.00  0.00    -0.572 OA
ATOM     59  C2  SGN d 306      12.312  -2.477  55.228  0.00  0.00     0.081 C 
ATOM     60  O3S SGN d 306      14.458  -2.440  57.647  0.00  0.00    -0.296 OA
ATOM     61  O5S SGN d 306      12.516   1.992  50.286  0.00  0.00    -0.572 OA
ATOM     62  O3  SGN d 306       9.997  -2.871  55.137  0.00  0.00    -0.391 OA
ATOM     63  H   SGN d 306      11.604  -1.179  50.533  0.00  0.00     0.080 H 
ATOM     64  H   SGN d 306      13.071  -0.389  51.048  0.00  0.00     0.080 H 
ATOM     65  H   SGN d 306      12.623  -2.749  51.999  0.00  0.00     0.090 H 
ATOM     66  H   SGN d 306      11.360  -3.951  53.979  0.00  0.00     0.089 H 
ATOM     67  H   SGN d 306      14.361  -1.842  55.054  0.00  0.00     0.131 H 
ATOM     68  H   SGN d 306      12.529  -4.808  58.588  0.00  0.00     0.231 HD
ATOM     69  H   SGN d 306      13.394  -3.922  53.389  0.00  0.00     0.212 HD
ATOM     70  H   SGN d 306      10.646  -1.071  53.533  0.00  0.00     0.091 H 
ATOM     71  H   SGN d 306      11.679  -4.023  56.328  0.00  0.00     0.140 HD
ATOM     72  H   SGN d 306      11.388  -2.771  58.501  0.00  0.00     0.231 HD
ATOM     73  H   SGN d 306      12.038  -1.547  55.680  0.00  0.00     0.076 H 
ATOM     74  H   SGN d 306      15.097  -3.020  57.203  0.00  0.00     0.231 HD
ATOM     75  H   SGN d 306       9.878  -1.955  55.434  0.00  0.00     0.210 HD
ATOM     76  C1  SGN d 302      -4.064   0.052  55.382  0.00  0.00     0.150 C 
ATOM     77  O4  SGN d 302      -6.139  -2.543  52.894  0.00  0.00    -0.348 OA
ATOM     78  O6  SGN d 302      -7.062   0.371  52.420  0.00  0.00    -0.254 OA
ATOM     79  O3S SGN d 302      -3.141   0.141  58.376  0.00  0.00    -0.296 OA
ATOM     80  S2  SGN d 302      -7.831   1.714  51.684  0.00  0.00     0.251 S 
ATOM     81  O5  SGN d 302      -4.765   0.563  54.246  0.00  0.00    -0.349 OA
ATOM     82  O1S SGN d 302      -3.125  -2.017  59.292  0.00  0.00    -0.296 OA
ATOM     83  O6S SGN d 302      -6.870   2.783  51.625  0.00  0.00    -0.572 OA
ATOM     84  N   SGN d 302      -4.086  -1.750  56.913  0.00  0.00    -0.210 NA
ATOM     85  O5S SGN d 302      -8.177   1.329  50.364  0.00  0.00    -0.572 OA
ATOM     86  C4  SGN d 302      -6.038  -1.471  53.832  0.00  0.00     0.095 C 
ATOM     87  O3  SGN d 302      -6.232  -3.007  55.606  0.00  0.00    -0.391 OA
ATOM     88  C2  SGN d 302      -4.938  -1.029  56.015  0.00  0.00     0.081 C 
ATOM     89  O2S SGN d 302      -5.099  -0.811  59.049  0.00  0.00    -0.296 OA
ATOM     90  O1  SGN d 302      -2.809  -0.526  55.030  0.00  0.00    -0.348 OA
ATOM     91  C5  SGN d 302      -5.077  -0.424  53.269  0.00  0.00     0.091 C 
ATOM     92  S1  SGN d 302      -3.844  -1.080  58.496  0.00  0.00     0.156 S 
ATOM     93  C6  SGN d 302      -5.702   0.280  52.121  0.00  0.00     0.067 C 
ATOM     94  O4S SGN d 302      -9.004   2.032  52.413  0.00  0.00    -0.572 OA
ATOM     95  C3  SGN d 302      -5.346  -2.087  55.012  0.00  0.00     0.083 C 
ATOM     96  H   SGN d 302      -3.867   0.862  56.053  0.00  0.00     0.131 H 
ATOM     97  H   SGN d 302      -2.265  -0.026  57.993  0.00  0.00     0.231 HD
ATOM     98  H   SGN d 302      -2.260  -2.186  58.888  0.00  0.00     0.231 HD
ATOM     99  H   SGN d 302      -3.171  -1.826  56.470  0.00  0.00     0.140 HD
ATOM    100  H   SGN d 302      -6.986  -1.028  54.054  0.00  0.00     0.091 H 
ATOM    101  H   SGN d 302      -6.485  -3.679  54.954  0.00  0.00     0.210 HD
ATOM    102  H   SGN d 302      -5.795  -0.556  56.446  0.00  0.00     0.076 H 
ATOM    103  H   SGN d 302      -4.988  -0.435  59.936  0.00  0.00     0.231 HD
ATOM    104  H   SGN d 302      -4.189  -0.940  52.968  0.00  0.00     0.090 H 
ATOM    105  H   SGN d 302      -5.280   1.257  52.010  0.00  0.00     0.080 H 
ATOM    106  H   SGN d 302      -5.537  -0.244  51.203  0.00  0.00     0.080 H 
ATOM    107  H   SGN d 302      -4.455  -2.582  54.688  0.00  0.00     0.089 H 
ATOM    108  O2S SGN d 304       4.553   2.365  48.657  0.00  0.00    -0.296 OA
ATOM    109  C1  SGN d 304       4.179  -1.730  50.922  0.00  0.00     0.150 C 
ATOM    110  S2  SGN d 304       0.923  -5.124  51.335  0.00  0.00     0.251 S 
ATOM    111  O4  SGN d 304       1.517  -1.175  54.027  0.00  0.00    -0.348 OA
ATOM    112  C6  SGN d 304       2.316  -3.833  53.365  0.00  0.00     0.067 C 
ATOM    113  O4S SGN d 304      -0.242  -5.328  52.139  0.00  0.00    -0.572 OA
ATOM    114  O1  SGN d 304       5.261  -1.410  51.773  0.00  0.00    -0.348 OA
ATOM    115  O5  SGN d 304       3.434  -2.814  51.455  0.00  0.00    -0.349 OA
ATOM    116  S1  SGN d 304       4.135   1.000  48.724  0.00  0.00     0.156 S 
ATOM    117  O5S SGN d 304       1.144  -6.266  50.500  0.00  0.00    -0.572 OA
ATOM    118  C3  SGN d 304       2.774  -0.185  52.230  0.00  0.00     0.083 C 
ATOM    119  N   SGN d 304       4.123   0.590  50.447  0.00  0.00    -0.210 NA
ATOM    120  O1S SGN d 304       5.036   0.154  47.991  0.00  0.00    -0.296 OA
ATOM    121  O6  SGN d 304       2.317  -4.902  52.416  0.00  0.00    -0.254 OA
ATOM    122  C4  SGN d 304       2.019  -1.410  52.726  0.00  0.00     0.095 C 
ATOM    123  C5  SGN d 304       2.962  -2.588  52.776  0.00  0.00     0.091 C 
ATOM    124  C2  SGN d 304       3.300  -0.509  50.862  0.00  0.00     0.081 C 
ATOM    125  O6S SGN d 304       0.750  -3.958  50.508  0.00  0.00    -0.572 OA
ATOM    126  O3  SGN d 304       1.929   0.940  52.122  0.00  0.00    -0.391 OA
ATOM    127  O3S SGN d 304       2.805   0.861  48.190  0.00  0.00    -0.296 OA
ATOM    128  H   SGN d 304       5.450   2.447  49.019  0.00  0.00     0.231 HD
ATOM    129  H   SGN d 304       4.534  -2.013  49.952  0.00  0.00     0.131 H 
ATOM    130  H   SGN d 304       1.306  -3.609  53.639  0.00  0.00     0.080 H 
ATOM    131  H   SGN d 304       2.876  -4.137  54.225  0.00  0.00     0.080 H 
ATOM    132  H   SGN d 304       3.555   0.049  52.923  0.00  0.00     0.089 H 
ATOM    133  H   SGN d 304       3.808   1.417  50.955  0.00  0.00     0.140 HD
ATOM    134  H   SGN d 304       5.932   0.248  48.350  0.00  0.00     0.231 HD
ATOM    135  H   SGN d 304       1.206  -1.613  52.060  0.00  0.00     0.091 H 
ATOM    136  H   SGN d 304       3.778  -2.364  53.431  0.00  0.00     0.090 H 
ATOM    137  H   SGN d 304       2.484  -0.682  50.193  0.00  0.00     0.076 H 
ATOM    138  H   SGN d 304       1.213   0.747  51.496  0.00  0.00     0.210 HD
ATOM    139  H   SGN d 304       2.197   1.432  48.685  0.00  0.00     0.231 HD
ATOM    140  O1S UAP d 301      -8.339  -2.230  48.885  0.00  0.00    -0.572 OA
ATOM    141  C3  UAP d 301      -6.875  -5.167  51.852  0.00  0.00     0.086 C 
ATOM    142  O62 UAP d 301     -10.177  -4.038  54.944  0.00  0.00    -0.642 OA
ATOM    143  C2  UAP d 301      -7.260  -3.845  51.236  0.00  0.00     0.135 C 
ATOM    144  O61 UAP d 301      -9.404  -6.052  54.917  0.00  0.00    -0.642 OA
ATOM    145  C1  UAP d 301      -7.410  -2.767  52.288  0.00  0.00     0.167 C 
ATOM    146  C5  UAP d 301      -8.359  -4.496  53.667  0.00  0.00     0.147 C 
ATOM    147  C4  UAP d 301      -7.584  -5.438  53.089  0.00  0.00    -0.034 C 
ATOM    148  O3S UAP d 301      -7.935  -4.472  48.244  0.00  0.00    -0.572 OA
ATOM    149  C6  UAP d 301      -9.309  -4.865  54.577  0.00  0.00     0.233 C 
ATOM    150  O5  UAP d 301      -8.402  -3.209  53.204  0.00  0.00    -0.311 OA
ATOM    151  O2S UAP d 301     -10.134  -3.676  48.679  0.00  0.00    -0.572 OA
ATOM    152  O2  UAP d 301      -8.535  -4.011  50.690  0.00  0.00    -0.244 OA
ATOM    153  O3  UAP d 301      -5.500  -5.222  51.973  0.00  0.00    -0.389 OA
ATOM    154  S   UAP d 301      -8.755  -3.582  49.014  0.00  0.00     0.252 S 
ATOM    155  H   UAP d 301      -7.183  -5.960  51.202  0.00  0.00     0.093 H 
ATOM    156  H   UAP d 301      -6.508  -3.563  50.528  0.00  0.00     0.097 H 
ATOM    157  H   UAP d 301      -7.727  -1.829  51.883  0.00  0.00     0.134 H 
ATOM    158  H   UAP d 301      -7.495  -6.366  53.532  0.00  0.00     0.085 H 
ATOM    159  H   UAP d 301      -5.198  -4.510  52.558  0.00  0.00     0.210 HD
ENDROOT
TORSDOF 50
ENDMDL
MODEL 17
REMARK VINA RESULT:      -8.2      4.658     15.424
REMARK  0 active torsions:
REMARK  status: ('A' for Active; 'I' for Inactive)
REMARK       I    between atoms: C3_1  and  O3_85 
REMARK       I    between atoms: C6_2  and  C5_22 
REMARK       I    between atoms: C6_3  and  C5_14 
REMARK       I    between atoms: C6_3  and  O6_30 
REMARK       I    between atoms: C1_4  and  O1_84 
REMARK       I    between atoms: O2S_6  and  S1_45 
REMARK       I    between atoms: C1_7  and  O1_36 
REMARK       I    between atoms: S1_10  and  N_69 
REMARK       I    between atoms: S1_10  and  O1S_27 
REMARK       I    between atoms: S1_10  and  O2S_71 
REMARK       I    between atoms: S1_10  and  O3S_88 
REMARK       I    between atoms: O4_11  and  C1_42 
REMARK       I    between atoms: O4_11  and  C4_63 
REMARK       I    between atoms: O6_12  and  C6_94 
REMARK       I    between atoms: O6_12  and  S2_28 
REMARK       I    between atoms: C1_13  and  O4_51 
REMARK       I    between atoms: S2_16  and  O6_76 
REMARK       I    between atoms: C3_18  and  O3_103 
REMARK       I    between atoms: C1_19  and  O1_37 
REMARK       I    between atoms: O4_20  and  C1_23 
REMARK       I    between atoms: O4_20  and  C4_77 
REMARK       I    between atoms: O3S_21  and  S1_92 
REMARK       I    between atoms: C3_24  and  O3_87 
REMARK       I    between atoms: O3_25  and  C3_46 
REMARK       I    between atoms: C6_29  and  C5_79 
REMARK       I    between atoms: C6_29  and  O6_76 
REMARK       I    between atoms: O6_30  and  S2_31 
REMARK       I    between atoms: O1_36  and  C4_81 
REMARK       I    between atoms: C2_38  and  O2_72 
REMARK       I    between atoms: S1_45  and  N_74 
REMARK       I    between atoms: S1_45  and  O1S_75 
REMARK       I    between atoms: S1_45  and  O3S_101 
REMARK       I    between atoms: O1S_47  and  S1_92 
REMARK       I    between atoms: S_48  and  O2_91 
REMARK       I    between atoms: C5_49  and  C6_67 
REMARK       I    between atoms: O4_51  and  C4_57 
REMARK       I    between atoms: N_52  and  C2_73 
REMARK       I    between atoms: N_52  and  S1_92 
REMARK       I    between atoms: C5_53  and  C6_61 
REMARK       I    between atoms: C4_56  and  O1_84 
REMARK       I    between atoms: C2_62  and  O2_91 
REMARK       I    between atoms: S_66  and  O2_105 
REMARK       I    between atoms: O3_68  and  C3_102 
REMARK       I    between atoms: N_69  and  C2_83 
REMARK       I    between atoms: C3_70  and  O3_98 
REMARK       I    between atoms: O2_72  and  S_96 
REMARK       I    between atoms: N_74  and  C2_86 
REMARK       I    between atoms: O2S_80  and  S1_92 
REMARK       I    between atoms: C5_89  and  C6_94 
REMARK       I    between atoms: C2_104  and  O2_105 
ROOT
ATOM      1  C3  IDS d 305       6.174  -1.325  51.671  0.00  0.00     0.094 C 
ATOM      2  O3S IDS d 305      10.907  -2.214  51.762  0.00  0.00    -0.572 OA
ATOM      3  C1  IDS d 305       7.931  -0.352  53.086  0.00  0.00     0.161 C 
ATOM      4  O62 IDS d 305       4.710   1.286  54.750  0.00  0.00    -0.646 OA
ATOM      5  O5  IDS d 305       6.778   0.262  53.620  0.00  0.00    -0.340 OA
ATOM      6  O61 IDS d 305       4.025  -0.665  55.559  0.00  0.00    -0.646 OA
ATOM      7  O1S IDS d 305       9.914  -3.507  50.016  0.00  0.00    -0.572 OA
ATOM      8  C5  IDS d 305       5.856  -0.708  54.083  0.00  0.00     0.152 C 
ATOM      9  S   IDS d 305       9.690  -2.853  51.286  0.00  0.00     0.252 S 
ATOM     10  C6  IDS d 305       4.790   0.036  54.875  0.00  0.00     0.206 C 
ATOM     11  C4  IDS d 305       5.225  -1.394  52.853  0.00  0.00     0.103 C 
ATOM     12  O3  IDS d 305       5.872  -2.353  50.785  0.00  0.00    -0.390 OA
ATOM     13  O2S IDS d 305       9.225  -3.811  52.247  0.00  0.00    -0.572 OA
ATOM     14  C2  IDS d 305       7.533  -1.561  52.227  0.00  0.00     0.134 C 
ATOM     15  O2  IDS d 305       8.391  -1.677  51.118  0.00  0.00    -0.244 OA
ATOM     16  H   IDS d 305       6.104  -0.388  51.159  0.00  0.00     0.091 H 
ATOM     17  H   IDS d 305       8.489   0.315  52.463  0.00  0.00     0.133 H 
ATOM     18  H   IDS d 305       6.321  -1.451  54.697  0.00  0.00     0.104 H 
ATOM     19  H   IDS d 305       5.029  -2.409  53.125  0.00  0.00     0.092 H 
ATOM     20  H   IDS d 305       5.935  -3.204  51.246  0.00  0.00     0.210 HD
ATOM     21  H   IDS d 305       7.578  -2.439  52.839  0.00  0.00     0.097 H 
ATOM     22  C6  IDS d 303      -3.188   0.504  51.030  0.00  0.00     0.206 C 
ATOM     23  O61 IDS d 303      -3.668   1.533  50.575  0.00  0.00    -0.646 OA
ATOM     24  C5  IDS d 303      -2.621   0.518  52.405  0.00  0.00     0.152 C 
ATOM     25  C1  IDS d 303      -1.401  -0.798  53.943  0.00  0.00     0.161 C 
ATOM     26  O3  IDS d 303      -1.749   2.123  54.635  0.00  0.00    -0.390 OA
ATOM     27  O2S IDS d 303      -2.436  -0.911  57.948  0.00  0.00    -0.572 OA
ATOM     28  O5  IDS d 303      -2.217  -0.809  52.765  0.00  0.00    -0.340 OA
ATOM     29  C3  IDS d 303      -2.770   1.192  54.761  0.00  0.00     0.094 C 
ATOM     30  S   IDS d 303      -2.574  -1.871  56.919  0.00  0.00     0.252 S 
ATOM     31  C4  IDS d 303      -3.579   1.064  53.455  0.00  0.00     0.103 C 
ATOM     32  O1S IDS d 303      -3.569  -2.829  57.201  0.00  0.00    -0.572 OA
ATOM     33  C2  IDS d 303      -2.151  -0.132  55.098  0.00  0.00     0.134 C 
ATOM     34  O3S IDS d 303      -1.292  -2.453  56.774  0.00  0.00    -0.572 OA
ATOM     35  O2  IDS d 303      -3.101  -0.989  55.551  0.00  0.00    -0.244 OA
ATOM     36  O62 IDS d 303      -2.954  -0.483  50.366  0.00  0.00    -0.646 OA
ATOM     37  H   IDS d 303      -1.782   1.181  52.387  0.00  0.00     0.104 H 
ATOM     38  H   IDS d 303      -1.200  -1.814  54.208  0.00  0.00     0.133 H 
ATOM     39  H   IDS d 303      -1.259   2.181  55.470  0.00  0.00     0.210 HD
ATOM     40  H   IDS d 303      -3.441   1.510  55.531  0.00  0.00     0.091 H 
ATOM     41  H   IDS d 303      -4.003   2.012  53.197  0.00  0.00     0.092 H 
ATOM     42  H   IDS d 303      -1.424   0.082  55.852  0.00  0.00     0.097 H 
ATOM     43  C6  SGN d 306      10.724   0.791  52.914  0.00  0.00     0.067 C 
ATOM     44  S1  SGN d 306      10.545   1.726  59.759  0.00  0.00     0.156 S 
ATOM     45  C5  SGN d 306      10.761   0.360  54.370  0.00  0.00     0.091 C 
ATOM     46  C3  SGN d 306       9.316   0.006  56.376  0.00  0.00     0.083 C 
ATOM     47  C1  SGN d 306      11.604   1.071  56.519  0.00  0.00     0.147 C 
ATOM     48  O1S SGN d 306      10.655   1.002  60.999  0.00  0.00    -0.296 OA
ATOM     49  O6  SGN d 306       9.774   1.844  52.766  0.00  0.00    -0.254 OA
ATOM     50  S2  SGN d 306       9.825   2.886  51.335  0.00  0.00     0.251 S 
ATOM     51  O4S SGN d 306       8.810   2.503  50.394  0.00  0.00    -0.572 OA
ATOM     52  O1  SGN d 306      12.262  -0.164  56.764  0.00  0.00    -0.369 OA
ATOM     53  O4  SGN d 306       8.677  -0.779  54.205  0.00  0.00    -0.348 OA
ATOM     54  C4  SGN d 306       9.331   0.292  54.882  0.00  0.00     0.095 C 
ATOM     55  N   SGN d 306      10.311   0.551  58.467  0.00  0.00    -0.210 NA
ATOM     56  O2S SGN d 306       9.396   2.585  59.783  0.00  0.00    -0.296 OA
ATOM     57  O5  SGN d 306      11.509   1.340  55.126  0.00  0.00    -0.350 OA
ATOM     58  O6S SGN d 306       9.579   4.235  51.770  0.00  0.00    -0.572 OA
ATOM     59  C2  SGN d 306      10.195   1.019  57.102  0.00  0.00     0.081 C 
ATOM     60  O3S SGN d 306      11.747   2.486  59.531  0.00  0.00    -0.296 OA
ATOM     61  O5S SGN d 306      11.140   2.799  50.748  0.00  0.00    -0.572 OA
ATOM     62  O3  SGN d 306       7.993   0.241  56.837  0.00  0.00    -0.391 OA
ATOM     63  H   SGN d 306      10.440  -0.037  52.301  0.00  0.00     0.080 H 
ATOM     64  H   SGN d 306      11.693   1.134  52.613  0.00  0.00     0.080 H 
ATOM     65  H   SGN d 306      11.228  -0.598  54.473  0.00  0.00     0.090 H 
ATOM     66  H   SGN d 306       9.655  -0.993  56.554  0.00  0.00     0.089 H 
ATOM     67  H   SGN d 306      12.177   1.847  56.981  0.00  0.00     0.131 H 
ATOM     68  H   SGN d 306       9.844   0.492  61.148  0.00  0.00     0.231 HD
ATOM     69  H   SGN d 306      11.761  -0.885  56.354  0.00  0.00     0.212 HD
ATOM     70  H   SGN d 306       8.840   1.225  54.704  0.00  0.00     0.091 H 
ATOM     71  H   SGN d 306       9.454   0.039  58.681  0.00  0.00     0.140 HD
ATOM     72  H   SGN d 306       8.599   2.055  59.937  0.00  0.00     0.231 HD
ATOM     73  H   SGN d 306       9.758   1.992  57.016  0.00  0.00     0.076 H 
ATOM     74  H   SGN d 306      12.511   1.887  59.518  0.00  0.00     0.231 HD
ATOM     75  H   SGN d 306       7.743   1.160  56.648  0.00  0.00     0.210 HD
ATOM     76  C1  SGN d 302      -5.958   0.549  53.434  0.00  0.00     0.150 C 
ATOM     77  O4  SGN d 302      -7.233  -3.189  52.154  0.00  0.00    -0.348 OA
ATOM     78  O6  SGN d 302      -8.247  -0.989  50.231  0.00  0.00    -0.254 OA
ATOM     79  O3S SGN d 302      -5.725   2.109  56.142  0.00  0.00    -0.296 OA
ATOM     80  S2  SGN d 302      -8.935  -0.262  48.840  0.00  0.00     0.251 S 
ATOM     81  O5  SGN d 302      -6.429   0.377  52.096  0.00  0.00    -0.349 OA
ATOM     82  O1S SGN d 302      -5.748   0.617  57.951  0.00  0.00    -0.296 OA
ATOM     83  O6S SGN d 302      -8.070   0.815  48.442  0.00  0.00    -0.572 OA
ATOM     84  N   SGN d 302      -6.179  -0.363  55.604  0.00  0.00    -0.210 NA
ATOM     85  O5S SGN d 302      -8.953  -1.245  47.817  0.00  0.00    -0.572 OA
ATOM     86  C4  SGN d 302      -7.422  -1.812  52.484  0.00  0.00     0.095 C 
ATOM     87  O3  SGN d 302      -7.883  -2.412  54.714  0.00  0.00    -0.391 OA
ATOM     88  C2  SGN d 302      -6.865  -0.270  54.351  0.00  0.00     0.081 C 
ATOM     89  O2S SGN d 302      -7.706   1.238  56.860  0.00  0.00    -0.296 OA
ATOM     90  O1  SGN d 302      -4.616   0.096  53.600  0.00  0.00    -0.348 OA
ATOM     91  C5  SGN d 302      -6.444  -0.977  51.658  0.00  0.00     0.091 C 
ATOM     92  S1  SGN d 302      -6.343   0.969  56.706  0.00  0.00     0.156 S 
ATOM     93  C6  SGN d 302      -6.852  -0.972  50.231  0.00  0.00     0.067 C 
ATOM     94  O4S SGN d 302     -10.261   0.143  49.137  0.00  0.00    -0.572 OA
ATOM     95  C3  SGN d 302      -6.961  -1.715  53.908  0.00  0.00     0.083 C 
ATOM     96  H   SGN d 302      -5.976   1.592  53.669  0.00  0.00     0.131 H 
ATOM     97  H   SGN d 302      -4.777   1.941  56.028  0.00  0.00     0.231 HD
ATOM     98  H   SGN d 302      -4.805   0.436  57.817  0.00  0.00     0.231 HD
ATOM     99  H   SGN d 302      -5.186  -0.472  55.402  0.00  0.00     0.140 HD
ATOM    100  H   SGN d 302      -8.427  -1.484  52.318  0.00  0.00     0.091 H 
ATOM    101  H   SGN d 302      -7.936  -3.335  54.421  0.00  0.00     0.210 HD
ATOM    102  H   SGN d 302      -7.830   0.192  54.367  0.00  0.00     0.076 H 
ATOM    103  H   SGN d 302      -7.821   1.981  57.472  0.00  0.00     0.231 HD
ATOM    104  H   SGN d 302      -5.474  -1.415  51.780  0.00  0.00     0.090 H 
ATOM    105  H   SGN d 302      -6.491  -0.089  49.745  0.00  0.00     0.080 H 
ATOM    106  H   SGN d 302      -6.450  -1.812  49.705  0.00  0.00     0.080 H 
ATOM    107  H   SGN d 302      -5.986  -2.144  54.002  0.00  0.00     0.089 H 
ATOM    108  O2S SGN d 304       3.725   1.061  47.885  0.00  0.00    -0.296 OA
ATOM    109  C1  SGN d 304       3.175  -1.604  51.709  0.00  0.00     0.150 C 
ATOM    110  S2  SGN d 304       0.174  -4.960  53.136  0.00  0.00     0.251 S 
ATOM    111  O4  SGN d 304      -0.139  -0.189  53.723  0.00  0.00    -0.348 OA
ATOM    112  C6  SGN d 304       0.985  -2.688  54.519  0.00  0.00     0.067 C 
ATOM    113  O4S SGN d 304      -1.119  -4.979  53.744  0.00  0.00    -0.572 OA
ATOM    114  O1  SGN d 304       4.015  -0.762  52.473  0.00  0.00    -0.348 OA
ATOM    115  O5  SGN d 304       2.415  -2.448  52.561  0.00  0.00    -0.349 OA
ATOM    116  S1  SGN d 304       3.407  -0.182  48.515  0.00  0.00     0.156 S 
ATOM    117  O5S SGN d 304       0.660  -6.297  52.980  0.00  0.00    -0.572 OA
ATOM    118  C3  SGN d 304       1.403   0.099  51.899  0.00  0.00     0.083 C 
ATOM    119  N   SGN d 304       3.048   0.219  50.202  0.00  0.00    -0.210 NA
ATOM    120  O1S SGN d 304       4.509  -1.099  48.417  0.00  0.00    -0.296 OA
ATOM    121  O6  SGN d 304       1.276  -4.050  54.195  0.00  0.00    -0.254 OA
ATOM    122  C4  SGN d 304       0.652  -0.888  52.782  0.00  0.00     0.095 C 
ATOM    123  C5  SGN d 304       1.648  -1.744  53.528  0.00  0.00     0.091 C 
ATOM    124  C2  SGN d 304       2.240  -0.704  50.946  0.00  0.00     0.081 C 
ATOM    125  O6S SGN d 304       0.100  -4.329  51.844  0.00  0.00    -0.572 OA
ATOM    126  O3  SGN d 304       0.519   0.898  51.144  0.00  0.00    -0.391 OA
ATOM    127  O3S SGN d 304       2.242  -0.766  47.903  0.00  0.00    -0.296 OA
ATOM    128  H   SGN d 304       4.511   1.445  48.304  0.00  0.00     0.231 HD
ATOM    129  H   SGN d 304       3.754  -2.223  51.056  0.00  0.00     0.131 H 
ATOM    130  H   SGN d 304      -0.074  -2.540  54.491  0.00  0.00     0.080 H 
ATOM    131  H   SGN d 304       1.364  -2.480  55.498  0.00  0.00     0.080 H 
ATOM    132  H   SGN d 304       1.992   0.744  52.516  0.00  0.00     0.089 H 
ATOM    133  H   SGN d 304       2.567   1.119  50.207  0.00  0.00     0.140 HD
ATOM    134  H   SGN d 304       5.294  -0.706  48.829  0.00  0.00     0.231 HD
ATOM    135  H   SGN d 304       0.024  -1.499  52.169  0.00  0.00     0.091 H 
ATOM    136  H   SGN d 304       2.281  -1.119  54.123  0.00  0.00     0.090 H 
ATOM    137  H   SGN d 304       1.606  -1.290  50.315  0.00  0.00     0.076 H 
ATOM    138  H   SGN d 304      -0.025   0.330  50.575  0.00  0.00     0.210 HD
ATOM    139  H   SGN d 304       1.498  -0.146  47.968  0.00  0.00     0.231 HD
ATOM    140  O1S UAP d 301      -8.515  -5.061  48.172  0.00  0.00    -0.572 OA
ATOM    141  C3  UAP d 301      -7.520  -6.085  52.359  0.00  0.00     0.086 C 
ATOM    142  O62 UAP d 301     -11.496  -4.279  53.990  0.00  0.00    -0.642 OA
ATOM    143  C2  UAP d 301      -7.859  -5.259  51.143  0.00  0.00     0.135 C 
ATOM    144  O61 UAP d 301     -10.586  -5.934  55.033  0.00  0.00    -0.642 OA
ATOM    145  C1  UAP d 301      -8.318  -3.869  51.530  0.00  0.00     0.167 C 
ATOM    146  C5  UAP d 301      -9.413  -4.941  53.386  0.00  0.00     0.147 C 
ATOM    147  C4  UAP d 301      -8.461  -5.896  53.448  0.00  0.00    -0.034 C 
ATOM    148  O3S UAP d 301      -7.811  -7.251  48.728  0.00  0.00    -0.572 OA
ATOM    149  C6  UAP d 301     -10.509  -5.023  54.197  0.00  0.00     0.233 C 
ATOM    150  O5  UAP d 301      -9.451  -4.020  52.374  0.00  0.00    -0.311 OA
ATOM    151  O2S UAP d 301     -10.105  -6.728  48.382  0.00  0.00    -0.572 OA
ATOM    152  O2  UAP d 301      -8.967  -5.863  50.543  0.00  0.00    -0.244 OA
ATOM    153  O3  UAP d 301      -6.205  -5.848  52.710  0.00  0.00    -0.389 OA
ATOM    154  S   UAP d 301      -8.845  -6.264  48.850  0.00  0.00     0.252 S 
ATOM    155  H   UAP d 301      -7.616  -7.123  52.117  0.00  0.00     0.093 H 
ATOM    156  H   UAP d 301      -6.994  -5.197  50.517  0.00  0.00     0.097 H 
ATOM    157  H   UAP d 301      -8.609  -3.276  50.688  0.00  0.00     0.134 H 
ATOM    158  H   UAP d 301      -8.402  -6.501  54.281  0.00  0.00     0.085 H 
ATOM    159  H   UAP d 301      -6.094  -4.910  52.933  0.00  0.00     0.210 HD
ENDROOT
TORSDOF 50
ENDMDL
MODEL 18
REMARK VINA RESULT:      -8.1      4.120      7.717
REMARK  0 active torsions:
REMARK  status: ('A' for Active; 'I' for Inactive)
REMARK       I    between atoms: C3_1  and  O3_85 
REMARK       I    between atoms: C6_2  and  C5_22 
REMARK       I    between atoms: C6_3  and  C5_14 
REMARK       I    between atoms: C6_3  and  O6_30 
REMARK       I    between atoms: C1_4  and  O1_84 
REMARK       I    between atoms: O2S_6  and  S1_45 
REMARK       I    between atoms: C1_7  and  O1_36 
REMARK       I    between atoms: S1_10  and  N_69 
REMARK       I    between atoms: S1_10  and  O1S_27 
REMARK       I    between atoms: S1_10  and  O2S_71 
REMARK       I    between atoms: S1_10  and  O3S_88 
REMARK       I    between atoms: O4_11  and  C1_42 
REMARK       I    between atoms: O4_11  and  C4_63 
REMARK       I    between atoms: O6_12  and  C6_94 
REMARK       I    between atoms: O6_12  and  S2_28 
REMARK       I    between atoms: C1_13  and  O4_51 
REMARK       I    between atoms: S2_16  and  O6_76 
REMARK       I    between atoms: C3_18  and  O3_103 
REMARK       I    between atoms: C1_19  and  O1_37 
REMARK       I    between atoms: O4_20  and  C1_23 
REMARK       I    between atoms: O4_20  and  C4_77 
REMARK       I    between atoms: O3S_21  and  S1_92 
REMARK       I    between atoms: C3_24  and  O3_87 
REMARK       I    between atoms: O3_25  and  C3_46 
REMARK       I    between atoms: C6_29  and  C5_79 
REMARK       I    between atoms: C6_29  and  O6_76 
REMARK       I    between atoms: O6_30  and  S2_31 
REMARK       I    between atoms: O1_36  and  C4_81 
REMARK       I    between atoms: C2_38  and  O2_72 
REMARK       I    between atoms: S1_45  and  N_74 
REMARK       I    between atoms: S1_45  and  O1S_75 
REMARK       I    between atoms: S1_45  and  O3S_101 
REMARK       I    between atoms: O1S_47  and  S1_92 
REMARK       I    between atoms: S_48  and  O2_91 
REMARK       I    between atoms: C5_49  and  C6_67 
REMARK       I    between atoms: O4_51  and  C4_57 
REMARK       I    between atoms: N_52  and  C2_73 
REMARK       I    between atoms: N_52  and  S1_92 
REMARK       I    between atoms: C5_53  and  C6_61 
REMARK       I    between atoms: C4_56  and  O1_84 
REMARK       I    between atoms: C2_62  and  O2_91 
REMARK       I    between atoms: S_66  and  O2_105 
REMARK       I    between atoms: O3_68  and  C3_102 
REMARK       I    between atoms: N_69  and  C2_83 
REMARK       I    between atoms: C3_70  and  O3_98 
REMARK       I    between atoms: O2_72  and  S_96 
REMARK       I    between atoms: N_74  and  C2_86 
REMARK       I    between atoms: O2S_80  and  S1_92 
REMARK       I    between atoms: C5_89  and  C6_94 
REMARK       I    between atoms: C2_104  and  O2_105 
ROOT
ATOM      1  C3  IDS d 305      -1.659  -4.479  53.094  0.00  0.00     0.094 C 
ATOM      2  O3S IDS d 305      -6.163  -6.124  52.643  0.00  0.00    -0.572 OA
ATOM      3  C1  IDS d 305      -3.702  -3.821  54.289  0.00  0.00     0.161 C 
ATOM      4  O62 IDS d 305      -1.160  -1.109  55.708  0.00  0.00    -0.646 OA
ATOM      5  O5  IDS d 305      -2.767  -2.907  54.822  0.00  0.00    -0.340 OA
ATOM      6  O61 IDS d 305      -1.021  -0.080  53.744  0.00  0.00    -0.646 OA
ATOM      7  O1S IDS d 305      -4.739  -7.367  51.181  0.00  0.00    -0.572 OA
ATOM      8  C5  IDS d 305      -2.181  -2.126  53.795  0.00  0.00     0.152 C 
ATOM      9  S   IDS d 305      -4.929  -6.111  51.873  0.00  0.00     0.252 S 
ATOM     10  C6  IDS d 305      -1.407  -1.007  54.478  0.00  0.00     0.206 C 
ATOM     11  C4  IDS d 305      -1.219  -3.029  52.996  0.00  0.00     0.103 C 
ATOM     12  O3  IDS d 305      -1.161  -5.179  52.000  0.00  0.00    -0.390 OA
ATOM     13  O2S IDS d 305      -4.946  -5.035  50.925  0.00  0.00    -0.572 OA
ATOM     14  C2  IDS d 305      -3.143  -4.459  53.008  0.00  0.00     0.134 C 
ATOM     15  O2  IDS d 305      -3.544  -5.804  52.917  0.00  0.00    -0.244 OA
ATOM     16  H   IDS d 305      -1.312  -4.940  53.994  0.00  0.00     0.091 H 
ATOM     17  H   IDS d 305      -3.922  -4.614  54.973  0.00  0.00     0.133 H 
ATOM     18  H   IDS d 305      -2.912  -1.718  53.129  0.00  0.00     0.104 H 
ATOM     19  H   IDS d 305      -1.240  -2.692  51.981  0.00  0.00     0.092 H 
ATOM     20  H   IDS d 305      -1.475  -4.764  51.181  0.00  0.00     0.210 HD
ATOM     21  H   IDS d 305      -3.498  -3.896  52.170  0.00  0.00     0.097 H 
ATOM     22  C6  IDS d 303       7.426  -1.653  54.033  0.00  0.00     0.206 C 
ATOM     23  O61 IDS d 303       8.141  -1.911  54.990  0.00  0.00    -0.646 OA
ATOM     24  C5  IDS d 303       6.401  -0.583  54.164  0.00  0.00     0.152 C 
ATOM     25  C1  IDS d 303       4.577   0.415  53.042  0.00  0.00     0.161 C 
ATOM     26  O3  IDS d 303       4.944   1.151  55.949  0.00  0.00    -0.390 OA
ATOM     27  O2S IDS d 303       4.061   4.520  53.030  0.00  0.00    -0.572 OA
ATOM     28  O5  IDS d 303       5.760  -0.381  52.899  0.00  0.00    -0.340 OA
ATOM     29  C3  IDS d 303       5.748   1.655  54.936  0.00  0.00     0.094 C 
ATOM     30  S   IDS d 303       4.467   3.625  52.012  0.00  0.00     0.252 S 
ATOM     31  C4  IDS d 303       6.961   0.739  54.672  0.00  0.00     0.103 C 
ATOM     32  O1S IDS d 303       5.187   4.265  50.983  0.00  0.00    -0.572 OA
ATOM     33  C2  IDS d 303       4.918   1.756  53.692  0.00  0.00     0.134 C 
ATOM     34  O3S IDS d 303       3.273   3.026  51.542  0.00  0.00    -0.572 OA
ATOM     35  O2  IDS d 303       5.543   2.537  52.776  0.00  0.00    -0.244 OA
ATOM     36  O62 IDS d 303       7.351  -2.345  53.040  0.00  0.00    -0.646 OA
ATOM     37  H   IDS d 303       5.699  -0.916  54.900  0.00  0.00     0.104 H 
ATOM     38  H   IDS d 303       4.190   0.599  52.061  0.00  0.00     0.133 H 
ATOM     39  H   IDS d 303       4.193   1.746  56.092  0.00  0.00     0.210 HD
ATOM     40  H   IDS d 303       6.121   2.614  55.230  0.00  0.00     0.091 H 
ATOM     41  H   IDS d 303       7.544   0.644  55.564  0.00  0.00     0.092 H 
ATOM     42  H   IDS d 303       3.991   2.187  54.008  0.00  0.00     0.097 H 
ATOM     43  C6  SGN d 306      -6.107  -5.022  55.672  0.00  0.00     0.067 C 
ATOM     44  S1  SGN d 306      -8.343   1.397  56.918  0.00  0.00     0.156 S 
ATOM     45  C5  SGN d 306      -6.716  -3.677  55.316  0.00  0.00     0.091 C 
ATOM     46  C3  SGN d 306      -6.147  -1.276  54.931  0.00  0.00     0.083 C 
ATOM     47  C1  SGN d 306      -8.208  -1.997  56.205  0.00  0.00     0.147 C 
ATOM     48  O1S SGN d 306      -8.971   2.518  56.268  0.00  0.00    -0.296 OA
ATOM     49  O6  SGN d 306      -5.066  -4.822  56.625  0.00  0.00    -0.254 OA
ATOM     50  S2  SGN d 306      -4.485  -6.184  57.597  0.00  0.00     0.251 S 
ATOM     51  O4S SGN d 306      -3.241  -6.681  57.078  0.00  0.00    -0.572 OA
ATOM     52  O1  SGN d 306      -9.033  -1.996  55.048  0.00  0.00    -0.369 OA
ATOM     53  O4  SGN d 306      -4.844  -3.049  53.986  0.00  0.00    -0.348 OA
ATOM     54  C4  SGN d 306      -5.587  -2.674  55.144  0.00  0.00     0.095 C 
ATOM     55  N   SGN d 306      -7.775   0.297  55.665  0.00  0.00    -0.210 NA
ATOM     56  O2S SGN d 306      -7.200   1.832  57.669  0.00  0.00    -0.296 OA
ATOM     57  O5  SGN d 306      -7.585  -3.261  56.396  0.00  0.00    -0.350 OA
ATOM     58  O6S SGN d 306      -4.278  -5.706  58.938  0.00  0.00    -0.572 OA
ATOM     59  C2  SGN d 306      -7.121  -0.936  56.054  0.00  0.00     0.081 C 
ATOM     60  O3S SGN d 306      -9.294   0.734  57.772  0.00  0.00    -0.296 OA
ATOM     61  O5S SGN d 306      -5.496  -7.213  57.601  0.00  0.00    -0.572 OA
ATOM     62  O3  SGN d 306      -5.067  -0.363  55.068  0.00  0.00    -0.391 OA
ATOM     63  H   SGN d 306      -5.705  -5.478  54.791  0.00  0.00     0.080 H 
ATOM     64  H   SGN d 306      -6.859  -5.662  56.085  0.00  0.00     0.080 H 
ATOM     65  H   SGN d 306      -7.284  -3.741  54.411  0.00  0.00     0.090 H 
ATOM     66  H   SGN d 306      -6.628  -1.223  53.977  0.00  0.00     0.089 H 
ATOM     67  H   SGN d 306      -8.827  -1.787  57.052  0.00  0.00     0.131 H 
ATOM     68  H   SGN d 306      -8.327   2.962  55.695  0.00  0.00     0.231 HD
ATOM     69  H   SGN d 306      -8.492  -2.185  54.265  0.00  0.00     0.212 HD
ATOM     70  H   SGN d 306      -4.972  -2.669  56.019  0.00  0.00     0.091 H 
ATOM     71  H   SGN d 306      -7.113   0.816  55.088  0.00  0.00     0.140 HD
ATOM     72  H   SGN d 306      -6.573   2.275  57.077  0.00  0.00     0.231 HD
ATOM     73  H   SGN d 306      -6.586  -0.867  56.978  0.00  0.00     0.076 H 
ATOM     74  H   SGN d 306     -10.057   0.448  57.244  0.00  0.00     0.231 HD
ATOM     75  H   SGN d 306      -4.672  -0.458  55.949  0.00  0.00     0.210 HD
ATOM     76  C1  SGN d 302       9.117   1.601  53.943  0.00  0.00     0.150 C 
ATOM     77  O4  SGN d 302      10.382   0.925  50.047  0.00  0.00    -0.348 OA
ATOM     78  O6  SGN d 302      12.247  -0.517  52.049  0.00  0.00    -0.254 OA
ATOM     79  O3S SGN d 302       8.073   4.015  55.648  0.00  0.00    -0.296 OA
ATOM     80  S2  SGN d 302      13.465  -1.565  52.643  0.00  0.00     0.251 S 
ATOM     81  O5  SGN d 302      10.024   0.532  53.664  0.00  0.00    -0.349 OA
ATOM     82  O1S SGN d 302       7.282   5.722  54.250  0.00  0.00    -0.296 OA
ATOM     83  O6S SGN d 302      12.920  -2.267  53.773  0.00  0.00    -0.572 OA
ATOM     84  N   SGN d 302       8.437   3.711  53.121  0.00  0.00    -0.210 NA
ATOM     85  O5S SGN d 302      13.755  -2.498  51.614  0.00  0.00    -0.572 OA
ATOM     86  C4  SGN d 302      10.577   1.285  51.415  0.00  0.00     0.095 C 
ATOM     87  O3  SGN d 302      10.130   3.535  50.886  0.00  0.00    -0.391 OA
ATOM     88  C2  SGN d 302       9.539   2.797  53.091  0.00  0.00     0.081 C 
ATOM     89  O2S SGN d 302       9.555   5.421  54.637  0.00  0.00    -0.296 OA
ATOM     90  O1  SGN d 302       7.769   1.267  53.622  0.00  0.00    -0.348 OA
ATOM     91  C5  SGN d 302      10.058   0.147  52.294  0.00  0.00     0.091 C 
ATOM     92  S1  SGN d 302       8.323   4.780  54.485  0.00  0.00     0.156 S 
ATOM     93  C6  SGN d 302      10.958  -1.030  52.194  0.00  0.00     0.067 C 
ATOM     94  O4S SGN d 302      14.625  -0.806  52.940  0.00  0.00    -0.572 OA
ATOM     95  C3  SGN d 302       9.641   2.438  51.623  0.00  0.00     0.083 C 
ATOM     96  H   SGN d 302       9.155   1.814  54.990  0.00  0.00     0.131 H 
ATOM     97  H   SGN d 302       7.220   3.562  55.561  0.00  0.00     0.231 HD
ATOM     98  H   SGN d 302       6.439   5.254  54.148  0.00  0.00     0.231 HD
ATOM     99  H   SGN d 302       7.581   3.159  53.093  0.00  0.00     0.140 HD
ATOM    100  H   SGN d 302      11.601   1.496  51.643  0.00  0.00     0.091 H 
ATOM    101  H   SGN d 302      10.190   3.293  49.948  0.00  0.00     0.210 HD
ATOM    102  H   SGN d 302      10.473   3.161  53.464  0.00  0.00     0.076 H 
ATOM    103  H   SGN d 302       9.514   6.024  55.395  0.00  0.00     0.231 HD
ATOM    104  H   SGN d 302       9.072  -0.092  51.953  0.00  0.00     0.090 H 
ATOM    105  H   SGN d 302      10.891  -1.625  53.080  0.00  0.00     0.080 H 
ATOM    106  H   SGN d 302      10.691  -1.657  51.369  0.00  0.00     0.080 H 
ATOM    107  H   SGN d 302       8.661   2.171  51.290  0.00  0.00     0.089 H 
ATOM    108  O2S SGN d 304       2.233  -7.127  55.061  0.00  0.00    -0.296 OA
ATOM    109  C1  SGN d 304       1.074  -3.336  52.545  0.00  0.00     0.150 C 
ATOM    110  S2  SGN d 304       2.988  -0.866  49.005  0.00  0.00     0.251 S 
ATOM    111  O4  SGN d 304       3.551  -0.262  53.751  0.00  0.00    -0.348 OA
ATOM    112  C6  SGN d 304       1.965   0.095  51.405  0.00  0.00     0.067 C 
ATOM    113  O4S SGN d 304       3.961   0.176  48.898  0.00  0.00    -0.572 OA
ATOM    114  O1  SGN d 304       0.104  -2.946  53.496  0.00  0.00    -0.348 OA
ATOM    115  O5  SGN d 304       1.381  -2.255  51.679  0.00  0.00    -0.349 OA
ATOM    116  S1  SGN d 304       2.170  -6.409  53.826  0.00  0.00     0.156 S 
ATOM    117  O5S SGN d 304       2.458  -1.173  47.711  0.00  0.00    -0.572 OA
ATOM    118  C3  SGN d 304       2.819  -2.529  54.088  0.00  0.00     0.083 C 
ATOM    119  N   SGN d 304       1.928  -4.713  54.274  0.00  0.00    -0.210 NA
ATOM    120  O1S SGN d 304       1.093  -6.894  53.009  0.00  0.00    -0.296 OA
ATOM    121  O6  SGN d 304       1.675  -0.298  50.061  0.00  0.00    -0.254 OA
ATOM    122  C4  SGN d 304       3.090  -1.419  53.081  0.00  0.00     0.095 C 
ATOM    123  C5  SGN d 304       1.809  -1.082  52.356  0.00  0.00     0.091 C 
ATOM    124  C2  SGN d 304       2.310  -3.713  53.319  0.00  0.00     0.081 C 
ATOM    125  O6S SGN d 304       3.593  -2.047  49.563  0.00  0.00    -0.572 OA
ATOM    126  O3  SGN d 304       3.994  -2.915  54.766  0.00  0.00    -0.391 OA
ATOM    127  O3S SGN d 304       3.412  -6.542  53.110  0.00  0.00    -0.296 OA
ATOM    128  H   SGN d 304       1.391  -7.031  55.534  0.00  0.00     0.231 HD
ATOM    129  H   SGN d 304       0.714  -4.150  51.951  0.00  0.00     0.131 H 
ATOM    130  H   SGN d 304       2.971   0.457  51.456  0.00  0.00     0.080 H 
ATOM    131  H   SGN d 304       1.278   0.863  51.694  0.00  0.00     0.080 H 
ATOM    132  H   SGN d 304       2.114  -2.179  54.813  0.00  0.00     0.089 H 
ATOM    133  H   SGN d 304       2.463  -4.542  55.126  0.00  0.00     0.140 HD
ATOM    134  H   SGN d 304       0.256  -6.805  53.491  0.00  0.00     0.231 HD
ATOM    135  H   SGN d 304       3.834  -1.751  52.387  0.00  0.00     0.091 H 
ATOM    136  H   SGN d 304       1.070  -0.769  53.064  0.00  0.00     0.090 H 
ATOM    137  H   SGN d 304       3.067  -4.060  52.648  0.00  0.00     0.076 H 
ATOM    138  H   SGN d 304       4.647  -3.237  54.125  0.00  0.00     0.210 HD
ATOM    139  H   SGN d 304       4.140  -6.215  53.661  0.00  0.00     0.231 HD
ATOM    140  O1S UAP d 301      12.829  -2.284  47.875  0.00  0.00    -0.572 OA
ATOM    141  C3  UAP d 301      10.277   1.255  47.150  0.00  0.00     0.086 C 
ATOM    142  O62 UAP d 301      13.546   4.213  48.665  0.00  0.00    -0.642 OA
ATOM    143  C2  UAP d 301      11.119   0.240  47.882  0.00  0.00     0.135 C 
ATOM    144  O61 UAP d 301      12.154   4.867  47.153  0.00  0.00    -0.642 OA
ATOM    145  C1  UAP d 301      11.545   0.752  49.242  0.00  0.00     0.167 C 
ATOM    146  C5  UAP d 301      11.771   2.893  48.166  0.00  0.00     0.147 C 
ATOM    147  C4  UAP d 301      10.770   2.612  47.306  0.00  0.00    -0.034 C 
ATOM    148  O3S UAP d 301      11.751  -2.000  45.788  0.00  0.00    -0.572 OA
ATOM    149  C6  UAP d 301      12.481   4.051  48.025  0.00  0.00     0.233 C 
ATOM    150  O5  UAP d 301      12.270   1.955  49.030  0.00  0.00    -0.311 OA
ATOM    151  O2S UAP d 301      14.054  -1.483  46.083  0.00  0.00    -0.572 OA
ATOM    152  O2  UAP d 301      12.301   0.096  47.152  0.00  0.00    -0.244 OA
ATOM    153  O3  UAP d 301       8.956   1.095  47.523  0.00  0.00    -0.389 OA
ATOM    154  S   UAP d 301      12.765  -1.517  46.681  0.00  0.00     0.252 S 
ATOM    155  H   UAP d 301      10.348   1.078  46.097  0.00  0.00     0.093 H 
ATOM    156  H   UAP d 301      10.553  -0.662  47.991  0.00  0.00     0.097 H 
ATOM    157  H   UAP d 301      12.181   0.068  49.764  0.00  0.00     0.134 H 
ATOM    158  H   UAP d 301      10.349   3.372  46.750  0.00  0.00     0.085 H 
ATOM    159  H   UAP d 301       8.868   1.251  48.476  0.00  0.00     0.210 HD
ENDROOT
TORSDOF 50
ENDMDL
MODEL 19
REMARK VINA RESULT:      -8.1      4.965     15.775
REMARK  0 active torsions:
REMARK  status: ('A' for Active; 'I' for Inactive)
REMARK       I    between atoms: C3_1  and  O3_85 
REMARK       I    between atoms: C6_2  and  C5_22 
REMARK       I    between atoms: C6_3  and  C5_14 
REMARK       I    between atoms: C6_3  and  O6_30 
REMARK       I    between atoms: C1_4  and  O1_84 
REMARK       I    between atoms: O2S_6  and  S1_45 
REMARK       I    between atoms: C1_7  and  O1_36 
REMARK       I    between atoms: S1_10  and  N_69 
REMARK       I    between atoms: S1_10  and  O1S_27 
REMARK       I    between atoms: S1_10  and  O2S_71 
REMARK       I    between atoms: S1_10  and  O3S_88 
REMARK       I    between atoms: O4_11  and  C1_42 
REMARK       I    between atoms: O4_11  and  C4_63 
REMARK       I    between atoms: O6_12  and  C6_94 
REMARK       I    between atoms: O6_12  and  S2_28 
REMARK       I    between atoms: C1_13  and  O4_51 
REMARK       I    between atoms: S2_16  and  O6_76 
REMARK       I    between atoms: C3_18  and  O3_103 
REMARK       I    between atoms: C1_19  and  O1_37 
REMARK       I    between atoms: O4_20  and  C1_23 
REMARK       I    between atoms: O4_20  and  C4_77 
REMARK       I    between atoms: O3S_21  and  S1_92 
REMARK       I    between atoms: C3_24  and  O3_87 
REMARK       I    between atoms: O3_25  and  C3_46 
REMARK       I    between atoms: C6_29  and  C5_79 
REMARK       I    between atoms: C6_29  and  O6_76 
REMARK       I    between atoms: O6_30  and  S2_31 
REMARK       I    between atoms: O1_36  and  C4_81 
REMARK       I    between atoms: C2_38  and  O2_72 
REMARK       I    between atoms: S1_45  and  N_74 
REMARK       I    between atoms: S1_45  and  O1S_75 
REMARK       I    between atoms: S1_45  and  O3S_101 
REMARK       I    between atoms: O1S_47  and  S1_92 
REMARK       I    between atoms: S_48  and  O2_91 
REMARK       I    between atoms: C5_49  and  C6_67 
REMARK       I    between atoms: O4_51  and  C4_57 
REMARK       I    between atoms: N_52  and  C2_73 
REMARK       I    between atoms: N_52  and  S1_92 
REMARK       I    between atoms: C5_53  and  C6_61 
REMARK       I    between atoms: C4_56  and  O1_84 
REMARK       I    between atoms: C2_62  and  O2_91 
REMARK       I    between atoms: S_66  and  O2_105 
REMARK       I    between atoms: O3_68  and  C3_102 
REMARK       I    between atoms: N_69  and  C2_83 
REMARK       I    between atoms: C3_70  and  O3_98 
REMARK       I    between atoms: O2_72  and  S_96 
REMARK       I    between atoms: N_74  and  C2_86 
REMARK       I    between atoms: O2S_80  and  S1_92 
REMARK       I    between atoms: C5_89  and  C6_94 
REMARK       I    between atoms: C2_104  and  O2_105 
ROOT
ATOM      1  C3  IDS d 305       7.000  -1.815  50.795  0.00  0.00     0.094 C 
ATOM      2  O3S IDS d 305      11.690  -2.492  49.931  0.00  0.00    -0.572 OA
ATOM      3  C1  IDS d 305       8.941  -1.428  52.251  0.00  0.00     0.161 C 
ATOM      4  O62 IDS d 305       5.988  -0.713  54.820  0.00  0.00    -0.646 OA
ATOM      5  O5  IDS d 305       7.877  -1.122  53.126  0.00  0.00    -0.340 OA
ATOM      6  O61 IDS d 305       5.381  -2.849  54.855  0.00  0.00    -0.646 OA
ATOM      7  O1S IDS d 305      10.459  -3.012  47.950  0.00  0.00    -0.572 OA
ATOM      8  C5  IDS d 305       7.005  -2.230  53.270  0.00  0.00     0.152 C 
ATOM      9  S   IDS d 305      10.412  -2.931  49.394  0.00  0.00     0.252 S 
ATOM     10  C6  IDS d 305       6.063  -1.905  54.421  0.00  0.00     0.206 C 
ATOM     11  C4  IDS d 305       6.210  -2.387  51.958  0.00  0.00     0.103 C 
ATOM     12  O3  IDS d 305       6.570  -2.413  49.616  0.00  0.00    -0.390 OA
ATOM     13  O2S IDS d 305      10.058  -4.210  49.938  0.00  0.00    -0.572 OA
ATOM     14  C2  IDS d 305       8.415  -2.205  51.035  0.00  0.00     0.134 C 
ATOM     15  O2  IDS d 305       9.121  -1.835  49.875  0.00  0.00    -0.244 OA
ATOM     16  H   IDS d 305       6.880  -0.755  50.716  0.00  0.00     0.091 H 
ATOM     17  H   IDS d 305       9.424  -0.546  51.884  0.00  0.00     0.133 H 
ATOM     18  H   IDS d 305       7.534  -3.139  53.471  0.00  0.00     0.104 H 
ATOM     19  H   IDS d 305       6.034  -3.433  51.820  0.00  0.00     0.092 H 
ATOM     20  H   IDS d 305       6.677  -3.374  49.683  0.00  0.00     0.210 HD
ATOM     21  H   IDS d 305       8.524  -3.251  51.231  0.00  0.00     0.097 H 
ATOM     22  C6  IDS d 303      -2.334  -0.229  52.115  0.00  0.00     0.206 C 
ATOM     23  O61 IDS d 303      -2.852   0.877  52.175  0.00  0.00    -0.646 OA
ATOM     24  C5  IDS d 303      -1.595  -0.747  53.297  0.00  0.00     0.152 C 
ATOM     25  C1  IDS d 303      -0.210  -2.522  54.011  0.00  0.00     0.161 C 
ATOM     26  O3  IDS d 303      -0.417  -0.139  55.857  0.00  0.00    -0.390 OA
ATOM     27  O2S IDS d 303      -0.721  -4.269  57.727  0.00  0.00    -0.572 OA
ATOM     28  O5  IDS d 303      -1.170  -2.091  53.039  0.00  0.00    -0.340 OA
ATOM     29  C3  IDS d 303      -1.428  -1.079  55.724  0.00  0.00     0.094 C 
ATOM     30  S   IDS d 303      -1.007  -4.741  56.424  0.00  0.00     0.252 S 
ATOM     31  C4  IDS d 303      -2.401  -0.703  54.588  0.00  0.00     0.103 C 
ATOM     32  O1S IDS d 303      -1.973  -5.768  56.419  0.00  0.00    -0.572 OA
ATOM     33  C2  IDS d 303      -0.794  -2.404  55.419  0.00  0.00     0.134 C 
ATOM     34  O3S IDS d 303       0.236  -5.169  55.899  0.00  0.00    -0.572 OA
ATOM     35  O2  IDS d 303      -1.691  -3.404  55.604  0.00  0.00    -0.244 OA
ATOM     36  O62 IDS d 303      -2.205  -0.857  51.086  0.00  0.00    -0.646 OA
ATOM     37  H   IDS d 303      -0.755  -0.101  53.443  0.00  0.00     0.104 H 
ATOM     38  H   IDS d 303       0.007  -3.552  53.818  0.00  0.00     0.133 H 
ATOM     39  H   IDS d 303       0.177  -0.402  56.577  0.00  0.00     0.210 HD
ATOM     40  H   IDS d 303      -1.990  -1.121  56.634  0.00  0.00     0.091 H 
ATOM     41  H   IDS d 303      -2.839   0.253  54.788  0.00  0.00     0.092 H 
ATOM     42  H   IDS d 303       0.028  -2.483  56.100  0.00  0.00     0.097 H 
ATOM     43  C6  SGN d 306      11.707  -0.209  52.207  0.00  0.00     0.067 C 
ATOM     44  S1  SGN d 306      12.426  -2.104  58.813  0.00  0.00     0.156 S 
ATOM     45  C5  SGN d 306      11.924  -1.186  53.349  0.00  0.00     0.091 C 
ATOM     46  C3  SGN d 306      10.744  -2.367  55.207  0.00  0.00     0.083 C 
ATOM     47  C1  SGN d 306      13.048  -1.366  55.480  0.00  0.00     0.147 C 
ATOM     48  O1S SGN d 306      12.683  -3.260  59.634  0.00  0.00    -0.296 OA
ATOM     49  O6  SGN d 306      10.763   0.779  52.614  0.00  0.00    -0.254 OA
ATOM     50  S2  SGN d 306      10.647   2.308  51.729  0.00  0.00     0.251 S 
ATOM     51  O4S SGN d 306       9.513   2.297  50.848  0.00  0.00    -0.572 OA
ATOM     52  O1  SGN d 306      13.712  -2.570  55.124  0.00  0.00    -0.369 OA
ATOM     53  O4  SGN d 306       9.817  -2.240  53.001  0.00  0.00    -0.348 OA
ATOM     54  C4  SGN d 306      10.571  -1.507  53.965  0.00  0.00     0.095 C 
ATOM     55  N   SGN d 306      12.008  -2.671  57.199  0.00  0.00    -0.210 NA
ATOM     56  O2S SGN d 306      11.304  -1.370  59.324  0.00  0.00    -0.296 OA
ATOM     57  O5  SGN d 306      12.779  -0.565  54.336  0.00  0.00    -0.350 OA
ATOM     58  O6S SGN d 306      10.481   3.360  52.697  0.00  0.00    -0.572 OA
ATOM     59  C2  SGN d 306      11.725  -1.699  56.163  0.00  0.00     0.081 C 
ATOM     60  O3S SGN d 306      13.601  -1.273  58.762  0.00  0.00    -0.296 OA
ATOM     61  O5S SGN d 306      11.873   2.512  50.998  0.00  0.00    -0.572 OA
ATOM     62  O3  SGN d 306       9.495  -2.386  55.884  0.00  0.00    -0.391 OA
ATOM     63  H   SGN d 306      11.332  -0.732  51.353  0.00  0.00     0.080 H 
ATOM     64  H   SGN d 306      12.634   0.260  51.951  0.00  0.00     0.080 H 
ATOM     65  H   SGN d 306      12.384  -2.087  52.999  0.00  0.00     0.090 H 
ATOM     66  H   SGN d 306      11.086  -3.341  54.924  0.00  0.00     0.089 H 
ATOM     67  H   SGN d 306      13.689  -0.820  56.140  0.00  0.00     0.131 H 
ATOM     68  H   SGN d 306      11.889  -3.816  59.665  0.00  0.00     0.231 HD
ATOM     69  H   SGN d 306      13.150  -3.084  54.523  0.00  0.00     0.212 HD
ATOM     70  H   SGN d 306      10.076  -0.599  54.240  0.00  0.00     0.091 H 
ATOM     71  H   SGN d 306      11.178  -3.257  57.293  0.00  0.00     0.140 HD
ATOM     72  H   SGN d 306      10.525  -1.946  59.350  0.00  0.00     0.231 HD
ATOM     73  H   SGN d 306      11.297  -0.790  56.530  0.00  0.00     0.076 H 
ATOM     74  H   SGN d 306      14.347  -1.788  58.415  0.00  0.00     0.231 HD
ATOM     75  H   SGN d 306       9.237  -1.479  56.113  0.00  0.00     0.210 HD
ATOM     76  C1  SGN d 302      -4.771  -1.253  54.658  0.00  0.00     0.150 C 
ATOM     77  O4  SGN d 302      -6.262  -4.209  52.153  0.00  0.00    -0.348 OA
ATOM     78  O6  SGN d 302      -7.479  -1.462  51.419  0.00  0.00    -0.254 OA
ATOM     79  O3S SGN d 302      -4.166  -0.902  57.713  0.00  0.00    -0.296 OA
ATOM     80  S2  SGN d 302      -8.328  -0.264  50.536  0.00  0.00     0.251 S 
ATOM     81  O5  SGN d 302      -5.414  -0.892  53.434  0.00  0.00    -0.349 OA
ATOM     82  O1S SGN d 302      -3.980  -2.993  58.756  0.00  0.00    -0.296 OA
ATOM     83  O6S SGN d 302      -7.503   0.914  50.500  0.00  0.00    -0.572 OA
ATOM     84  N   SGN d 302      -4.726  -2.966  56.287  0.00  0.00    -0.210 NA
ATOM     85  O5S SGN d 302      -8.494  -0.754  49.215  0.00  0.00    -0.572 OA
ATOM     86  C4  SGN d 302      -6.384  -3.088  53.029  0.00  0.00     0.095 C 
ATOM     87  O3  SGN d 302      -6.564  -4.547  54.868  0.00  0.00    -0.391 OA
ATOM     88  C2  SGN d 302      -5.566  -2.404  55.273  0.00  0.00     0.081 C 
ATOM     89  O2S SGN d 302      -6.051  -2.060  58.260  0.00  0.00    -0.296 OA
ATOM     90  O1  SGN d 302      -3.427  -1.685  54.459  0.00  0.00    -0.348 OA
ATOM     91  C5  SGN d 302      -5.506  -1.957  52.494  0.00  0.00     0.091 C 
ATOM     92  S1  SGN d 302      -4.725  -2.194  57.843  0.00  0.00     0.156 S 
ATOM     93  C6  SGN d 302      -6.095  -1.394  51.253  0.00  0.00     0.067 C 
ATOM     94  O4S SGN d 302      -9.597  -0.061  51.133  0.00  0.00    -0.572 OA
ATOM     95  C3  SGN d 302      -5.742  -3.553  54.303  0.00  0.00     0.083 C 
ATOM     96  H   SGN d 302      -4.742  -0.393  55.293  0.00  0.00     0.131 H 
ATOM     97  H   SGN d 302      -3.243  -0.976  57.424  0.00  0.00     0.231 HD
ATOM     98  H   SGN d 302      -3.065  -3.071  58.445  0.00  0.00     0.231 HD
ATOM     99  H   SGN d 302      -3.769  -2.949  55.936  0.00  0.00     0.140 HD
ATOM    100  H   SGN d 302      -7.396  -2.758  53.136  0.00  0.00     0.091 H 
ATOM    101  H   SGN d 302      -6.669  -5.277  54.238  0.00  0.00     0.210 HD
ATOM    102  H   SGN d 302      -6.513  -2.022  55.594  0.00  0.00     0.076 H 
ATOM    103  H   SGN d 302      -6.075  -1.630  59.129  0.00  0.00     0.231 HD
ATOM    104  H   SGN d 302      -4.537  -2.370  52.307  0.00  0.00     0.090 H 
ATOM    105  H   SGN d 302      -5.785  -0.378  51.122  0.00  0.00     0.080 H 
ATOM    106  H   SGN d 302      -5.778  -1.937  50.387  0.00  0.00     0.080 H 
ATOM    107  H   SGN d 302      -4.770  -3.947  54.093  0.00  0.00     0.089 H 
ATOM    108  O2S SGN d 304       4.124   1.797  48.625  0.00  0.00    -0.296 OA
ATOM    109  C1  SGN d 304       4.026  -2.197  51.091  0.00  0.00     0.150 C 
ATOM    110  S2  SGN d 304       1.180  -5.951  51.409  0.00  0.00     0.251 S 
ATOM    111  O4  SGN d 304       1.024  -1.830  53.899  0.00  0.00    -0.348 OA
ATOM    112  C6  SGN d 304       2.200  -4.396  53.476  0.00  0.00     0.067 C 
ATOM    113  O4S SGN d 304      -0.025  -6.260  52.114  0.00  0.00    -0.572 OA
ATOM    114  O1  SGN d 304       4.972  -1.701  52.017  0.00  0.00    -0.348 OA
ATOM    115  O5  SGN d 304       3.369  -3.339  51.618  0.00  0.00    -0.349 OA
ATOM    116  S1  SGN d 304       3.869   0.394  48.736  0.00  0.00     0.156 S 
ATOM    117  O5S SGN d 304       1.619  -7.095  50.669  0.00  0.00    -0.572 OA
ATOM    118  C3  SGN d 304       2.323  -0.779  52.168  0.00  0.00     0.083 C 
ATOM    119  N   SGN d 304       3.737   0.071  50.473  0.00  0.00    -0.210 NA
ATOM    120  O1S SGN d 304       4.934  -0.366  48.142  0.00  0.00    -0.296 OA
ATOM    121  O6  SGN d 304       2.424  -5.502  52.598  0.00  0.00    -0.254 OA
ATOM    122  C4  SGN d 304       1.676  -2.064  52.666  0.00  0.00     0.095 C 
ATOM    123  C5  SGN d 304       2.745  -3.110  52.874  0.00  0.00     0.091 C 
ATOM    124  C2  SGN d 304       3.017  -1.101  50.877  0.00  0.00     0.081 C 
ATOM    125  O6S SGN d 304       0.950  -4.858  50.500  0.00  0.00    -0.572 OA
ATOM    126  O3  SGN d 304       1.362   0.223  51.915  0.00  0.00    -0.391 OA
ATOM    127  O3S SGN d 304       2.625   0.062  48.092  0.00  0.00    -0.296 OA
ATOM    128  H   SGN d 304       4.964   2.009  49.062  0.00  0.00     0.231 HD
ATOM    129  H   SGN d 304       4.506  -2.480  50.177  0.00  0.00     0.131 H 
ATOM    130  H   SGN d 304       1.148  -4.288  53.643  0.00  0.00     0.080 H 
ATOM    131  H   SGN d 304       2.705  -4.585  54.401  0.00  0.00     0.080 H 
ATOM    132  H   SGN d 304       2.997  -0.415  52.914  0.00  0.00     0.089 H 
ATOM    133  H   SGN d 304       3.276   0.875  50.899  0.00  0.00     0.140 HD
ATOM    134  H   SGN d 304       5.772  -0.142  48.575  0.00  0.00     0.231 HD
ATOM    135  H   SGN d 304       0.963  -2.401  51.942  0.00  0.00     0.091 H 
ATOM    136  H   SGN d 304       3.460  -2.753  53.586  0.00  0.00     0.090 H 
ATOM    137  H   SGN d 304       2.297  -1.408  50.147  0.00  0.00     0.076 H 
ATOM    138  H   SGN d 304       0.740  -0.089  51.239  0.00  0.00     0.210 HD
ATOM    139  H   SGN d 304       1.906   0.575  48.493  0.00  0.00     0.231 HD
ATOM    140  O1S UAP d 301      -8.076  -4.373  47.947  0.00  0.00    -0.572 OA
ATOM    141  C3  UAP d 301      -6.568  -6.952  51.209  0.00  0.00     0.086 C 
ATOM    142  O62 UAP d 301     -10.271  -6.100  53.910  0.00  0.00    -0.642 OA
ATOM    143  C2  UAP d 301      -7.047  -5.722  50.481  0.00  0.00     0.135 C 
ATOM    144  O61 UAP d 301      -9.261  -7.999  54.077  0.00  0.00    -0.642 OA
ATOM    145  C1  UAP d 301      -7.430  -4.621  51.448  0.00  0.00     0.167 C 
ATOM    146  C5  UAP d 301      -8.294  -6.387  52.836  0.00  0.00     0.147 C 
ATOM    147  C4  UAP d 301      -7.358  -7.251  52.390  0.00  0.00    -0.034 C 
ATOM    148  O3S UAP d 301      -7.343  -6.575  47.483  0.00  0.00    -0.572 OA
ATOM    149  C6  UAP d 301      -9.278  -6.827  53.676  0.00  0.00     0.233 C 
ATOM    150  O5  UAP d 301      -8.447  -5.139  52.294  0.00  0.00    -0.311 OA
ATOM    151  O2S UAP d 301      -9.654  -6.042  47.666  0.00  0.00    -0.572 OA
ATOM    152  O2  UAP d 301      -8.233  -6.074  49.831  0.00  0.00    -0.244 OA
ATOM    153  O3  UAP d 301      -5.215  -6.828  51.459  0.00  0.00    -0.389 OA
ATOM    154  S   UAP d 301      -8.337  -5.759  48.120  0.00  0.00     0.252 S 
ATOM    155  H   UAP d 301      -6.712  -7.809  50.584  0.00  0.00     0.093 H 
ATOM    156  H   UAP d 301      -6.270  -5.382  49.830  0.00  0.00     0.097 H 
ATOM    157  H   UAP d 301      -7.816  -3.752  50.959  0.00  0.00     0.134 H 
ATOM    158  H   UAP d 301      -7.202  -8.136  52.896  0.00  0.00     0.085 H 
ATOM    159  H   UAP d 301      -5.061  -6.055  52.025  0.00  0.00     0.210 HD
ENDROOT
TORSDOF 50
ENDMDL
MODEL 20
REMARK VINA RESULT:      -8.1      4.189      7.223
REMARK  0 active torsions:
REMARK  status: ('A' for Active; 'I' for Inactive)
REMARK       I    between atoms: C3_1  and  O3_85 
REMARK       I    between atoms: C6_2  and  C5_22 
REMARK       I    between atoms: C6_3  and  C5_14 
REMARK       I    between atoms: C6_3  and  O6_30 
REMARK       I    between atoms: C1_4  and  O1_84 
REMARK       I    between atoms: O2S_6  and  S1_45 
REMARK       I    between atoms: C1_7  and  O1_36 
REMARK       I    between atoms: S1_10  and  N_69 
REMARK       I    between atoms: S1_10  and  O1S_27 
REMARK       I    between atoms: S1_10  and  O2S_71 
REMARK       I    between atoms: S1_10  and  O3S_88 
REMARK       I    between atoms: O4_11  and  C1_42 
REMARK       I    between atoms: O4_11  and  C4_63 
REMARK       I    between atoms: O6_12  and  C6_94 
REMARK       I    between atoms: O6_12  and  S2_28 
REMARK       I    between atoms: C1_13  and  O4_51 
REMARK       I    between atoms: S2_16  and  O6_76 
REMARK       I    between atoms: C3_18  and  O3_103 
REMARK       I    between atoms: C1_19  and  O1_37 
REMARK       I    between atoms: O4_20  and  C1_23 
REMARK       I    between atoms: O4_20  and  C4_77 
REMARK       I    between atoms: O3S_21  and  S1_92 
REMARK       I    between atoms: C3_24  and  O3_87 
REMARK       I    between atoms: O3_25  and  C3_46 
REMARK       I    between atoms: C6_29  and  C5_79 
REMARK       I    between atoms: C6_29  and  O6_76 
REMARK       I    between atoms: O6_30  and  S2_31 
REMARK       I    between atoms: O1_36  and  C4_81 
REMARK       I    between atoms: C2_38  and  O2_72 
REMARK       I    between atoms: S1_45  and  N_74 
REMARK       I    between atoms: S1_45  and  O1S_75 
REMARK       I    between atoms: S1_45  and  O3S_101 
REMARK       I    between atoms: O1S_47  and  S1_92 
REMARK       I    between atoms: S_48  and  O2_91 
REMARK       I    between atoms: C5_49  and  C6_67 
REMARK       I    between atoms: O4_51  and  C4_57 
REMARK       I    between atoms: N_52  and  C2_73 
REMARK       I    between atoms: N_52  and  S1_92 
REMARK       I    between atoms: C5_53  and  C6_61 
REMARK       I    between atoms: C4_56  and  O1_84 
REMARK       I    between atoms: C2_62  and  O2_91 
REMARK       I    between atoms: S_66  and  O2_105 
REMARK       I    between atoms: O3_68  and  C3_102 
REMARK       I    between atoms: N_69  and  C2_83 
REMARK       I    between atoms: C3_70  and  O3_98 
REMARK       I    between atoms: O2_72  and  S_96 
REMARK       I    between atoms: N_74  and  C2_86 
REMARK       I    between atoms: O2S_80  and  S1_92 
REMARK       I    between atoms: C5_89  and  C6_94 
REMARK       I    between atoms: C2_104  and  O2_105 
ROOT
ATOM      1  C3  IDS d 305      -5.297   0.779  56.283  0.00  0.00     0.094 C 
ATOM      2  O3S IDS d 305      -9.023   1.655  59.206  0.00  0.00    -0.572 OA
ATOM      3  C1  IDS d 305      -7.123  -0.703  56.993  0.00  0.00     0.161 C 
ATOM      4  O62 IDS d 305      -4.863  -3.292  54.988  0.00  0.00    -0.646 OA
ATOM      5  O5  IDS d 305      -6.334  -1.588  56.227  0.00  0.00    -0.340 OA
ATOM      6  O61 IDS d 305      -3.258  -3.216  56.521  0.00  0.00    -0.646 OA
ATOM      7  O1S IDS d 305      -7.758   3.666  58.948  0.00  0.00    -0.572 OA
ATOM      8  C5  IDS d 305      -5.018  -1.672  56.745  0.00  0.00     0.152 C 
ATOM      9  S   IDS d 305      -7.715   2.220  58.914  0.00  0.00     0.252 S 
ATOM     10  C6  IDS d 305      -4.336  -2.833  56.036  0.00  0.00     0.206 C 
ATOM     11  C4  IDS d 305      -4.292  -0.349  56.424  0.00  0.00     0.103 C 
ATOM     12  O3  IDS d 305      -4.659   1.989  56.530  0.00  0.00    -0.390 OA
ATOM     13  O2S IDS d 305      -6.747   1.743  59.859  0.00  0.00    -0.572 OA
ATOM     14  C2  IDS d 305      -6.313   0.553  57.346  0.00  0.00     0.134 C 
ATOM     15  O2  IDS d 305      -7.143   1.689  57.336  0.00  0.00    -0.244 OA
ATOM     16  H   IDS d 305      -5.732   0.804  55.306  0.00  0.00     0.091 H 
ATOM     17  H   IDS d 305      -7.997  -0.384  56.464  0.00  0.00     0.133 H 
ATOM     18  H   IDS d 305      -5.008  -1.828  57.804  0.00  0.00     0.104 H 
ATOM     19  H   IDS d 305      -3.615  -0.158  57.229  0.00  0.00     0.092 H 
ATOM     20  H   IDS d 305      -4.263   1.971  57.416  0.00  0.00     0.210 HD
ATOM     21  H   IDS d 305      -5.871   0.410  58.310  0.00  0.00     0.097 H 
ATOM     22  C6  IDS d 303       1.986  -0.578  50.241  0.00  0.00     0.206 C 
ATOM     23  O61 IDS d 303       1.875  -0.692  49.028  0.00  0.00    -0.646 OA
ATOM     24  C5  IDS d 303       1.646  -1.735  51.111  0.00  0.00     0.152 C 
ATOM     25  C1  IDS d 303       1.371  -2.365  53.372  0.00  0.00     0.161 C 
ATOM     26  O3  IDS d 303       0.399  -4.328  51.291  0.00  0.00    -0.390 OA
ATOM     27  O2S IDS d 303       2.806  -5.985  54.771  0.00  0.00    -0.572 OA
ATOM     28  O5  IDS d 303       1.952  -1.412  52.473  0.00  0.00    -0.340 OA
ATOM     29  C3  IDS d 303       1.742  -4.143  51.583  0.00  0.00     0.094 C 
ATOM     30  S   IDS d 303       3.252  -4.658  54.978  0.00  0.00     0.252 S 
ATOM     31  C4  IDS d 303       2.357  -3.023  50.718  0.00  0.00     0.103 C 
ATOM     32  O1S IDS d 303       4.605  -4.596  55.373  0.00  0.00    -0.572 OA
ATOM     33  C2  IDS d 303       1.856  -3.774  53.032  0.00  0.00     0.134 C 
ATOM     34  O3S IDS d 303       2.382  -4.118  55.955  0.00  0.00    -0.572 OA
ATOM     35  O2  IDS d 303       3.142  -3.904  53.446  0.00  0.00    -0.244 OA
ATOM     36  O62 IDS d 303       2.162   0.481  50.805  0.00  0.00    -0.646 OA
ATOM     37  H   IDS d 303       0.600  -1.918  50.987  0.00  0.00     0.104 H 
ATOM     38  H   IDS d 303       1.699  -2.120  54.360  0.00  0.00     0.133 H 
ATOM     39  H   IDS d 303       0.041  -5.036  51.849  0.00  0.00     0.210 HD
ATOM     40  H   IDS d 303       2.275  -5.047  51.372  0.00  0.00     0.091 H 
ATOM     41  H   IDS d 303       2.257  -3.270  49.682  0.00  0.00     0.092 H 
ATOM     42  H   IDS d 303       1.208  -4.453  53.545  0.00  0.00     0.097 H 
ATOM     43  C6  SGN d 306     -10.126  -0.733  57.344  0.00  0.00     0.067 C 
ATOM     44  S1  SGN d 306      -9.591  -7.238  59.615  0.00  0.00     0.156 S 
ATOM     45  C5  SGN d 306      -9.784  -1.826  58.343  0.00  0.00     0.091 C 
ATOM     46  C3  SGN d 306      -8.114  -3.615  58.839  0.00  0.00     0.083 C 
ATOM     47  C1  SGN d 306     -10.600  -3.949  59.156  0.00  0.00     0.147 C 
ATOM     48  O1S SGN d 306      -9.203  -8.000  60.774  0.00  0.00    -0.296 OA
ATOM     49  O6  SGN d 306      -9.799  -1.187  56.032  0.00  0.00    -0.254 OA
ATOM     50  S2  SGN d 306     -10.499  -0.380  54.619  0.00  0.00     0.251 S 
ATOM     51  O4S SGN d 306      -9.542   0.506  54.017  0.00  0.00    -0.572 OA
ATOM     52  O1  SGN d 306     -10.573  -3.536  60.514  0.00  0.00    -0.369 OA
ATOM     53  O4  SGN d 306      -7.445  -1.415  58.168  0.00  0.00    -0.348 OA
ATOM     54  C4  SGN d 306      -8.438  -2.418  57.959  0.00  0.00     0.095 C 
ATOM     55  N   SGN d 306      -8.991  -5.595  59.824  0.00  0.00    -0.210 NA
ATOM     56  O2S SGN d 306      -8.980  -7.781  58.435  0.00  0.00    -0.296 OA
ATOM     57  O5  SGN d 306     -10.807  -2.847  58.282  0.00  0.00    -0.350 OA
ATOM     58  O6S SGN d 306     -10.860  -1.399  53.670  0.00  0.00    -0.572 OA
ATOM     59  C2  SGN d 306      -9.270  -4.609  58.800  0.00  0.00     0.081 C 
ATOM     60  O3S SGN d 306     -11.026  -7.235  59.492  0.00  0.00    -0.296 OA
ATOM     61  O5S SGN d 306     -11.682   0.334  55.035  0.00  0.00    -0.572 OA
ATOM     62  O3  SGN d 306      -7.008  -4.286  58.250  0.00  0.00    -0.391 OA
ATOM     63  H   SGN d 306      -9.563   0.148  57.569  0.00  0.00     0.080 H 
ATOM     64  H   SGN d 306     -11.170  -0.506  57.399  0.00  0.00     0.080 H 
ATOM     65  H   SGN d 306      -9.735  -1.433  59.337  0.00  0.00     0.090 H 
ATOM     66  H   SGN d 306      -7.925  -3.285  59.839  0.00  0.00     0.089 H 
ATOM     67  H   SGN d 306     -11.408  -4.640  59.037  0.00  0.00     0.131 H 
ATOM     68  H   SGN d 306      -8.236  -7.999  60.852  0.00  0.00     0.231 HD
ATOM     69  H   SGN d 306      -9.846  -2.907  60.647  0.00  0.00     0.212 HD
ATOM     70  H   SGN d 306      -8.462  -2.737  56.938  0.00  0.00     0.091 H 
ATOM     71  H   SGN d 306      -7.977  -5.656  59.912  0.00  0.00     0.140 HD
ATOM     72  H   SGN d 306      -8.016  -7.773  58.537  0.00  0.00     0.231 HD
ATOM     73  H   SGN d 306      -9.350  -5.020  57.816  0.00  0.00     0.076 H 
ATOM     74  H   SGN d 306     -11.418  -6.865  60.299  0.00  0.00     0.231 HD
ATOM     75  H   SGN d 306      -7.239  -4.559  57.348  0.00  0.00     0.210 HD
ATOM     76  C1  SGN d 302       4.681  -3.055  49.994  0.00  0.00     0.150 C 
ATOM     77  O4  SGN d 302       7.386  -0.395  51.679  0.00  0.00    -0.348 OA
ATOM     78  O6  SGN d 302       7.024   0.203  48.667  0.00  0.00    -0.254 OA
ATOM     79  O3S SGN d 302       4.071  -6.126  50.125  0.00  0.00    -0.296 OA
ATOM     80  S2  SGN d 302       7.124   1.028  47.168  0.00  0.00     0.251 S 
ATOM     81  O5  SGN d 302       5.015  -1.847  49.306  0.00  0.00    -0.349 OA
ATOM     82  O1S SGN d 302       5.000  -7.063  52.064  0.00  0.00    -0.296 OA
ATOM     83  O6S SGN d 302       5.816   1.000  46.570  0.00  0.00    -0.572 OA
ATOM     84  N   SGN d 302       5.557  -4.595  51.560  0.00  0.00    -0.210 NA
ATOM     85  O5S SGN d 302       7.476   2.373  47.451  0.00  0.00    -0.572 OA
ATOM     86  C4  SGN d 302       6.951  -1.327  50.689  0.00  0.00     0.095 C 
ATOM     87  O3  SGN d 302       7.899  -3.089  51.930  0.00  0.00    -0.391 OA
ATOM     88  C2  SGN d 302       5.966  -3.607  50.607  0.00  0.00     0.081 C 
ATOM     89  O2S SGN d 302       6.299  -6.605  50.189  0.00  0.00    -0.296 OA
ATOM     90  O1  SGN d 302       3.734  -2.840  51.039  0.00  0.00    -0.348 OA
ATOM     91  C5  SGN d 302       5.606  -0.854  50.137  0.00  0.00     0.091 C 
ATOM     92  S1  SGN d 302       5.211  -6.187  50.960  0.00  0.00     0.156 S 
ATOM     93  C6  SGN d 302       5.793   0.359  49.303  0.00  0.00     0.067 C 
ATOM     94  O4S SGN d 302       8.133   0.426  46.375  0.00  0.00    -0.572 OA
ATOM     95  C3  SGN d 302       6.670  -2.579  51.467  0.00  0.00     0.083 C 
ATOM     96  H   SGN d 302       4.239  -3.733  49.295  0.00  0.00     0.131 H 
ATOM     97  H   SGN d 302       3.304  -5.838  50.645  0.00  0.00     0.231 HD
ATOM     98  H   SGN d 302       4.242  -6.752  52.582  0.00  0.00     0.231 HD
ATOM     99  H   SGN d 302       4.713  -4.250  52.015  0.00  0.00     0.140 HD
ATOM    100  H   SGN d 302       7.660  -1.446  49.896  0.00  0.00     0.091 H 
ATOM    101  H   SGN d 302       8.340  -2.422  52.479  0.00  0.00     0.210 HD
ATOM    102  H   SGN d 302       6.599  -3.942  49.812  0.00  0.00     0.076 H 
ATOM    103  H   SGN d 302       6.127  -7.495  49.843  0.00  0.00     0.231 HD
ATOM    104  H   SGN d 302       4.974  -0.651  50.977  0.00  0.00     0.090 H 
ATOM    105  H   SGN d 302       5.007   0.437  48.580  0.00  0.00     0.080 H 
ATOM    106  H   SGN d 302       5.768   1.250  49.895  0.00  0.00     0.080 H 
ATOM    107  H   SGN d 302       6.026  -2.354  52.290  0.00  0.00     0.089 H 
ATOM    108  O2S SGN d 304      -4.709   2.775  51.625  0.00  0.00    -0.296 OA
ATOM    109  C1  SGN d 304      -2.532   0.517  55.117  0.00  0.00     0.150 C 
ATOM    110  S2  SGN d 304       1.831   0.402  56.920  0.00  0.00     0.251 S 
ATOM    111  O4  SGN d 304      -0.045  -2.293  53.396  0.00  0.00    -0.348 OA
ATOM    112  C6  SGN d 304       0.227  -1.746  56.184  0.00  0.00     0.067 C 
ATOM    113  O4S SGN d 304       3.047  -0.280  56.605  0.00  0.00    -0.572 OA
ATOM    114  O1  SGN d 304      -3.570  -0.438  55.208  0.00  0.00    -0.348 OA
ATOM    115  O5  SGN d 304      -1.372   0.051  55.788  0.00  0.00    -0.349 OA
ATOM    116  S1  SGN d 304      -3.777   2.737  52.708  0.00  0.00     0.156 S 
ATOM    117  O5S SGN d 304       2.009   1.197  58.097  0.00  0.00    -0.572 OA
ATOM    118  C3  SGN d 304      -1.748  -0.624  53.077  0.00  0.00     0.083 C 
ATOM    119  N   SGN d 304      -3.448   1.020  52.991  0.00  0.00    -0.210 NA
ATOM    120  O1S SGN d 304      -4.328   3.364  53.877  0.00  0.00    -0.296 OA
ATOM    121  O6  SGN d 304       0.567  -0.813  57.213  0.00  0.00    -0.254 OA
ATOM    122  C4  SGN d 304      -0.526  -1.053  53.877  0.00  0.00     0.095 C 
ATOM    123  C5  SGN d 304      -0.912  -1.212  55.328  0.00  0.00     0.091 C 
ATOM    124  C2  SGN d 304      -2.222   0.679  53.652  0.00  0.00     0.081 C 
ATOM    125  O6S SGN d 304       1.449   1.256  55.824  0.00  0.00    -0.572 OA
ATOM    126  O3  SGN d 304      -1.434  -0.417  51.717  0.00  0.00    -0.391 OA
ATOM    127  O3S SGN d 304      -2.555   3.403  52.337  0.00  0.00    -0.296 OA
ATOM    128  H   SGN d 304      -5.528   2.324  51.886  0.00  0.00     0.231 HD
ATOM    129  H   SGN d 304      -2.829   1.442  55.566  0.00  0.00     0.131 H 
ATOM    130  H   SGN d 304       1.083  -1.913  55.565  0.00  0.00     0.080 H 
ATOM    131  H   SGN d 304      -0.086  -2.662  56.640  0.00  0.00     0.080 H 
ATOM    132  H   SGN d 304      -2.492  -1.391  53.136  0.00  0.00     0.089 H 
ATOM    133  H   SGN d 304      -3.445   0.555  52.083  0.00  0.00     0.140 HD
ATOM    134  H   SGN d 304      -5.151   2.916  54.127  0.00  0.00     0.231 HD
ATOM    135  H   SGN d 304       0.237  -0.310  53.775  0.00  0.00     0.091 H 
ATOM    136  H   SGN d 304      -1.688  -1.945  55.412  0.00  0.00     0.090 H 
ATOM    137  H   SGN d 304      -1.468   1.426  53.522  0.00  0.00     0.076 H 
ATOM    138  H   SGN d 304      -0.761   0.276  51.642  0.00  0.00     0.210 HD
ATOM    139  H   SGN d 304      -2.184   2.980  51.547  0.00  0.00     0.231 HD
ATOM    140  O1S UAP d 301       8.910   3.821  50.726  0.00  0.00    -0.572 OA
ATOM    141  C3  UAP d 301       9.011   0.688  53.847  0.00  0.00     0.086 C 
ATOM    142  O62 UAP d 301      11.852  -2.037  51.349  0.00  0.00    -0.642 OA
ATOM    143  C2  UAP d 301       8.780   1.354  52.514  0.00  0.00     0.135 C 
ATOM    144  O61 UAP d 301      11.947  -2.111  53.503  0.00  0.00    -0.642 OA
ATOM    145  C1  UAP d 301       8.581   0.334  51.413  0.00  0.00     0.167 C 
ATOM    146  C5  UAP d 301      10.261  -0.958  52.553  0.00  0.00     0.147 C 
ATOM    147  C4  UAP d 301       9.878  -0.473  53.753  0.00  0.00    -0.034 C 
ATOM    148  O3S UAP d 301       9.377   4.393  52.974  0.00  0.00    -0.572 OA
ATOM    149  C6  UAP d 301      11.357  -1.770  52.469  0.00  0.00     0.233 C 
ATOM    150  O5  UAP d 301       9.745  -0.480  51.379  0.00  0.00    -0.311 OA
ATOM    151  O2S UAP d 301      11.106   4.194  51.352  0.00  0.00    -0.572 OA
ATOM    152  O2  UAP d 301       9.961   2.027  52.190  0.00  0.00    -0.244 OA
ATOM    153  O3  UAP d 301       7.789   0.426  54.436  0.00  0.00    -0.389 OA
ATOM    154  S   UAP d 301       9.840   3.720  51.795  0.00  0.00     0.252 S 
ATOM    155  H   UAP d 301       9.550   1.356  54.486  0.00  0.00     0.093 H 
ATOM    156  H   UAP d 301       7.918   1.984  52.589  0.00  0.00     0.097 H 
ATOM    157  H   UAP d 301       8.460   0.781  50.448  0.00  0.00     0.134 H 
ATOM    158  H   UAP d 301      10.206  -0.933  54.616  0.00  0.00     0.085 H 
ATOM    159  H   UAP d 301       7.282  -0.180  53.872  0.00  0.00     0.210 HD
ENDROOT
TORSDOF 50
ENDMDL
MODEL 21
REMARK VINA RESULT:      -8.1      3.565      4.361
REMARK  0 active torsions:
REMARK  status: ('A' for Active; 'I' for Inactive)
REMARK       I    between atoms: C3_1  and  O3_85 
REMARK       I    between atoms: C6_2  and  C5_22 
REMARK       I    between atoms: C6_3  and  C5_14 
REMARK       I    between atoms: C6_3  and  O6_30 
REMARK       I    between atoms: C1_4  and  O1_84 
REMARK       I    between atoms: O2S_6  and  S1_45 
REMARK       I    between atoms: C1_7  and  O1_36 
REMARK       I    between atoms: S1_10  and  N_69 
REMARK       I    between atoms: S1_10  and  O1S_27 
REMARK       I    between atoms: S1_10  and  O2S_71 
REMARK       I    between atoms: S1_10  and  O3S_88 
REMARK       I    between atoms: O4_11  and  C1_42 
REMARK       I    between atoms: O4_11  and  C4_63 
REMARK       I    between atoms: O6_12  and  C6_94 
REMARK       I    between atoms: O6_12  and  S2_28 
REMARK       I    between atoms: C1_13  and  O4_51 
REMARK       I    between atoms: S2_16  and  O6_76 
REMARK       I    between atoms: C3_18  and  O3_103 
REMARK       I    between atoms: C1_19  and  O1_37 
REMARK       I    between atoms: O4_20  and  C1_23 
REMARK       I    between atoms: O4_20  and  C4_77 
REMARK       I    between atoms: O3S_21  and  S1_92 
REMARK       I    between atoms: C3_24  and  O3_87 
REMARK       I    between atoms: O3_25  and  C3_46 
REMARK       I    between atoms: C6_29  and  C5_79 
REMARK       I    between atoms: C6_29  and  O6_76 
REMARK       I    between atoms: O6_30  and  S2_31 
REMARK       I    between atoms: O1_36  and  C4_81 
REMARK       I    between atoms: C2_38  and  O2_72 
REMARK       I    between atoms: S1_45  and  N_74 
REMARK       I    between atoms: S1_45  and  O1S_75 
REMARK       I    between atoms: S1_45  and  O3S_101 
REMARK       I    between atoms: O1S_47  and  S1_92 
REMARK       I    between atoms: S_48  and  O2_91 
REMARK       I    between atoms: C5_49  and  C6_67 
REMARK       I    between atoms: O4_51  and  C4_57 
REMARK       I    between atoms: N_52  and  C2_73 
REMARK       I    between atoms: N_52  and  S1_92 
REMARK       I    between atoms: C5_53  and  C6_61 
REMARK       I    between atoms: C4_56  and  O1_84 
REMARK       I    between atoms: C2_62  and  O2_91 
REMARK       I    between atoms: S_66  and  O2_105 
REMARK       I    between atoms: O3_68  and  C3_102 
REMARK       I    between atoms: N_69  and  C2_83 
REMARK       I    between atoms: C3_70  and  O3_98 
REMARK       I    between atoms: O2_72  and  S_96 
REMARK       I    between atoms: N_74  and  C2_86 
REMARK       I    between atoms: O2S_80  and  S1_92 
REMARK       I    between atoms: C5_89  and  C6_94 
REMARK       I    between atoms: C2_104  and  O2_105 
ROOT
ATOM      1  C3  IDS d 305      -3.608  -1.954  56.492  0.00  0.00     0.094 C 
ATOM      2  O3S IDS d 305      -7.682  -4.075  57.941  0.00  0.00    -0.572 OA
ATOM      3  C1  IDS d 305      -5.801  -2.068  55.390  0.00  0.00     0.161 C 
ATOM      4  O62 IDS d 305      -3.672  -0.313  52.524  0.00  0.00    -0.646 OA
ATOM      5  O5  IDS d 305      -5.039  -1.393  54.413  0.00  0.00    -0.340 OA
ATOM      6  O61 IDS d 305      -2.494  -2.157  52.145  0.00  0.00    -0.646 OA
ATOM      7  O1S IDS d 305      -6.028  -4.340  59.645  0.00  0.00    -0.572 OA
ATOM      8  C5  IDS d 305      -3.926  -2.173  54.012  0.00  0.00     0.152 C 
ATOM      9  S   IDS d 305      -6.258  -4.145  58.230  0.00  0.00     0.252 S 
ATOM     10  C6  IDS d 305      -3.331  -1.497  52.784  0.00  0.00     0.206 C 
ATOM     11  C4  IDS d 305      -2.903  -2.176  55.166  0.00  0.00     0.103 C 
ATOM     12  O3  IDS d 305      -2.825  -2.476  57.516  0.00  0.00    -0.390 OA
ATOM     13  O2S IDS d 305      -5.653  -5.215  57.491  0.00  0.00    -0.572 OA
ATOM     14  C2  IDS d 305      -4.871  -2.735  56.415  0.00  0.00     0.134 C 
ATOM     15  O2  IDS d 305      -5.440  -2.679  57.701  0.00  0.00    -0.244 OA
ATOM     16  H   IDS d 305      -3.785  -0.916  56.678  0.00  0.00     0.091 H 
ATOM     17  H   IDS d 305      -6.445  -1.402  55.926  0.00  0.00     0.133 H 
ATOM     18  H   IDS d 305      -4.198  -3.182  53.783  0.00  0.00     0.104 H 
ATOM     19  H   IDS d 305      -2.413  -3.127  55.150  0.00  0.00     0.092 H 
ATOM     20  H   IDS d 305      -2.663  -3.418  57.350  0.00  0.00     0.210 HD
ATOM     21  H   IDS d 305      -4.708  -3.748  56.113  0.00  0.00     0.097 H 
ATOM     22  C6  IDS d 303       4.502   2.469  54.029  0.00  0.00     0.206 C 
ATOM     23  O61 IDS d 303       4.662   3.681  54.026  0.00  0.00    -0.646 OA
ATOM     24  C5  IDS d 303       3.748   1.837  52.913  0.00  0.00     0.152 C 
ATOM     25  C1  IDS d 303       2.826  -0.218  52.200  0.00  0.00     0.161 C 
ATOM     26  O3  IDS d 303       2.017   2.242  50.643  0.00  0.00    -0.390 OA
ATOM     27  O2S IDS d 303       3.160  -1.459  48.267  0.00  0.00    -0.572 OA
ATOM     28  O5  IDS d 303       3.777   0.413  53.067  0.00  0.00    -0.340 OA
ATOM     29  C3  IDS d 303       3.262   1.644  50.514  0.00  0.00     0.094 C 
ATOM     30  S   IDS d 303       3.792  -1.914  49.449  0.00  0.00     0.252 S 
ATOM     31  C4  IDS d 303       4.269   2.215  51.533  0.00  0.00     0.103 C 
ATOM     32  O1S IDS d 303       4.997  -2.599  49.190  0.00  0.00    -0.572 OA
ATOM     33  C2  IDS d 303       3.097   0.172  50.746  0.00  0.00     0.134 C 
ATOM     34  O3S IDS d 303       2.835  -2.734  50.093  0.00  0.00    -0.572 OA
ATOM     35  O2  IDS d 303       4.196  -0.495  50.314  0.00  0.00    -0.244 OA
ATOM     36  O62 IDS d 303       4.739   1.759  54.982  0.00  0.00    -0.646 OA
ATOM     37  H   IDS d 303       2.746   2.208  52.969  0.00  0.00     0.104 H 
ATOM     38  H   IDS d 303       2.950  -1.276  52.298  0.00  0.00     0.133 H 
ATOM     39  H   IDS d 303       1.407   1.863  49.991  0.00  0.00     0.210 HD
ATOM     40  H   IDS d 303       3.645   1.839  49.534  0.00  0.00     0.091 H 
ATOM     41  H   IDS d 303       4.373   3.270  51.387  0.00  0.00     0.092 H 
ATOM     42  H   IDS d 303       2.226  -0.104  50.188  0.00  0.00     0.097 H 
ATOM     43  C6  SGN d 306      -8.748  -1.748  55.982  0.00  0.00     0.067 C 
ATOM     44  S1  SGN d 306     -10.036  -3.296  49.371  0.00  0.00     0.156 S 
ATOM     45  C5  SGN d 306      -8.872  -2.662  54.774  0.00  0.00     0.091 C 
ATOM     46  C3  SGN d 306      -7.746  -3.295  52.637  0.00  0.00     0.083 C 
ATOM     47  C1  SGN d 306     -10.252  -3.020  52.824  0.00  0.00     0.147 C 
ATOM     48  O1S SGN d 306     -10.090  -4.413  48.464  0.00  0.00    -0.296 OA
ATOM     49  O6  SGN d 306      -8.213  -0.495  55.563  0.00  0.00    -0.254 OA
ATOM     50  S2  SGN d 306      -8.387   0.931  56.599  0.00  0.00     0.251 S 
ATOM     51  O4S SGN d 306      -7.162   1.200  57.298  0.00  0.00    -0.572 OA
ATOM     52  O1  SGN d 306     -10.470  -4.391  53.126  0.00  0.00    -0.369 OA
ATOM     53  O4  SGN d 306      -6.525  -3.051  54.683  0.00  0.00    -0.348 OA
ATOM     54  C4  SGN d 306      -7.613  -2.513  53.935  0.00  0.00     0.095 C 
ATOM     55  N   SGN d 306      -9.198  -3.824  50.828  0.00  0.00    -0.210 NA
ATOM     56  O2S SGN d 306      -9.278  -2.222  48.794  0.00  0.00    -0.296 OA
ATOM     57  O5  SGN d 306     -10.028  -2.259  54.004  0.00  0.00    -0.350 OA
ATOM     58  O6S SGN d 306      -8.701   2.050  55.751  0.00  0.00    -0.572 OA
ATOM     59  C2  SGN d 306      -9.029  -2.888  51.920  0.00  0.00     0.081 C 
ATOM     60  O3S SGN d 306     -11.372  -2.864  49.691  0.00  0.00    -0.296 OA
ATOM     61  O5S SGN d 306      -9.474   0.702  57.519  0.00  0.00    -0.572 OA
ATOM     62  O3  SGN d 306      -6.682  -2.887  51.788  0.00  0.00    -0.391 OA
ATOM     63  H   SGN d 306      -8.097  -2.194  56.704  0.00  0.00     0.080 H 
ATOM     64  H   SGN d 306      -9.712  -1.601  56.424  0.00  0.00     0.080 H 
ATOM     65  H   SGN d 306      -8.987  -3.682  55.077  0.00  0.00     0.090 H 
ATOM     66  H   SGN d 306      -7.740  -4.344  52.847  0.00  0.00     0.089 H 
ATOM     67  H   SGN d 306     -11.127  -2.647  52.334  0.00  0.00     0.131 H 
ATOM     68  H   SGN d 306      -9.188  -4.700  48.251  0.00  0.00     0.231 HD
ATOM     69  H   SGN d 306      -9.688  -4.752  53.572  0.00  0.00     0.212 HD
ATOM     70  H   SGN d 306      -7.455  -1.482  53.702  0.00  0.00     0.091 H 
ATOM     71  H   SGN d 306      -8.265  -4.123  50.544  0.00  0.00     0.140 HD
ATOM     72  H   SGN d 306      -8.383  -2.533  48.587  0.00  0.00     0.231 HD
ATOM     73  H   SGN d 306      -8.950  -1.868  51.606  0.00  0.00     0.076 H 
ATOM     74  H   SGN d 306     -11.866  -3.604  50.079  0.00  0.00     0.231 HD
ATOM     75  H   SGN d 306      -6.740  -1.930  51.635  0.00  0.00     0.210 HD
ATOM     76  C1  SGN d 302       6.647   2.413  51.054  0.00  0.00     0.150 C 
ATOM     77  O4  SGN d 302       9.335  -0.125  52.943  0.00  0.00    -0.348 OA
ATOM     78  O6  SGN d 302       9.823   2.802  53.816  0.00  0.00    -0.254 OA
ATOM     79  O3S SGN d 302       5.443   2.782  48.184  0.00  0.00    -0.296 OA
ATOM     80  S2  SGN d 302      10.434   4.134  54.704  0.00  0.00     0.251 S 
ATOM     81  O5  SGN d 302       7.363   2.863  52.206  0.00  0.00    -0.349 OA
ATOM     82  O1S SGN d 302       5.685   0.812  46.935  0.00  0.00    -0.296 OA
ATOM     83  O6S SGN d 302       9.326   5.002  55.000  0.00  0.00    -0.572 OA
ATOM     84  N   SGN d 302       6.811   0.887  49.255  0.00  0.00    -0.210 NA
ATOM     85  O5S SGN d 302      10.961   3.624  55.918  0.00  0.00    -0.572 OA
ATOM     86  C4  SGN d 302       8.976   1.040  52.199  0.00  0.00     0.095 C 
ATOM     87  O3  SGN d 302       9.243  -0.162  50.192  0.00  0.00    -0.391 OA
ATOM     88  C2  SGN d 302       7.618   1.603  50.196  0.00  0.00     0.081 C 
ATOM     89  O2S SGN d 302       7.456   2.290  47.234  0.00  0.00    -0.296 OA
ATOM     90  O1  SGN d 302       5.539   1.582  51.393  0.00  0.00    -0.348 OA
ATOM     91  C5  SGN d 302       7.919   1.812  52.988  0.00  0.00     0.091 C 
ATOM     92  S1  SGN d 302       6.318   1.731  47.820  0.00  0.00     0.156 S 
ATOM     93  C6  SGN d 302       8.529   2.436  54.189  0.00  0.00     0.067 C 
ATOM     94  O4S SGN d 302      11.467   4.753  53.957  0.00  0.00    -0.572 OA
ATOM     95  C3  SGN d 302       8.282   0.495  50.986  0.00  0.00     0.083 C 
ATOM     96  H   SGN d 302       6.262   3.267  50.537  0.00  0.00     0.131 H 
ATOM     97  H   SGN d 302       4.645   2.412  48.593  0.00  0.00     0.231 HD
ATOM     98  H   SGN d 302       4.900   0.439  47.365  0.00  0.00     0.231 HD
ATOM     99  H   SGN d 302       5.966   0.590  49.741  0.00  0.00     0.140 HD
ATOM    100  H   SGN d 302       9.817   1.667  51.987  0.00  0.00     0.091 H 
ATOM    101  H   SGN d 302       9.661  -0.869  50.708  0.00  0.00     0.210 HD
ATOM    102  H   SGN d 302       8.345   2.275  49.789  0.00  0.00     0.076 H 
ATOM    103  H   SGN d 302       7.203   2.768  46.428  0.00  0.00     0.231 HD
ATOM    104  H   SGN d 302       7.157   1.112  53.262  0.00  0.00     0.090 H 
ATOM    105  H   SGN d 302       7.969   3.299  54.484  0.00  0.00     0.080 H 
ATOM    106  H   SGN d 302       8.537   1.762  55.020  0.00  0.00     0.080 H 
ATOM    107  H   SGN d 302       7.516  -0.188  51.286  0.00  0.00     0.089 H 
ATOM    108  O2S SGN d 304      -1.554   2.194  58.638  0.00  0.00    -0.296 OA
ATOM    109  C1  SGN d 304      -0.749  -1.397  55.723  0.00  0.00     0.150 C 
ATOM    110  S2  SGN d 304       2.953  -4.083  54.547  0.00  0.00     0.251 S 
ATOM    111  O4  SGN d 304       1.486   0.059  52.573  0.00  0.00    -0.348 OA
ATOM    112  C6  SGN d 304       1.186  -2.766  52.851  0.00  0.00     0.067 C 
ATOM    113  O4S SGN d 304       4.053  -3.962  53.642  0.00  0.00    -0.572 OA
ATOM    114  O1  SGN d 304      -1.943  -1.145  55.010  0.00  0.00    -0.348 OA
ATOM    115  O5  SGN d 304       0.106  -2.246  54.972  0.00  0.00    -0.349 OA
ATOM    116  S1  SGN d 304      -0.932   0.946  58.323  0.00  0.00     0.156 S 
ATOM    117  O5S SGN d 304       2.995  -5.356  55.200  0.00  0.00    -0.572 OA
ATOM    118  C3  SGN d 304       0.263   0.542  54.588  0.00  0.00     0.083 C 
ATOM    119  N   SGN d 304      -1.018   0.803  56.560  0.00  0.00    -0.210 NA
ATOM    120  O1S SGN d 304      -1.613  -0.140  58.971  0.00  0.00    -0.296 OA
ATOM    121  O6  SGN d 304       1.445  -3.947  53.614  0.00  0.00    -0.254 OA
ATOM    122  C4  SGN d 304       1.153  -0.448  53.850  0.00  0.00     0.095 C 
ATOM    123  C5  SGN d 304       0.409  -1.751  53.676  0.00  0.00     0.091 C 
ATOM    124  C2  SGN d 304      -0.074  -0.065  55.918  0.00  0.00     0.081 C 
ATOM    125  O6S SGN d 304       3.015  -3.039  55.537  0.00  0.00    -0.572 OA
ATOM    126  O3  SGN d 304       0.925   1.767  54.817  0.00  0.00    -0.391 OA
ATOM    127  O3S SGN d 304       0.448   0.960  58.736  0.00  0.00    -0.296 OA
ATOM    128  H   SGN d 304      -2.482   2.173  58.356  0.00  0.00     0.231 HD
ATOM    129  H   SGN d 304      -0.960  -1.876  56.656  0.00  0.00     0.131 H 
ATOM    130  H   SGN d 304       2.117  -2.333  52.548  0.00  0.00     0.080 H 
ATOM    131  H   SGN d 304       0.603  -3.031  51.994  0.00  0.00     0.080 H 
ATOM    132  H   SGN d 304      -0.607   0.738  53.996  0.00  0.00     0.089 H 
ATOM    133  H   SGN d 304      -0.888   1.737  56.171  0.00  0.00     0.140 HD
ATOM    134  H   SGN d 304      -2.543  -0.150  58.694  0.00  0.00     0.231 HD
ATOM    135  H   SGN d 304       2.047  -0.604  54.417  0.00  0.00     0.091 H 
ATOM    136  H   SGN d 304      -0.491  -1.576  53.123  0.00  0.00     0.090 H 
ATOM    137  H   SGN d 304       0.820  -0.192  56.493  0.00  0.00     0.076 H 
ATOM    138  H   SGN d 304       1.718   1.610  55.353  0.00  0.00     0.210 HD
ATOM    139  H   SGN d 304       0.908   1.694  58.299  0.00  0.00     0.231 HD
ATOM    140  O1S UAP d 301      11.825  -0.033  56.790  0.00  0.00    -0.572 OA
ATOM    141  C3  UAP d 301      10.574  -2.708  53.496  0.00  0.00     0.086 C 
ATOM    142  O62 UAP d 301      13.347  -0.586  50.408  0.00  0.00    -0.642 OA
ATOM    143  C2  UAP d 301      10.800  -1.445  54.289  0.00  0.00     0.135 C 
ATOM    144  O61 UAP d 301      12.910  -2.684  50.163  0.00  0.00    -0.642 OA
ATOM    145  C1  UAP d 301      10.676  -0.214  53.416  0.00  0.00     0.167 C 
ATOM    146  C5  UAP d 301      11.754  -1.532  51.715  0.00  0.00     0.147 C 
ATOM    147  C4  UAP d 301      11.197  -2.668  52.186  0.00  0.00    -0.034 C 
ATOM    148  O3S UAP d 301      11.846  -2.380  57.088  0.00  0.00    -0.572 OA
ATOM    149  C6  UAP d 301      12.661  -1.594  50.695  0.00  0.00     0.233 C 
ATOM    150  O5  UAP d 301      11.635  -0.339  52.375  0.00  0.00    -0.311 OA
ATOM    151  O2S UAP d 301      13.838  -1.163  56.637  0.00  0.00    -0.572 OA
ATOM    152  O2  UAP d 301      12.131  -1.468  54.713  0.00  0.00    -0.244 OA
ATOM    153  O3  UAP d 301       9.220  -2.980  53.463  0.00  0.00    -0.389 OA
ATOM    154  S   UAP d 301      12.437  -1.259  56.416  0.00  0.00     0.252 S 
ATOM    155  H   UAP d 301      11.064  -3.524  53.987  0.00  0.00     0.093 H 
ATOM    156  H   UAP d 301      10.083  -1.404  55.083  0.00  0.00     0.097 H 
ATOM    157  H   UAP d 301      10.877   0.694  53.945  0.00  0.00     0.134 H 
ATOM    158  H   UAP d 301      11.216  -3.521  51.606  0.00  0.00     0.085 H 
ATOM    159  H   UAP d 301       8.754  -2.252  53.022  0.00  0.00     0.210 HD
ENDROOT
TORSDOF 50
ENDMDL
MODEL 22
REMARK VINA RESULT:      -7.9      2.957     15.933
REMARK  0 active torsions:
REMARK  status: ('A' for Active; 'I' for Inactive)
REMARK       I    between atoms: C3_1  and  O3_85 
REMARK       I    between atoms: C6_2  and  C5_22 
REMARK       I    between atoms: C6_3  and  C5_14 
REMARK       I    between atoms: C6_3  and  O6_30 
REMARK       I    between atoms: C1_4  and  O1_84 
REMARK       I    between atoms: O2S_6  and  S1_45 
REMARK       I    between atoms: C1_7  and  O1_36 
REMARK       I    between atoms: S1_10  and  N_69 
REMARK       I    between atoms: S1_10  and  O1S_27 
REMARK       I    between atoms: S1_10  and  O2S_71 
REMARK       I    between atoms: S1_10  and  O3S_88 
REMARK       I    between atoms: O4_11  and  C1_42 
REMARK       I    between atoms: O4_11  and  C4_63 
REMARK       I    between atoms: O6_12  and  C6_94 
REMARK       I    between atoms: O6_12  and  S2_28 
REMARK       I    between atoms: C1_13  and  O4_51 
REMARK       I    between atoms: S2_16  and  O6_76 
REMARK       I    between atoms: C3_18  and  O3_103 
REMARK       I    between atoms: C1_19  and  O1_37 
REMARK       I    between atoms: O4_20  and  C1_23 
REMARK       I    between atoms: O4_20  and  C4_77 
REMARK       I    between atoms: O3S_21  and  S1_92 
REMARK       I    between atoms: C3_24  and  O3_87 
REMARK       I    between atoms: O3_25  and  C3_46 
REMARK       I    between atoms: C6_29  and  C5_79 
REMARK       I    between atoms: C6_29  and  O6_76 
REMARK       I    between atoms: O6_30  and  S2_31 
REMARK       I    between atoms: O1_36  and  C4_81 
REMARK       I    between atoms: C2_38  and  O2_72 
REMARK       I    between atoms: S1_45  and  N_74 
REMARK       I    between atoms: S1_45  and  O1S_75 
REMARK       I    between atoms: S1_45  and  O3S_101 
REMARK       I    between atoms: O1S_47  and  S1_92 
REMARK       I    between atoms: S_48  and  O2_91 
REMARK       I    between atoms: C5_49  and  C6_67 
REMARK       I    between atoms: O4_51  and  C4_57 
REMARK       I    between atoms: N_52  and  C2_73 
REMARK       I    between atoms: N_52  and  S1_92 
REMARK       I    between atoms: C5_53  and  C6_61 
REMARK       I    between atoms: C4_56  and  O1_84 
REMARK       I    between atoms: C2_62  and  O2_91 
REMARK       I    between atoms: S_66  and  O2_105 
REMARK       I    between atoms: O3_68  and  C3_102 
REMARK       I    between atoms: N_69  and  C2_83 
REMARK       I    between atoms: C3_70  and  O3_98 
REMARK       I    between atoms: O2_72  and  S_96 
REMARK       I    between atoms: N_74  and  C2_86 
REMARK       I    between atoms: O2S_80  and  S1_92 
REMARK       I    between atoms: C5_89  and  C6_94 
REMARK       I    between atoms: C2_104  and  O2_105 
ROOT
ATOM      1  C3  IDS d 305       3.458   1.512  50.928  0.00  0.00     0.094 C 
ATOM      2  O3S IDS d 305       7.317   0.586  48.198  0.00  0.00    -0.572 OA
ATOM      3  C1  IDS d 305       5.342  -0.013  51.330  0.00  0.00     0.161 C 
ATOM      4  O62 IDS d 305       3.022  -0.937  54.428  0.00  0.00    -0.646 OA
ATOM      5  O5  IDS d 305       4.529  -0.280  52.453  0.00  0.00    -0.340 OA
ATOM      6  O61 IDS d 305       1.497  -1.883  53.120  0.00  0.00    -0.646 OA
ATOM      7  O1S IDS d 305       6.007   2.278  47.132  0.00  0.00    -0.572 OA
ATOM      8  C5  IDS d 305       3.243  -0.721  52.053  0.00  0.00     0.152 C 
ATOM      9  S   IDS d 305       5.986   1.153  48.042  0.00  0.00     0.252 S 
ATOM     10  C6  IDS d 305       2.543  -1.236  53.303  0.00  0.00     0.206 C 
ATOM     11  C4  IDS d 305       2.480   0.490  51.476  0.00  0.00     0.103 C 
ATOM     12  O3  IDS d 305       2.814   2.290  49.972  0.00  0.00    -0.390 OA
ATOM     13  O2S IDS d 305       5.076   0.157  47.557  0.00  0.00    -0.572 OA
ATOM     14  C2  IDS d 305       4.531   0.730  50.258  0.00  0.00     0.134 C 
ATOM     15  O2  IDS d 305       5.341   1.671  49.596  0.00  0.00    -0.244 OA
ATOM     16  H   IDS d 305       3.842   2.147  51.698  0.00  0.00     0.091 H 
ATOM     17  H   IDS d 305       6.182   0.601  51.581  0.00  0.00     0.133 H 
ATOM     18  H   IDS d 305       3.290  -1.491  51.311  0.00  0.00     0.104 H 
ATOM     19  H   IDS d 305       1.843   0.119  50.701  0.00  0.00     0.092 H 
ATOM     20  H   IDS d 305       2.465   1.718  49.272  0.00  0.00     0.210 HD
ATOM     21  H   IDS d 305       4.142   0.009  49.569  0.00  0.00     0.097 H 
ATOM     22  C6  IDS d 303      -4.105   3.805  56.307  0.00  0.00     0.206 C 
ATOM     23  O61 IDS d 303      -4.055   4.459  57.339  0.00  0.00    -0.646 OA
ATOM     24  C5  IDS d 303      -3.703   2.373  56.338  0.00  0.00     0.152 C 
ATOM     25  C1  IDS d 303      -3.301   0.508  54.944  0.00  0.00     0.161 C 
ATOM     26  O3  IDS d 303      -2.407   0.267  57.820  0.00  0.00    -0.390 OA
ATOM     27  O2S IDS d 303      -4.604  -3.273  56.007  0.00  0.00    -0.572 OA
ATOM     28  O5  IDS d 303      -3.943   1.784  55.053  0.00  0.00    -0.340 OA
ATOM     29  C3  IDS d 303      -3.736   0.176  57.434  0.00  0.00     0.094 C 
ATOM     30  S   IDS d 303      -5.060  -2.370  55.018  0.00  0.00     0.252 S 
ATOM     31  C4  IDS d 303      -4.413   1.563  57.413  0.00  0.00     0.103 C 
ATOM     32  O1S IDS d 303      -6.391  -2.621  54.626  0.00  0.00    -0.572 OA
ATOM     33  C2  IDS d 303      -3.781  -0.421  56.060  0.00  0.00     0.134 C 
ATOM     34  O3S IDS d 303      -4.149  -2.500  53.943  0.00  0.00    -0.572 OA
ATOM     35  O2  IDS d 303      -5.041  -0.834  55.771  0.00  0.00    -0.244 OA
ATOM     36  O62 IDS d 303      -4.268   4.290  55.207  0.00  0.00    -0.646 OA
ATOM     37  H   IDS d 303      -2.661   2.351  56.580  0.00  0.00     0.104 H 
ATOM     38  H   IDS d 303      -3.581   0.084  54.003  0.00  0.00     0.133 H 
ATOM     39  H   IDS d 303      -2.009  -0.617  57.823  0.00  0.00     0.210 HD
ATOM     40  H   IDS d 303      -4.264  -0.434  58.137  0.00  0.00     0.091 H 
ATOM     41  H   IDS d 303      -4.362   2.004  58.387  0.00  0.00     0.092 H 
ATOM     42  H   IDS d 303      -3.096  -1.243  56.089  0.00  0.00     0.097 H 
ATOM     43  C6  SGN d 306       8.359  -0.118  51.165  0.00  0.00     0.067 C 
ATOM     44  S1  SGN d 306       8.046  -6.673  53.332  0.00  0.00     0.156 S 
ATOM     45  C5  SGN d 306       8.086  -1.607  51.033  0.00  0.00     0.091 C 
ATOM     46  C3  SGN d 306       6.473  -3.399  51.683  0.00  0.00     0.083 C 
ATOM     47  C1  SGN d 306       8.977  -3.747  51.715  0.00  0.00     0.147 C 
ATOM     48  O1S SGN d 306       7.731  -8.000  52.870  0.00  0.00    -0.296 OA
ATOM     49  O6  SGN d 306       7.972   0.310  52.470  0.00  0.00    -0.254 OA
ATOM     50  S2  SGN d 306       8.585   1.841  53.115  0.00  0.00     0.251 S 
ATOM     51  O4S SGN d 306       7.584   2.866  53.019  0.00  0.00    -0.572 OA
ATOM     52  O1  SGN d 306       9.014  -4.250  50.387  0.00  0.00    -0.369 OA
ATOM     53  O4  SGN d 306       5.736  -1.279  50.847  0.00  0.00    -0.348 OA
ATOM     54  C4  SGN d 306       6.732  -1.900  51.657  0.00  0.00     0.095 C 
ATOM     55  N   SGN d 306       7.431  -5.527  52.143  0.00  0.00    -0.210 NA
ATOM     56  O2S SGN d 306       7.383  -6.409  54.578  0.00  0.00    -0.296 OA
ATOM     57  O5  SGN d 306       9.121  -2.332  51.738  0.00  0.00    -0.350 OA
ATOM     58  O6S SGN d 306       8.912   1.630  54.500  0.00  0.00    -0.572 OA
ATOM     59  C2  SGN d 306       7.641  -4.110  52.358  0.00  0.00     0.081 C 
ATOM     60  O3S SGN d 306       9.472  -6.532  53.472  0.00  0.00    -0.296 OA
ATOM     61  O5S SGN d 306       9.776   2.204  52.386  0.00  0.00    -0.572 OA
ATOM     62  O3  SGN d 306       5.349  -3.618  52.524  0.00  0.00    -0.391 OA
ATOM     63  H   SGN d 306       7.794   0.416  50.431  0.00  0.00     0.080 H 
ATOM     64  H   SGN d 306       9.401   0.074  51.015  0.00  0.00     0.080 H 
ATOM     65  H   SGN d 306       8.083  -1.905  50.005  0.00  0.00     0.090 H 
ATOM     66  H   SGN d 306       6.331  -3.757  50.685  0.00  0.00     0.089 H 
ATOM     67  H   SGN d 306       9.789  -4.185  52.256  0.00  0.00     0.131 H 
ATOM     68  H   SGN d 306       6.769  -8.090  52.777  0.00  0.00     0.231 HD
ATOM     69  H   SGN d 306       8.284  -3.866  49.875  0.00  0.00     0.212 HD
ATOM     70  H   SGN d 306       6.708  -1.529  52.660  0.00  0.00     0.091 H 
ATOM     71  H   SGN d 306       6.424  -5.674  52.079  0.00  0.00     0.140 HD
ATOM     72  H   SGN d 306       6.425  -6.508  54.462  0.00  0.00     0.231 HD
ATOM     73  H   SGN d 306       7.676  -3.831  53.390  0.00  0.00     0.076 H 
ATOM     74  H   SGN d 306       9.900  -6.715  52.620  0.00  0.00     0.231 HD
ATOM     75  H   SGN d 306       5.537  -3.274  53.412  0.00  0.00     0.210 HD
ATOM     76  C1  SGN d 302      -6.770   1.877  57.933  0.00  0.00     0.150 C 
ATOM     77  O4  SGN d 302      -9.426   2.832  54.889  0.00  0.00    -0.348 OA
ATOM     78  O6  SGN d 302      -9.230   5.160  56.916  0.00  0.00    -0.254 OA
ATOM     79  O3S SGN d 302      -6.106  -0.606  59.727  0.00  0.00    -0.296 OA
ATOM     80  S2  SGN d 302      -9.420   6.723  57.593  0.00  0.00     0.251 S 
ATOM     81  O5  SGN d 302      -7.159   3.237  57.727  0.00  0.00    -0.349 OA
ATOM     82  O1S SGN d 302      -6.918  -2.570  58.738  0.00  0.00    -0.296 OA
ATOM     83  O6S SGN d 302      -8.145   7.123  58.123  0.00  0.00    -0.572 OA
ATOM     84  N   SGN d 302      -7.539  -0.335  57.610  0.00  0.00    -0.210 NA
ATOM     85  O5S SGN d 302      -9.778   7.598  56.536  0.00  0.00    -0.572 OA
ATOM     86  C4  SGN d 302      -9.028   2.719  56.256  0.00  0.00     0.095 C 
ATOM     87  O3  SGN d 302      -9.883   0.526  56.322  0.00  0.00    -0.391 OA
ATOM     88  C2  SGN d 302      -8.013   1.009  57.746  0.00  0.00     0.081 C 
ATOM     89  O2S SGN d 302      -8.319  -1.122  59.899  0.00  0.00    -0.296 OA
ATOM     90  O1  SGN d 302      -5.774   1.451  57.005  0.00  0.00    -0.348 OA
ATOM     91  C5  SGN d 302      -7.721   3.489  56.445  0.00  0.00     0.091 C 
ATOM     92  S1  SGN d 302      -7.200  -1.214  59.068  0.00  0.00     0.156 S 
ATOM     93  C6  SGN d 302      -7.970   4.950  56.356  0.00  0.00     0.067 C 
ATOM     94  O4S SGN d 302     -10.460   6.686  58.556  0.00  0.00    -0.572 OA
ATOM     95  C3  SGN d 302      -8.688   1.267  56.415  0.00  0.00     0.083 C 
ATOM     96  H   SGN d 302      -6.354   1.786  58.914  0.00  0.00     0.131 H 
ATOM     97  H   SGN d 302      -5.317  -0.661  59.164  0.00  0.00     0.231 HD
ATOM     98  H   SGN d 302      -6.139  -2.607  58.162  0.00  0.00     0.231 HD
ATOM     99  H   SGN d 302      -6.678  -0.303  57.065  0.00  0.00     0.140 HD
ATOM    100  H   SGN d 302      -9.775   3.077  56.933  0.00  0.00     0.091 H 
ATOM    101  H   SGN d 302     -10.305   0.699  55.466  0.00  0.00     0.210 HD
ATOM    102  H   SGN d 302      -8.681   1.201  58.559  0.00  0.00     0.076 H 
ATOM    103  H   SGN d 302      -8.151  -1.607  60.722  0.00  0.00     0.231 HD
ATOM    104  H   SGN d 302      -7.050   3.165  55.677  0.00  0.00     0.090 H 
ATOM    105  H   SGN d 302      -7.224   5.487  56.905  0.00  0.00     0.080 H 
ATOM    106  H   SGN d 302      -7.929   5.294  55.344  0.00  0.00     0.080 H 
ATOM    107  H   SGN d 302      -8.005   0.971  55.647  0.00  0.00     0.089 H 
ATOM    108  O2S SGN d 304       2.599   5.908  53.371  0.00  0.00    -0.296 OA
ATOM    109  C1  SGN d 304       0.641   1.894  51.924  0.00  0.00     0.150 C 
ATOM    110  S2  SGN d 304      -3.620   0.511  50.432  0.00  0.00     0.251 S 
ATOM    111  O4  SGN d 304      -1.886   0.612  54.925  0.00  0.00    -0.348 OA
ATOM    112  C6  SGN d 304      -2.022  -0.668  52.378  0.00  0.00     0.067 C 
ATOM    113  O4S SGN d 304      -4.840   0.110  51.061  0.00  0.00    -0.572 OA
ATOM    114  O1  SGN d 304       1.697   1.129  52.469  0.00  0.00    -0.348 OA
ATOM    115  O5  SGN d 304      -0.475   1.064  51.642  0.00  0.00    -0.349 OA
ATOM    116  S1  SGN d 304       1.724   5.175  52.509  0.00  0.00     0.156 S 
ATOM    117  O5S SGN d 304      -3.750   0.414  49.010  0.00  0.00    -0.572 OA
ATOM    118  C3  SGN d 304      -0.229   2.202  54.209  0.00  0.00     0.083 C 
ATOM    119  N   SGN d 304       1.438   3.630  53.325  0.00  0.00    -0.210 NA
ATOM    120  O1S SGN d 304       2.325   4.983  51.218  0.00  0.00    -0.296 OA
ATOM    121  O6  SGN d 304      -2.324  -0.574  50.983  0.00  0.00    -0.254 OA
ATOM    122  C4  SGN d 304      -1.402   1.321  53.801  0.00  0.00     0.095 C 
ATOM    123  C5  SGN d 304      -0.938   0.326  52.764  0.00  0.00     0.091 C 
ATOM    124  C2  SGN d 304       0.253   2.903  52.973  0.00  0.00     0.081 C 
ATOM    125  O6S SGN d 304      -3.310   1.871  50.788  0.00  0.00    -0.572 OA
ATOM    126  O3  SGN d 304      -0.616   3.181  55.148  0.00  0.00    -0.391 OA
ATOM    127  O3S SGN d 304       0.475   5.875  52.357  0.00  0.00    -0.296 OA
ATOM    128  H   SGN d 304       3.437   5.428  53.466  0.00  0.00     0.231 HD
ATOM    129  H   SGN d 304       0.947   2.365  51.013  0.00  0.00     0.131 H 
ATOM    130  H   SGN d 304      -2.907  -0.460  52.943  0.00  0.00     0.080 H 
ATOM    131  H   SGN d 304      -1.672  -1.658  52.587  0.00  0.00     0.080 H 
ATOM    132  H   SGN d 304       0.529   1.593  54.655  0.00  0.00     0.089 H 
ATOM    133  H   SGN d 304       1.395   3.817  54.327  0.00  0.00     0.140 HD
ATOM    134  H   SGN d 304       3.167   4.512  51.321  0.00  0.00     0.231 HD
ATOM    135  H   SGN d 304      -2.181   1.937  53.404  0.00  0.00     0.091 H 
ATOM    136  H   SGN d 304      -0.148  -0.270  53.170  0.00  0.00     0.090 H 
ATOM    137  H   SGN d 304      -0.519   3.540  52.595  0.00  0.00     0.076 H 
ATOM    138  H   SGN d 304      -1.304   3.746  54.762  0.00  0.00     0.210 HD
ATOM    139  H   SGN d 304       0.069   6.005  53.228  0.00  0.00     0.231 HD
ATOM    140  O1S UAP d 301     -11.063   6.681  53.016  0.00  0.00    -0.572 OA
ATOM    141  C3  UAP d 301     -10.953   2.294  52.462  0.00  0.00     0.086 C 
ATOM    142  O62 UAP d 301     -13.876   1.538  56.015  0.00  0.00    -0.642 OA
ATOM    143  C2  UAP d 301     -10.802   3.645  53.116  0.00  0.00     0.135 C 
ATOM    144  O61 UAP d 301     -13.858   0.161  54.355  0.00  0.00    -0.642 OA
ATOM    145  C1  UAP d 301     -10.645   3.519  54.616  0.00  0.00     0.167 C 
ATOM    146  C5  UAP d 301     -12.242   1.727  54.453  0.00  0.00     0.147 C 
ATOM    147  C4  UAP d 301     -11.805   1.396  53.220  0.00  0.00    -0.034 C 
ATOM    148  O3S UAP d 301     -11.423   5.742  50.875  0.00  0.00    -0.572 OA
ATOM    149  C6  UAP d 301     -13.328   1.088  54.982  0.00  0.00     0.233 C 
ATOM    150  O5  UAP d 301     -11.796   2.845  55.105  0.00  0.00    -0.311 OA
ATOM    151  O2S UAP d 301     -13.230   6.498  52.225  0.00  0.00    -0.572 OA
ATOM    152  O2  UAP d 301     -12.009   4.323  52.924  0.00  0.00    -0.244 OA
ATOM    153  O3  UAP d 301      -9.698   1.782  52.195  0.00  0.00    -0.389 OA
ATOM    154  S   UAP d 301     -11.936   5.909  52.204  0.00  0.00     0.252 S 
ATOM    155  H   UAP d 301     -11.469   2.409  51.531  0.00  0.00     0.093 H 
ATOM    156  H   UAP d 301      -9.948   4.136  52.698  0.00  0.00     0.097 H 
ATOM    157  H   UAP d 301     -10.581   4.467  55.110  0.00  0.00     0.134 H 
ATOM    158  H   UAP d 301     -12.081   0.490  52.809  0.00  0.00     0.085 H 
ATOM    159  H   UAP d 301      -9.211   1.669  53.027  0.00  0.00     0.210 HD
ENDROOT
TORSDOF 50
ENDMDL
MODEL 23
REMARK VINA RESULT:      -7.9      4.517     15.098
REMARK  0 active torsions:
REMARK  status: ('A' for Active; 'I' for Inactive)
REMARK       I    between atoms: C3_1  and  O3_85 
REMARK       I    between atoms: C6_2  and  C5_22 
REMARK       I    between atoms: C6_3  and  C5_14 
REMARK       I    between atoms: C6_3  and  O6_30 
REMARK       I    between atoms: C1_4  and  O1_84 
REMARK       I    between atoms: O2S_6  and  S1_45 
REMARK       I    between atoms: C1_7  and  O1_36 
REMARK       I    between atoms: S1_10  and  N_69 
REMARK       I    between atoms: S1_10  and  O1S_27 
REMARK       I    between atoms: S1_10  and  O2S_71 
REMARK       I    between atoms: S1_10  and  O3S_88 
REMARK       I    between atoms: O4_11  and  C1_42 
REMARK       I    between atoms: O4_11  and  C4_63 
REMARK       I    between atoms: O6_12  and  C6_94 
REMARK       I    between atoms: O6_12  and  S2_28 
REMARK       I    between atoms: C1_13  and  O4_51 
REMARK       I    between atoms: S2_16  and  O6_76 
REMARK       I    between atoms: C3_18  and  O3_103 
REMARK       I    between atoms: C1_19  and  O1_37 
REMARK       I    between atoms: O4_20  and  C1_23 
REMARK       I    between atoms: O4_20  and  C4_77 
REMARK       I    between atoms: O3S_21  and  S1_92 
REMARK       I    between atoms: C3_24  and  O3_87 
REMARK       I    between atoms: O3_25  and  C3_46 
REMARK       I    between atoms: C6_29  and  C5_79 
REMARK       I    between atoms: C6_29  and  O6_76 
REMARK       I    between atoms: O6_30  and  S2_31 
REMARK       I    between atoms: O1_36  and  C4_81 
REMARK       I    between atoms: C2_38  and  O2_72 
REMARK       I    between atoms: S1_45  and  N_74 
REMARK       I    between atoms: S1_45  and  O1S_75 
REMARK       I    between atoms: S1_45  and  O3S_101 
REMARK       I    between atoms: O1S_47  and  S1_92 
REMARK       I    between atoms: S_48  and  O2_91 
REMARK       I    between atoms: C5_49  and  C6_67 
REMARK       I    between atoms: O4_51  and  C4_57 
REMARK       I    between atoms: N_52  and  C2_73 
REMARK       I    between atoms: N_52  and  S1_92 
REMARK       I    between atoms: C5_53  and  C6_61 
REMARK       I    between atoms: C4_56  and  O1_84 
REMARK       I    between atoms: C2_62  and  O2_91 
REMARK       I    between atoms: S_66  and  O2_105 
REMARK       I    between atoms: O3_68  and  C3_102 
REMARK       I    between atoms: N_69  and  C2_83 
REMARK       I    between atoms: C3_70  and  O3_98 
REMARK       I    between atoms: O2_72  and  S_96 
REMARK       I    between atoms: N_74  and  C2_86 
REMARK       I    between atoms: O2S_80  and  S1_92 
REMARK       I    between atoms: C5_89  and  C6_94 
REMARK       I    between atoms: C2_104  and  O2_105 
ROOT
ATOM      1  C3  IDS d 305       6.353  -0.182  52.259  0.00  0.00     0.094 C 
ATOM      2  O3S IDS d 305      11.129  -0.688  52.623  0.00  0.00    -0.572 OA
ATOM      3  C1  IDS d 305       7.992   1.182  53.479  0.00  0.00     0.161 C 
ATOM      4  O62 IDS d 305       4.613   2.885  54.709  0.00  0.00    -0.646 OA
ATOM      5  O5  IDS d 305       6.783   1.806  53.854  0.00  0.00    -0.340 OA
ATOM      6  O61 IDS d 305       4.033   1.094  55.887  0.00  0.00    -0.646 OA
ATOM      7  O1S IDS d 305      10.285  -2.378  51.158  0.00  0.00    -0.572 OA
ATOM      8  C5  IDS d 305       5.912   0.885  54.487  0.00  0.00     0.152 C 
ATOM      9  S   IDS d 305       9.975  -1.498  52.264  0.00  0.00     0.252 S 
ATOM     10  C6  IDS d 305       4.772   1.696  55.089  0.00  0.00     0.206 C 
ATOM     11  C4  IDS d 305       5.371  -0.079  53.411  0.00  0.00     0.103 C 
ATOM     12  O3  IDS d 305       6.151  -1.388  51.596  0.00  0.00    -0.390 OA
ATOM     13  O2S IDS d 305       9.542  -2.272  53.391  0.00  0.00    -0.572 OA
ATOM     14  C2  IDS d 305       7.705  -0.202  52.878  0.00  0.00     0.134 C 
ATOM     15  O2  IDS d 305       8.606  -0.478  51.833  0.00  0.00    -0.244 OA
ATOM     16  H   IDS d 305       6.238   0.624  51.565  0.00  0.00     0.091 H 
ATOM     17  H   IDS d 305       8.525   1.748  52.743  0.00  0.00     0.133 H 
ATOM     18  H   IDS d 305       6.406   0.318  55.249  0.00  0.00     0.104 H 
ATOM     19  H   IDS d 305       5.235  -1.030  53.881  0.00  0.00     0.092 H 
ATOM     20  H   IDS d 305       6.255  -2.121  52.222  0.00  0.00     0.210 HD
ATOM     21  H   IDS d 305       7.788  -0.932  53.657  0.00  0.00     0.097 H 
ATOM     22  C6  IDS d 303      -3.083   0.795  51.073  0.00  0.00     0.206 C 
ATOM     23  O61 IDS d 303      -3.615   1.672  50.408  0.00  0.00    -0.646 OA
ATOM     24  C5  IDS d 303      -2.565   1.127  52.428  0.00  0.00     0.152 C 
ATOM     25  C1  IDS d 303      -1.313   0.243  54.226  0.00  0.00     0.161 C 
ATOM     26  O3  IDS d 303      -1.879   3.210  54.299  0.00  0.00    -0.390 OA
ATOM     27  O2S IDS d 303      -2.473   0.869  58.148  0.00  0.00    -0.572 OA
ATOM     28  O5  IDS d 303      -2.086  -0.066  53.059  0.00  0.00    -0.340 OA
ATOM     29  C3  IDS d 303      -2.839   2.253  54.593  0.00  0.00     0.094 C 
ATOM     30  S   IDS d 303      -2.512  -0.287  57.334  0.00  0.00     0.252 S 
ATOM     31  C4  IDS d 303      -3.593   1.804  53.324  0.00  0.00     0.103 C 
ATOM     32  O1S IDS d 303      -3.449  -1.238  57.787  0.00  0.00    -0.572 OA
ATOM     33  C2  IDS d 303      -2.145   1.073  55.205  0.00  0.00     0.134 C 
ATOM     34  O3S IDS d 303      -1.190  -0.792  57.337  0.00  0.00    -0.572 OA
ATOM     35  O2  IDS d 303      -3.050   0.259  55.805  0.00  0.00    -0.244 OA
ATOM     36  O62 IDS d 303      -2.761  -0.287  50.630  0.00  0.00    -0.646 OA
ATOM     37  H   IDS d 303      -1.773   1.833  52.290  0.00  0.00     0.104 H 
ATOM     38  H   IDS d 303      -1.053  -0.681  54.697  0.00  0.00     0.133 H 
ATOM     39  H   IDS d 303      -1.423   3.472  55.114  0.00  0.00     0.210 HD
ATOM     40  H   IDS d 303      -3.557   2.671  55.268  0.00  0.00     0.091 H 
ATOM     41  H   IDS d 303      -4.071   2.647  52.870  0.00  0.00     0.092 H 
ATOM     42  H   IDS d 303      -1.460   1.488  55.914  0.00  0.00     0.097 H 
ATOM     43  C6  SGN d 306      10.706   2.466  53.131  0.00  0.00     0.067 C 
ATOM     44  S1  SGN d 306      10.232   4.753  59.635  0.00  0.00     0.156 S 
ATOM     45  C5  SGN d 306      10.722   2.343  54.645  0.00  0.00     0.091 C 
ATOM     46  C3  SGN d 306       9.237   2.299  56.653  0.00  0.00     0.083 C 
ATOM     47  C1  SGN d 306      11.443   3.534  56.620  0.00  0.00     0.147 C 
ATOM     48  O1S SGN d 306      10.348   4.305  60.999  0.00  0.00    -0.296 OA
ATOM     49  O6  SGN d 306       9.693   3.395  52.753  0.00  0.00    -0.254 OA
ATOM     50  S2  SGN d 306       9.723   4.127  51.140  0.00  0.00     0.251 S 
ATOM     51  O4S SGN d 306       8.769   3.488  50.278  0.00  0.00    -0.572 OA
ATOM     52  O1  SGN d 306      12.173   2.425  57.125  0.00  0.00    -0.369 OA
ATOM     53  O4  SGN d 306       8.726   1.045  54.677  0.00  0.00    -0.348 OA
ATOM     54  C4  SGN d 306       9.284   2.276  55.133  0.00  0.00     0.095 C 
ATOM     55  N   SGN d 306      10.121   3.326  58.608  0.00  0.00    -0.210 NA
ATOM     56  O2S SGN d 306       9.028   5.513  59.461  0.00  0.00    -0.296 OA
ATOM     57  O5  SGN d 306      11.377   3.507  55.200  0.00  0.00    -0.350 OA
ATOM     58  O6S SGN d 306       9.373   5.514  51.285  0.00  0.00    -0.572 OA
ATOM     59  C2  SGN d 306      10.020   3.499  57.173  0.00  0.00     0.081 C 
ATOM     60  O3S SGN d 306      11.388   5.536  59.281  0.00  0.00    -0.296 OA
ATOM     61  O5S SGN d 306      11.060   4.018  50.610  0.00  0.00    -0.572 OA
ATOM     62  O3  SGN d 306       7.886   2.526  57.030  0.00  0.00    -0.391 OA
ATOM     63  H   SGN d 306      10.499   1.512  52.695  0.00  0.00     0.080 H 
ATOM     64  H   SGN d 306      11.660   2.810  52.786  0.00  0.00     0.080 H 
ATOM     65  H   SGN d 306      11.249   1.462  54.951  0.00  0.00     0.090 H 
ATOM     66  H   SGN d 306       9.636   1.384  57.038  0.00  0.00     0.089 H 
ATOM     67  H   SGN d 306      11.946   4.427  56.925  0.00  0.00     0.131 H 
ATOM     68  H   SGN d 306       9.568   3.778  61.234  0.00  0.00     0.231 HD
ATOM     69  H   SGN d 306      11.735   1.601  56.861  0.00  0.00     0.212 HD
ATOM     70  H   SGN d 306       8.737   3.116  54.758  0.00  0.00     0.091 H 
ATOM     71  H   SGN d 306       9.294   2.807  58.905  0.00  0.00     0.140 HD
ATOM     72  H   SGN d 306       8.263   4.969  59.704  0.00  0.00     0.231 HD
ATOM     73  H   SGN d 306       9.523   4.400  56.881  0.00  0.00     0.076 H 
ATOM     74  H   SGN d 306      12.190   5.004  59.406  0.00  0.00     0.231 HD
ATOM     75  H   SGN d 306       7.581   3.366  56.652  0.00  0.00     0.210 HD
ATOM     76  C1  SGN d 302      -5.930   1.124  53.362  0.00  0.00     0.150 C 
ATOM     77  O4  SGN d 302      -6.907  -2.878  52.849  0.00  0.00    -0.348 OA
ATOM     78  O6  SGN d 302      -8.001  -1.193  50.497  0.00  0.00    -0.254 OA
ATOM     79  O3S SGN d 302      -5.895   3.214  55.698  0.00  0.00    -0.296 OA
ATOM     80  S2  SGN d 302      -8.688  -0.815  48.974  0.00  0.00     0.251 S 
ATOM     81  O5  SGN d 302      -6.343   0.650  52.079  0.00  0.00    -0.349 OA
ATOM     82  O1S SGN d 302      -5.879   2.122  57.773  0.00  0.00    -0.296 OA
ATOM     83  O6S SGN d 302      -7.884   0.219  48.381  0.00  0.00    -0.572 OA
ATOM     84  N   SGN d 302      -6.164   0.657  55.668  0.00  0.00    -0.210 NA
ATOM     85  O5S SGN d 302      -8.605  -1.983  48.173  0.00  0.00    -0.572 OA
ATOM     86  C4  SGN d 302      -7.199  -1.481  52.887  0.00  0.00     0.095 C 
ATOM     87  O3  SGN d 302      -7.695  -1.647  55.182  0.00  0.00    -0.391 OA
ATOM     88  C2  SGN d 302      -6.811   0.445  54.409  0.00  0.00     0.081 C 
ATOM     89  O2S SGN d 302      -7.836   2.364  56.540  0.00  0.00    -0.296 OA
ATOM     90  O1  SGN d 302      -4.567   0.812  53.643  0.00  0.00    -0.348 OA
ATOM     91  C5  SGN d 302      -6.251  -0.761  51.927  0.00  0.00     0.091 C 
ATOM     92  S1  SGN d 302      -6.454   2.169  56.471  0.00  0.00     0.156 S 
ATOM     93  C6  SGN d 302      -6.611  -1.075  50.521  0.00  0.00     0.067 C 
ATOM     94  O4S SGN d 302     -10.047  -0.455  49.156  0.00  0.00    -0.572 OA
ATOM     95  C3  SGN d 302      -6.795  -1.063  54.270  0.00  0.00     0.083 C 
ATOM     96  H   SGN d 302      -6.026   2.189  53.379  0.00  0.00     0.131 H 
ATOM     97  H   SGN d 302      -4.934   3.095  55.640  0.00  0.00     0.231 HD
ATOM     98  H   SGN d 302      -4.922   1.986  57.698  0.00  0.00     0.231 HD
ATOM     99  H   SGN d 302      -5.159   0.582  55.512  0.00  0.00     0.140 HD
ATOM    100  H   SGN d 302      -8.218  -1.266  52.638  0.00  0.00     0.091 H 
ATOM    101  H   SGN d 302      -7.675  -2.612  55.084  0.00  0.00     0.210 HD
ATOM    102  H   SGN d 302      -7.805   0.829  54.311  0.00  0.00     0.076 H 
ATOM    103  H   SGN d 302      -8.021   3.205  56.985  0.00  0.00     0.231 HD
ATOM    104  H   SGN d 302      -5.260  -1.094  52.155  0.00  0.00     0.090 H 
ATOM    105  H   SGN d 302      -6.293  -0.285  49.872  0.00  0.00     0.080 H 
ATOM    106  H   SGN d 302      -6.135  -1.972  50.186  0.00  0.00     0.080 H 
ATOM    107  H   SGN d 302      -5.797  -1.392  54.468  0.00  0.00     0.089 H 
ATOM    108  O2S SGN d 304       3.880   1.203  48.017  0.00  0.00    -0.296 OA
ATOM    109  C1  SGN d 304       3.380  -0.665  52.294  0.00  0.00     0.150 C 
ATOM    110  S2  SGN d 304       0.564  -3.871  54.318  0.00  0.00     0.251 S 
ATOM    111  O4  SGN d 304      -0.088   0.884  53.910  0.00  0.00    -0.348 OA
ATOM    112  C6  SGN d 304       1.174  -1.314  55.223  0.00  0.00     0.067 C 
ATOM    113  O4S SGN d 304      -0.745  -3.860  54.891  0.00  0.00    -0.572 OA
ATOM    114  O1  SGN d 304       4.135   0.373  52.886  0.00  0.00    -0.348 OA
ATOM    115  O5  SGN d 304       2.650  -1.372  53.285  0.00  0.00    -0.349 OA
ATOM    116  S1  SGN d 304       3.625   0.094  48.881  0.00  0.00     0.156 S 
ATOM    117  O5S SGN d 304       1.144  -5.173  54.448  0.00  0.00    -0.572 OA
ATOM    118  C3  SGN d 304       1.493   0.907  52.096  0.00  0.00     0.083 C 
ATOM    119  N   SGN d 304       3.183   0.801  50.444  0.00  0.00    -0.210 NA
ATOM    120  O1S SGN d 304       4.788  -0.742  48.995  0.00  0.00    -0.296 OA
ATOM    121  O6  SGN d 304       1.566  -2.688  55.189  0.00  0.00    -0.254 OA
ATOM    122  C4  SGN d 304       0.780   0.068  53.148  0.00  0.00     0.095 C 
ATOM    123  C5  SGN d 304       1.805  -0.544  54.073  0.00  0.00     0.091 C 
ATOM    124  C2  SGN d 304       2.414  -0.008  51.344  0.00  0.00     0.081 C 
ATOM    125  O6S SGN d 304       0.492  -3.522  52.923  0.00  0.00    -0.572 OA
ATOM    126  O3  SGN d 304       0.583   1.471  51.177  0.00  0.00    -0.391 OA
ATOM    127  O3S SGN d 304       2.523  -0.685  48.379  0.00  0.00    -0.296 OA
ATOM    128  H   SGN d 304       4.624   1.720  48.364  0.00  0.00     0.231 HD
ATOM    129  H   SGN d 304       4.021  -1.360  51.792  0.00  0.00     0.131 H 
ATOM    130  H   SGN d 304       0.108  -1.251  55.144  0.00  0.00     0.080 H 
ATOM    131  H   SGN d 304       1.504  -0.885  56.146  0.00  0.00     0.080 H 
ATOM    132  H   SGN d 304       2.016   1.705  52.581  0.00  0.00     0.089 H 
ATOM    133  H   SGN d 304       2.643   1.645  50.255  0.00  0.00     0.140 HD
ATOM    134  H   SGN d 304       5.531  -0.218  49.333  0.00  0.00     0.231 HD
ATOM    135  H   SGN d 304       0.215  -0.698  52.660  0.00  0.00     0.091 H 
ATOM    136  H   SGN d 304       2.374   0.233  54.539  0.00  0.00     0.090 H 
ATOM    137  H   SGN d 304       1.842  -0.755  50.834  0.00  0.00     0.076 H 
ATOM    138  H   SGN d 304       0.098   0.762  50.726  0.00  0.00     0.210 HD
ATOM    139  H   SGN d 304       1.737  -0.121  48.302  0.00  0.00     0.231 HD
ATOM    140  O1S UAP d 301      -7.924  -5.606  49.310  0.00  0.00    -0.572 OA
ATOM    141  C3  UAP d 301      -7.006  -5.685  53.636  0.00  0.00     0.086 C 
ATOM    142  O62 UAP d 301     -11.148  -3.880  54.785  0.00  0.00    -0.642 OA
ATOM    143  C2  UAP d 301      -7.359  -5.150  52.271  0.00  0.00     0.135 C 
ATOM    144  O61 UAP d 301     -10.164  -5.218  56.162  0.00  0.00    -0.642 OA
ATOM    145  C1  UAP d 301      -7.923  -3.747  52.356  0.00  0.00     0.167 C 
ATOM    146  C5  UAP d 301      -9.006  -4.498  54.370  0.00  0.00     0.147 C 
ATOM    147  C4  UAP d 301      -7.995  -5.349  54.645  0.00  0.00    -0.034 C 
ATOM    148  O3S UAP d 301      -7.094  -7.581  50.315  0.00  0.00    -0.572 OA
ATOM    149  C6  UAP d 301     -10.121  -4.493  55.159  0.00  0.00     0.233 C 
ATOM    150  O5  UAP d 301      -9.071  -3.806  53.190  0.00  0.00    -0.311 OA
ATOM    151  O2S UAP d 301      -9.406  -7.307  49.825  0.00  0.00    -0.572 OA
ATOM    152  O2  UAP d 301      -8.402  -5.942  51.785  0.00  0.00    -0.244 OA
ATOM    153  O3  UAP d 301      -5.723  -5.287  53.957  0.00  0.00    -0.389 OA
ATOM    154  S   UAP d 301      -8.196  -6.667  50.213  0.00  0.00     0.252 S 
ATOM    155  H   UAP d 301      -7.024  -6.756  53.609  0.00  0.00     0.093 H 
ATOM    156  H   UAP d 301      -6.479  -5.154  51.662  0.00  0.00     0.097 H 
ATOM    157  H   UAP d 301      -8.224  -3.360  51.405  0.00  0.00     0.134 H 
ATOM    158  H   UAP d 301      -7.923  -5.766  55.585  0.00  0.00     0.085 H 
ATOM    159  H   UAP d 301      -5.683  -4.318  53.986  0.00  0.00     0.210 HD
ENDROOT
TORSDOF 50
ENDMDL
MODEL 24
REMARK VINA RESULT:      -7.8      2.918      6.055
REMARK  0 active torsions:
REMARK  status: ('A' for Active; 'I' for Inactive)
REMARK       I    between atoms: C3_1  and  O3_85 
REMARK       I    between atoms: C6_2  and  C5_22 
REMARK       I    between atoms: C6_3  and  C5_14 
REMARK       I    between atoms: C6_3  and  O6_30 
REMARK       I    between atoms: C1_4  and  O1_84 
REMARK       I    between atoms: O2S_6  and  S1_45 
REMARK       I    between atoms: C1_7  and  O1_36 
REMARK       I    between atoms: S1_10  and  N_69 
REMARK       I    between atoms: S1_10  and  O1S_27 
REMARK       I    between atoms: S1_10  and  O2S_71 
REMARK       I    between atoms: S1_10  and  O3S_88 
REMARK       I    between atoms: O4_11  and  C1_42 
REMARK       I    between atoms: O4_11  and  C4_63 
REMARK       I    between atoms: O6_12  and  C6_94 
REMARK       I    between atoms: O6_12  and  S2_28 
REMARK       I    between atoms: C1_13  and  O4_51 
REMARK       I    between atoms: S2_16  and  O6_76 
REMARK       I    between atoms: C3_18  and  O3_103 
REMARK       I    between atoms: C1_19  and  O1_37 
REMARK       I    between atoms: O4_20  and  C1_23 
REMARK       I    between atoms: O4_20  and  C4_77 
REMARK       I    between atoms: O3S_21  and  S1_92 
REMARK       I    between atoms: C3_24  and  O3_87 
REMARK       I    between atoms: O3_25  and  C3_46 
REMARK       I    between atoms: C6_29  and  C5_79 
REMARK       I    between atoms: C6_29  and  O6_76 
REMARK       I    between atoms: O6_30  and  S2_31 
REMARK       I    between atoms: O1_36  and  C4_81 
REMARK       I    between atoms: C2_38  and  O2_72 
REMARK       I    between atoms: S1_45  and  N_74 
REMARK       I    between atoms: S1_45  and  O1S_75 
REMARK       I    between atoms: S1_45  and  O3S_101 
REMARK       I    between atoms: O1S_47  and  S1_92 
REMARK       I    between atoms: S_48  and  O2_91 
REMARK       I    between atoms: C5_49  and  C6_67 
REMARK       I    between atoms: O4_51  and  C4_57 
REMARK       I    between atoms: N_52  and  C2_73 
REMARK       I    between atoms: N_52  and  S1_92 
REMARK       I    between atoms: C5_53  and  C6_61 
REMARK       I    between atoms: C4_56  and  O1_84 
REMARK       I    between atoms: C2_62  and  O2_91 
REMARK       I    between atoms: S_66  and  O2_105 
REMARK       I    between atoms: O3_68  and  C3_102 
REMARK       I    between atoms: N_69  and  C2_83 
REMARK       I    between atoms: C3_70  and  O3_98 
REMARK       I    between atoms: O2_72  and  S_96 
REMARK       I    between atoms: N_74  and  C2_86 
REMARK       I    between atoms: O2S_80  and  S1_92 
REMARK       I    between atoms: C5_89  and  C6_94 
REMARK       I    between atoms: C2_104  and  O2_105 
ROOT
ATOM      1  C3  IDS d 305      -3.668  -1.060  51.897  0.00  0.00     0.094 C 
ATOM      2  O3S IDS d 305      -8.187  -0.622  50.291  0.00  0.00    -0.572 OA
ATOM      3  C1  IDS d 305      -5.427   0.522  52.560  0.00  0.00     0.161 C 
ATOM      4  O62 IDS d 305      -2.363   1.977  54.639  0.00  0.00    -0.646 OA
ATOM      5  O5  IDS d 305      -4.340   0.983  53.333  0.00  0.00    -0.340 OA
ATOM      6  O61 IDS d 305      -1.326   2.665  52.800  0.00  0.00    -0.646 OA
ATOM      7  O1S IDS d 305      -7.160  -2.484  49.201  0.00  0.00    -0.572 OA
ATOM      8  C5  IDS d 305      -3.246   1.338  52.506  0.00  0.00     0.152 C 
ATOM      9  S   IDS d 305      -6.932  -1.214  49.856  0.00  0.00     0.252 S 
ATOM     10  C6  IDS d 305      -2.242   2.067  53.389  0.00  0.00     0.206 C 
ATOM     11  C4  IDS d 305      -2.624   0.040  51.951  0.00  0.00     0.103 C 
ATOM     12  O3  IDS d 305      -3.289  -2.000  50.946  0.00  0.00    -0.390 OA
ATOM     13  O2S IDS d 305      -6.248  -0.325  48.961  0.00  0.00    -0.572 OA
ATOM     14  C2  IDS d 305      -4.924  -0.406  51.443  0.00  0.00     0.134 C 
ATOM     15  O2  IDS d 305      -5.844  -1.446  51.220  0.00  0.00    -0.244 OA
ATOM     16  H   IDS d 305      -3.783  -1.544  52.844  0.00  0.00     0.091 H 
ATOM     17  H   IDS d 305      -6.130  -0.033  53.146  0.00  0.00     0.133 H 
ATOM     18  H   IDS d 305      -3.541   1.963  51.688  0.00  0.00     0.104 H 
ATOM     19  H   IDS d 305      -2.254   0.262  50.972  0.00  0.00     0.092 H 
ATOM     20  H   IDS d 305      -3.184  -1.564  50.086  0.00  0.00     0.210 HD
ATOM     21  H   IDS d 305      -4.784   0.178  50.557  0.00  0.00     0.097 H 
ATOM     22  C6  IDS d 303       5.222  -2.383  55.155  0.00  0.00     0.206 C 
ATOM     23  O61 IDS d 303       5.502  -2.840  56.253  0.00  0.00    -0.646 OA
ATOM     24  C5  IDS d 303       4.777  -0.967  55.052  0.00  0.00     0.152 C 
ATOM     25  C1  IDS d 303       3.904   0.619  53.535  0.00  0.00     0.161 C 
ATOM     26  O3  IDS d 303       3.862   1.377  56.459  0.00  0.00    -0.390 OA
ATOM     27  O2S IDS d 303       5.274   4.523  53.500  0.00  0.00    -0.572 OA
ATOM     28  O5  IDS d 303       4.610  -0.620  53.672  0.00  0.00    -0.340 OA
ATOM     29  C3  IDS d 303       5.019   1.391  55.694  0.00  0.00     0.094 C 
ATOM     30  S   IDS d 303       5.470   3.455  52.593  0.00  0.00     0.252 S 
ATOM     31  C4  IDS d 303       5.726   0.020  55.718  0.00  0.00     0.103 C 
ATOM     32  O1S IDS d 303       6.618   3.625  51.794  0.00  0.00    -0.572 OA
ATOM     33  C2  IDS d 303       4.638   1.731  54.284  0.00  0.00     0.134 C 
ATOM     34  O3S IDS d 303       4.283   3.394  51.824  0.00  0.00    -0.572 OA
ATOM     35  O2  IDS d 303       5.741   2.079  53.574  0.00  0.00    -0.244 OA
ATOM     36  O62 IDS d 303       5.086  -3.058  54.157  0.00  0.00    -0.646 OA
ATOM     37  H   IDS d 303       3.849  -0.897  55.580  0.00  0.00     0.104 H 
ATOM     38  H   IDS d 303       3.881   0.866  52.494  0.00  0.00     0.133 H 
ATOM     39  H   IDS d 303       3.441   2.250  56.424  0.00  0.00     0.210 HD
ATOM     40  H   IDS d 303       5.697   2.115  56.095  0.00  0.00     0.091 H 
ATOM     41  H   IDS d 303       5.979  -0.239  56.725  0.00  0.00     0.092 H 
ATOM     42  H   IDS d 303       3.952   2.548  54.368  0.00  0.00     0.097 H 
ATOM     43  C6  SGN d 306      -8.366   0.610  53.264  0.00  0.00     0.067 C 
ATOM     44  S1  SGN d 306      -7.759   7.446  54.075  0.00  0.00     0.156 S 
ATOM     45  C5  SGN d 306      -8.215   2.049  52.802  0.00  0.00     0.091 C 
ATOM     46  C3  SGN d 306      -6.571   3.921  52.634  0.00  0.00     0.083 C 
ATOM     47  C1  SGN d 306      -8.974   4.281  53.331  0.00  0.00     0.147 C 
ATOM     48  O1S SGN d 306      -7.654   8.666  53.318  0.00  0.00    -0.296 OA
ATOM     49  O6  SGN d 306      -7.601   0.422  54.453  0.00  0.00    -0.254 OA
ATOM     50  S2  SGN d 306      -7.929  -0.965  55.504  0.00  0.00     0.251 S 
ATOM     51  O4S SGN d 306      -6.950  -1.996  55.300  0.00  0.00    -0.572 OA
ATOM     52  O1  SGN d 306      -9.414   4.537  52.006  0.00  0.00    -0.369 OA
ATOM     53  O4  SGN d 306      -6.004   1.682  52.000  0.00  0.00    -0.348 OA
ATOM     54  C4  SGN d 306      -6.754   2.444  52.944  0.00  0.00     0.095 C 
ATOM     55  N   SGN d 306      -7.458   6.102  52.976  0.00  0.00    -0.210 NA
ATOM     56  O2S SGN d 306      -6.755   7.407  55.099  0.00  0.00    -0.296 OA
ATOM     57  O5  SGN d 306      -9.037   2.895  53.640  0.00  0.00    -0.350 OA
ATOM     58  O6S SGN d 306      -7.855  -0.508  56.865  0.00  0.00    -0.572 OA
ATOM     59  C2  SGN d 306      -7.528   4.748  53.485  0.00  0.00     0.081 C 
ATOM     60  O3S SGN d 306      -9.077   7.339  54.646  0.00  0.00    -0.296 OA
ATOM     61  O5S SGN d 306      -9.260  -1.448  55.228  0.00  0.00    -0.572 OA
ATOM     62  O3  SGN d 306      -5.264   4.283  53.060  0.00  0.00    -0.391 OA
ATOM     63  H   SGN d 306      -8.012  -0.051  52.501  0.00  0.00     0.080 H 
ATOM     64  H   SGN d 306      -9.397   0.399  53.459  0.00  0.00     0.080 H 
ATOM     65  H   SGN d 306      -8.521   2.157  51.783  0.00  0.00     0.090 H 
ATOM     66  H   SGN d 306      -6.738   4.093  51.591  0.00  0.00     0.089 H 
ATOM     67  H   SGN d 306      -9.616   4.813  54.001  0.00  0.00     0.131 H 
ATOM     68  H   SGN d 306      -6.765   8.734  52.935  0.00  0.00     0.231 HD
ATOM     69  H   SGN d 306      -8.845   4.064  51.378  0.00  0.00     0.212 HD
ATOM     70  H   SGN d 306      -6.426   2.258  53.945  0.00  0.00     0.091 H 
ATOM     71  H   SGN d 306      -6.519   6.230  52.597  0.00  0.00     0.140 HD
ATOM     72  H   SGN d 306      -5.876   7.479  54.695  0.00  0.00     0.231 HD
ATOM     73  H   SGN d 306      -7.253   4.659  54.514  0.00  0.00     0.076 H 
ATOM     74  H   SGN d 306      -9.739   7.368  53.937  0.00  0.00     0.231 HD
ATOM     75  H   SGN d 306      -5.173   4.105  54.009  0.00  0.00     0.210 HD
ATOM     76  C1  SGN d 302       8.145  -0.206  55.575  0.00  0.00     0.150 C 
ATOM     77  O4  SGN d 302       9.859  -1.706  52.104  0.00  0.00    -0.348 OA
ATOM     78  O6  SGN d 302      10.365  -3.630  54.472  0.00  0.00    -0.254 OA
ATOM     79  O3S SGN d 302       7.906   2.561  57.025  0.00  0.00    -0.296 OA
ATOM     80  S2  SGN d 302      10.816  -5.047  55.324  0.00  0.00     0.251 S 
ATOM     81  O5  SGN d 302       8.524  -1.583  55.504  0.00  0.00    -0.349 OA
ATOM     82  O1S SGN d 302       8.305   4.312  55.518  0.00  0.00    -0.296 OA
ATOM     83  O6S SGN d 302       9.767  -5.339  56.264  0.00  0.00    -0.572 OA
ATOM     84  N   SGN d 302       8.683   1.908  54.663  0.00  0.00    -0.210 NA
ATOM     85  O5S SGN d 302      10.897  -6.100  54.377  0.00  0.00    -0.572 OA
ATOM     86  C4  SGN d 302       9.865  -1.347  53.486  0.00  0.00     0.095 C 
ATOM     87  O3  SGN d 302      10.597   0.818  52.919  0.00  0.00    -0.391 OA
ATOM     88  C2  SGN d 302       9.240   0.608  54.887  0.00  0.00     0.081 C 
ATOM     89  O2S SGN d 302      10.049   3.090  56.454  0.00  0.00    -0.296 OA
ATOM     90  O1  SGN d 302       6.906   0.050  54.917  0.00  0.00    -0.348 OA
ATOM     91  C5  SGN d 302       8.706  -2.064  54.178  0.00  0.00     0.091 C 
ATOM     92  S1  SGN d 302       8.735   3.036  55.982  0.00  0.00     0.156 S 
ATOM     93  C6  SGN d 302       8.988  -3.518  54.275  0.00  0.00     0.067 C 
ATOM     94  O4S SGN d 302      12.085  -4.843  55.922  0.00  0.00    -0.572 OA
ATOM     95  C3  SGN d 302       9.515   0.112  53.482  0.00  0.00     0.083 C 
ATOM     96  H   SGN d 302       8.025   0.061  56.603  0.00  0.00     0.131 H 
ATOM     97  H   SGN d 302       6.988   2.518  56.715  0.00  0.00     0.231 HD
ATOM     98  H   SGN d 302       7.393   4.249  55.197  0.00  0.00     0.231 HD
ATOM     99  H   SGN d 302       7.704   1.782  54.407  0.00  0.00     0.140 HD
ATOM    100  H   SGN d 302      10.791  -1.581  53.968  0.00  0.00     0.091 H 
ATOM    101  H   SGN d 302      10.764   0.492  52.021  0.00  0.00     0.210 HD
ATOM    102  H   SGN d 302      10.121   0.562  55.491  0.00  0.00     0.076 H 
ATOM    103  H   SGN d 302      10.101   3.716  57.193  0.00  0.00     0.231 HD
ATOM    104  H   SGN d 302       7.828  -1.881  53.594  0.00  0.00     0.090 H 
ATOM    105  H   SGN d 302       8.458  -3.945  55.102  0.00  0.00     0.080 H 
ATOM    106  H   SGN d 302       8.675  -4.039  53.394  0.00  0.00     0.080 H 
ATOM    107  H   SGN d 302       8.628   0.268  52.907  0.00  0.00     0.089 H 
ATOM    108  O2S SGN d 304      -1.934  -4.948  54.708  0.00  0.00    -0.296 OA
ATOM    109  C1  SGN d 304      -0.668  -1.269  52.081  0.00  0.00     0.150 C 
ATOM    110  S2  SGN d 304       2.914  -0.197  49.197  0.00  0.00     0.251 S 
ATOM    111  O4  SGN d 304       2.550   0.520  53.947  0.00  0.00    -0.348 OA
ATOM    112  C6  SGN d 304       1.887   1.320  51.288  0.00  0.00     0.067 C 
ATOM    113  O4S SGN d 304       4.242   0.305  49.364  0.00  0.00    -0.572 OA
ATOM    114  O1  SGN d 304      -1.559  -0.414  52.768  0.00  0.00    -0.348 OA
ATOM    115  O5  SGN d 304       0.279  -0.509  51.347  0.00  0.00    -0.349 OA
ATOM    116  S1  SGN d 304      -1.380  -4.387  53.516  0.00  0.00     0.156 S 
ATOM    117  O5S SGN d 304       2.625  -0.358  47.805  0.00  0.00    -0.572 OA
ATOM    118  C3  SGN d 304       0.835  -1.166  54.031  0.00  0.00     0.083 C 
ATOM    119  N   SGN d 304      -0.946  -2.721  53.932  0.00  0.00    -0.210 NA
ATOM    120  O1S SGN d 304      -2.334  -4.426  52.443  0.00  0.00    -0.296 OA
ATOM    121  O6  SGN d 304       1.780   0.975  49.905  0.00  0.00    -0.254 OA
ATOM    122  C4  SGN d 304       1.797  -0.377  53.153  0.00  0.00     0.095 C 
ATOM    123  C5  SGN d 304       1.008   0.416  52.140  0.00  0.00     0.091 C 
ATOM    124  C2  SGN d 304       0.052  -2.075  53.130  0.00  0.00     0.081 C 
ATOM    125  O6S SGN d 304       2.784  -1.470  49.859  0.00  0.00    -0.572 OA
ATOM    126  O3  SGN d 304       1.522  -1.962  54.972  0.00  0.00    -0.391 OA
ATOM    127  O3S SGN d 304      -0.194  -5.108  53.130  0.00  0.00    -0.296 OA
ATOM    128  H   SGN d 304      -2.731  -4.455  54.958  0.00  0.00     0.231 HD
ATOM    129  H   SGN d 304      -1.200  -1.895  51.394  0.00  0.00     0.131 H 
ATOM    130  H   SGN d 304       2.906   1.213  51.599  0.00  0.00     0.080 H 
ATOM    131  H   SGN d 304       1.565   2.333  51.416  0.00  0.00     0.080 H 
ATOM    132  H   SGN d 304       0.209  -0.482  54.565  0.00  0.00     0.089 H 
ATOM    133  H   SGN d 304      -0.608  -2.725  54.895  0.00  0.00     0.140 HD
ATOM    134  H   SGN d 304      -3.132  -3.941  52.702  0.00  0.00     0.231 HD
ATOM    135  H   SGN d 304       2.458  -1.059  52.659  0.00  0.00     0.091 H 
ATOM    136  H   SGN d 304       0.340   1.080  52.648  0.00  0.00     0.090 H 
ATOM    137  H   SGN d 304       0.713  -2.773  52.660  0.00  0.00     0.076 H 
ATOM    138  H   SGN d 304       2.096  -2.590  54.507  0.00  0.00     0.210 HD
ATOM    139  H   SGN d 304       0.450  -5.082  53.855  0.00  0.00     0.231 HD
ATOM    140  O1S UAP d 301      11.072  -5.837  50.533  0.00  0.00    -0.572 OA
ATOM    141  C3  UAP d 301      10.598  -1.621  49.283  0.00  0.00     0.086 C 
ATOM    142  O62 UAP d 301      14.377  -0.252  51.644  0.00  0.00    -0.642 OA
ATOM    143  C2  UAP d 301      10.705  -2.831  50.176  0.00  0.00     0.135 C 
ATOM    144  O61 UAP d 301      13.818   0.805  49.848  0.00  0.00    -0.642 OA
ATOM    145  C1  UAP d 301      10.979  -2.437  51.612  0.00  0.00     0.167 C 
ATOM    146  C5  UAP d 301      12.375  -0.710  50.682  0.00  0.00     0.147 C 
ATOM    147  C4  UAP d 301      11.587  -0.604  49.592  0.00  0.00    -0.034 C 
ATOM    148  O3S UAP d 301      10.757  -5.300  48.250  0.00  0.00    -0.572 OA
ATOM    149  C6  UAP d 301      13.535   0.008  50.753  0.00  0.00     0.233 C 
ATOM    150  O5  UAP d 301      12.188  -1.691  51.619  0.00  0.00    -0.311 OA
ATOM    151  O2S UAP d 301      12.909  -5.809  49.126  0.00  0.00    -0.572 OA
ATOM    152  O2  UAP d 301      11.838  -3.538  49.761  0.00  0.00    -0.244 OA
ATOM    153  O3  UAP d 301       9.296  -1.158  49.308  0.00  0.00    -0.389 OA
ATOM    154  S   UAP d 301      11.637  -5.227  49.381  0.00  0.00     0.252 S 
ATOM    155  H   UAP d 301      10.829  -1.904  48.277  0.00  0.00     0.093 H 
ATOM    156  H   UAP d 301       9.792  -3.385  50.117  0.00  0.00     0.097 H 
ATOM    157  H   UAP d 301      11.105  -3.280  52.259  0.00  0.00     0.134 H 
ATOM    158  H   UAP d 301      11.690   0.211  48.968  0.00  0.00     0.085 H 
ATOM    159  H   UAP d 301       9.063  -0.896  50.213  0.00  0.00     0.210 HD
ENDROOT
TORSDOF 50
ENDMDL
MODEL 25
REMARK VINA RESULT:      -7.6      4.048      7.133
REMARK  0 active torsions:
REMARK  status: ('A' for Active; 'I' for Inactive)
REMARK       I    between atoms: C3_1  and  O3_85 
REMARK       I    between atoms: C6_2  and  C5_22 
REMARK       I    between atoms: C6_3  and  C5_14 
REMARK       I    between atoms: C6_3  and  O6_30 
REMARK       I    between atoms: C1_4  and  O1_84 
REMARK       I    between atoms: O2S_6  and  S1_45 
REMARK       I    between atoms: C1_7  and  O1_36 
REMARK       I    between atoms: S1_10  and  N_69 
REMARK       I    between atoms: S1_10  and  O1S_27 
REMARK       I    between atoms: S1_10  and  O2S_71 
REMARK       I    between atoms: S1_10  and  O3S_88 
REMARK       I    between atoms: O4_11  and  C1_42 
REMARK       I    between atoms: O4_11  and  C4_63 
REMARK       I    between atoms: O6_12  and  C6_94 
REMARK       I    between atoms: O6_12  and  S2_28 
REMARK       I    between atoms: C1_13  and  O4_51 
REMARK       I    between atoms: S2_16  and  O6_76 
REMARK       I    between atoms: C3_18  and  O3_103 
REMARK       I    between atoms: C1_19  and  O1_37 
REMARK       I    between atoms: O4_20  and  C1_23 
REMARK       I    between atoms: O4_20  and  C4_77 
REMARK       I    between atoms: O3S_21  and  S1_92 
REMARK       I    between atoms: C3_24  and  O3_87 
REMARK       I    between atoms: O3_25  and  C3_46 
REMARK       I    between atoms: C6_29  and  C5_79 
REMARK       I    between atoms: C6_29  and  O6_76 
REMARK       I    between atoms: O6_30  and  S2_31 
REMARK       I    between atoms: O1_36  and  C4_81 
REMARK       I    between atoms: C2_38  and  O2_72 
REMARK       I    between atoms: S1_45  and  N_74 
REMARK       I    between atoms: S1_45  and  O1S_75 
REMARK       I    between atoms: S1_45  and  O3S_101 
REMARK       I    between atoms: O1S_47  and  S1_92 
REMARK       I    between atoms: S_48  and  O2_91 
REMARK       I    between atoms: C5_49  and  C6_67 
REMARK       I    between atoms: O4_51  and  C4_57 
REMARK       I    between atoms: N_52  and  C2_73 
REMARK       I    between atoms: N_52  and  S1_92 
REMARK       I    between atoms: C5_53  and  C6_61 
REMARK       I    between atoms: C4_56  and  O1_84 
REMARK       I    between atoms: C2_62  and  O2_91 
REMARK       I    between atoms: S_66  and  O2_105 
REMARK       I    between atoms: O3_68  and  C3_102 
REMARK       I    between atoms: N_69  and  C2_83 
REMARK       I    between atoms: C3_70  and  O3_98 
REMARK       I    between atoms: O2_72  and  S_96 
REMARK       I    between atoms: N_74  and  C2_86 
REMARK       I    between atoms: O2S_80  and  S1_92 
REMARK       I    between atoms: C5_89  and  C6_94 
REMARK       I    between atoms: C2_104  and  O2_105 
ROOT
ATOM      1  C3  IDS d 305      -2.448  -4.118  52.971  0.00  0.00     0.094 C 
ATOM      2  O3S IDS d 305      -6.891  -5.711  52.014  0.00  0.00    -0.572 OA
ATOM      3  C1  IDS d 305      -4.618  -3.326  53.807  0.00  0.00     0.161 C 
ATOM      4  O62 IDS d 305      -2.221  -0.553  55.354  0.00  0.00    -0.646 OA
ATOM      5  O5  IDS d 305      -3.741  -2.389  54.393  0.00  0.00    -0.340 OA
ATOM      6  O61 IDS d 305      -1.776   0.306  53.356  0.00  0.00    -0.646 OA
ATOM      7  O1S IDS d 305      -5.314  -7.098  50.873  0.00  0.00    -0.572 OA
ATOM      8  C5  IDS d 305      -2.993  -1.706  53.402  0.00  0.00     0.152 C 
ATOM      9  S   IDS d 305      -5.561  -5.785  51.430  0.00  0.00     0.252 S 
ATOM     10  C6  IDS d 305      -2.290  -0.549  54.097  0.00  0.00     0.206 C 
ATOM     11  C4  IDS d 305      -1.955  -2.690  52.823  0.00  0.00     0.103 C 
ATOM     12  O3  IDS d 305      -1.823  -4.915  52.019  0.00  0.00    -0.390 OA
ATOM     13  O2S IDS d 305      -5.412  -4.791  50.406  0.00  0.00    -0.572 OA
ATOM     14  C2  IDS d 305      -3.905  -4.078  52.673  0.00  0.00     0.134 C 
ATOM     15  O2  IDS d 305      -4.329  -5.418  52.633  0.00  0.00    -0.244 OA
ATOM     16  H   IDS d 305      -2.245  -4.509  53.946  0.00  0.00     0.091 H 
ATOM     17  H   IDS d 305      -4.957  -4.055  54.513  0.00  0.00     0.133 H 
ATOM     18  H   IDS d 305      -3.610  -1.341  52.608  0.00  0.00     0.104 H 
ATOM     19  H   IDS d 305      -1.823  -2.438  51.792  0.00  0.00     0.092 H 
ATOM     20  H   IDS d 305      -2.005  -4.564  51.134  0.00  0.00     0.210 HD
ATOM     21  H   IDS d 305      -4.120  -3.580  51.751  0.00  0.00     0.097 H 
ATOM     22  C6  IDS d 303       6.495  -1.393  54.972  0.00  0.00     0.206 C 
ATOM     23  O61 IDS d 303       7.060  -1.585  56.039  0.00  0.00    -0.646 OA
ATOM     24  C5  IDS d 303       5.494  -0.297  54.870  0.00  0.00     0.152 C 
ATOM     25  C1  IDS d 303       3.877   0.637  53.423  0.00  0.00     0.161 C 
ATOM     26  O3  IDS d 303       3.854   1.605  56.285  0.00  0.00    -0.390 OA
ATOM     27  O2S IDS d 303       3.493   4.737  53.013  0.00  0.00    -0.572 OA
ATOM     28  O5  IDS d 303       5.044  -0.189  53.514  0.00  0.00    -0.340 OA
ATOM     29  C3  IDS d 303       4.807   2.008  55.361  0.00  0.00     0.094 C 
ATOM     30  S   IDS d 303       4.010   3.753  52.137  0.00  0.00     0.252 S 
ATOM     31  C4  IDS d 303       6.017   1.052  55.346  0.00  0.00     0.103 C 
ATOM     32  O1S IDS d 303       4.887   4.292  51.173  0.00  0.00    -0.572 OA
ATOM     33  C2  IDS d 303       4.163   2.021  54.007  0.00  0.00     0.134 C 
ATOM     34  O3S IDS d 303       2.878   3.140  51.550  0.00  0.00    -0.572 OA
ATOM     35  O2  IDS d 303       4.935   2.712  53.130  0.00  0.00    -0.244 OA
ATOM     36  O62 IDS d 303       6.539  -2.163  54.036  0.00  0.00    -0.646 OA
ATOM     37  H   IDS d 303       4.686  -0.555  55.522  0.00  0.00     0.104 H 
ATOM     38  H   IDS d 303       3.638   0.747  52.386  0.00  0.00     0.133 H 
ATOM     39  H   IDS d 303       3.107   2.224  56.272  0.00  0.00     0.210 HD
ATOM     40  H   IDS d 303       5.164   2.981  55.628  0.00  0.00     0.091 H 
ATOM     41  H   IDS d 303       6.465   1.020  56.317  0.00  0.00     0.092 H 
ATOM     42  H   IDS d 303       3.215   2.495  54.152  0.00  0.00     0.097 H 
ATOM     43  C6  SGN d 306      -7.229  -4.364  54.922  0.00  0.00     0.067 C 
ATOM     44  S1  SGN d 306      -9.424   2.177  55.323  0.00  0.00     0.156 S 
ATOM     45  C5  SGN d 306      -7.742  -3.041  54.378  0.00  0.00     0.091 C 
ATOM     46  C3  SGN d 306      -7.052  -0.691  53.889  0.00  0.00     0.083 C 
ATOM     47  C1  SGN d 306      -9.293  -1.266  54.908  0.00  0.00     0.147 C 
ATOM     48  O1S SGN d 306      -9.921   3.252  54.504  0.00  0.00    -0.296 OA
ATOM     49  O6  SGN d 306      -6.327  -4.105  55.996  0.00  0.00    -0.254 OA
ATOM     50  S2  SGN d 306      -5.931  -5.392  57.145  0.00  0.00     0.251 S 
ATOM     51  O4S SGN d 306      -4.642  -5.954  56.850  0.00  0.00    -0.572 OA
ATOM     52  O1  SGN d 306      -9.946  -1.346  53.649  0.00  0.00    -0.369 OA
ATOM     53  O4  SGN d 306      -5.683  -2.561  53.283  0.00  0.00    -0.348 OA
ATOM     54  C4  SGN d 306      -6.570  -2.077  54.290  0.00  0.00     0.095 C 
ATOM     55  N   SGN d 306      -8.719   0.966  54.255  0.00  0.00    -0.210 NA
ATOM     56  O2S SGN d 306      -8.386   2.651  56.193  0.00  0.00    -0.296 OA
ATOM     57  O5  SGN d 306      -8.741  -2.521  55.286  0.00  0.00    -0.350 OA
ATOM     58  O6S SGN d 306      -5.900  -4.809  58.460  0.00  0.00    -0.572 OA
ATOM     59  C2  SGN d 306      -8.164  -0.242  54.830  0.00  0.00     0.081 C 
ATOM     60  O3S SGN d 306     -10.506   1.604  56.082  0.00  0.00    -0.296 OA
ATOM     61  O5S SGN d 306      -6.963  -6.398  57.087  0.00  0.00    -0.572 OA
ATOM     62  O3  SGN d 306      -5.974   0.209  54.105  0.00  0.00    -0.391 OA
ATOM     63  H   SGN d 306      -6.721  -4.898  54.147  0.00  0.00     0.080 H 
ATOM     64  H   SGN d 306      -8.051  -4.953  55.273  0.00  0.00     0.080 H 
ATOM     65  H   SGN d 306      -8.178  -3.170  53.409  0.00  0.00     0.090 H 
ATOM     66  H   SGN d 306      -7.391  -0.708  52.874  0.00  0.00     0.089 H 
ATOM     67  H   SGN d 306     -10.018  -0.976  55.638  0.00  0.00     0.131 H 
ATOM     68  H   SGN d 306      -9.189   3.634  53.994  0.00  0.00     0.231 HD
ATOM     69  H   SGN d 306      -9.306  -1.609  52.969  0.00  0.00     0.212 HD
ATOM     70  H   SGN d 306      -6.084  -2.012  55.240  0.00  0.00     0.091 H 
ATOM     71  H   SGN d 306      -7.966   1.424  53.740  0.00  0.00     0.140 HD
ATOM     72  H   SGN d 306      -7.669   3.032  55.664  0.00  0.00     0.231 HD
ATOM     73  H   SGN d 306      -7.763  -0.107  55.812  0.00  0.00     0.076 H 
ATOM     74  H   SGN d 306     -11.195   1.290  55.475  0.00  0.00     0.231 HD
ATOM     75  H   SGN d 306      -5.711   0.180  55.039  0.00  0.00     0.210 HD
ATOM     76  C1  SGN d 302       8.279   1.810  54.867  0.00  0.00     0.150 C 
ATOM     77  O4  SGN d 302      10.059   0.790  51.258  0.00  0.00    -0.348 OA
ATOM     78  O6  SGN d 302      11.579  -0.515  53.614  0.00  0.00    -0.254 OA
ATOM     79  O3S SGN d 302       7.079   4.375  56.208  0.00  0.00    -0.296 OA
ATOM     80  S2  SGN d 302      12.670  -1.533  54.457  0.00  0.00     0.251 S 
ATOM     81  O5  SGN d 302       9.184   0.705  54.806  0.00  0.00    -0.349 OA
ATOM     82  O1S SGN d 302       6.544   5.976  54.581  0.00  0.00    -0.296 OA
ATOM     83  O6S SGN d 302      11.949  -2.129  55.550  0.00  0.00    -0.572 OA
ATOM     84  N   SGN d 302       7.785   3.857  53.791  0.00  0.00    -0.210 NA
ATOM     85  O5S SGN d 302      13.073  -2.554  53.557  0.00  0.00    -0.572 OA
ATOM     86  C4  SGN d 302      10.070   1.258  52.607  0.00  0.00     0.095 C 
ATOM     87  O3  SGN d 302       9.770   3.465  51.842  0.00  0.00    -0.391 OA
ATOM     88  C2  SGN d 302       8.852   2.923  53.992  0.00  0.00     0.081 C 
ATOM     89  O2S SGN d 302       8.730   5.665  55.311  0.00  0.00    -0.296 OA
ATOM     90  O1  SGN d 302       6.980   1.475  54.384  0.00  0.00    -0.348 OA
ATOM     91  C5  SGN d 302       9.399   0.207  53.490  0.00  0.00     0.091 C 
ATOM     92  S1  SGN d 302       7.513   5.037  55.036  0.00  0.00     0.156 S 
ATOM     93  C6  SGN d 302      10.267  -0.990  53.613  0.00  0.00     0.067 C 
ATOM     94  O4S SGN d 302      13.798  -0.774  54.855  0.00  0.00    -0.572 OA
ATOM     95  C3  SGN d 302       9.149   2.442  52.587  0.00  0.00     0.083 C 
ATOM     96  H   SGN d 302       8.175   2.108  55.889  0.00  0.00     0.131 H 
ATOM     97  H   SGN d 302       6.232   3.933  56.036  0.00  0.00     0.231 HD
ATOM     98  H   SGN d 302       5.710   5.516  54.397  0.00  0.00     0.231 HD
ATOM     99  H   SGN d 302       6.925   3.321  53.685  0.00  0.00     0.140 HD
ATOM    100  H   SGN d 302      11.058   1.469  52.961  0.00  0.00     0.091 H 
ATOM    101  H   SGN d 302       9.955   3.145  50.945  0.00  0.00     0.210 HD
ATOM    102  H   SGN d 302       9.735   3.300  54.464  0.00  0.00     0.076 H 
ATOM    103  H   SGN d 302       8.601   6.330  56.005  0.00  0.00     0.231 HD
ATOM    104  H   SGN d 302       8.464  -0.040  53.031  0.00  0.00     0.090 H 
ATOM    105  H   SGN d 302      10.059  -1.509  54.525  0.00  0.00     0.080 H 
ATOM    106  H   SGN d 302      10.101  -1.679  52.811  0.00  0.00     0.080 H 
ATOM    107  H   SGN d 302       8.218   2.167  52.139  0.00  0.00     0.089 H 
ATOM    108  O2S SGN d 304       1.046  -6.666  55.678  0.00  0.00    -0.296 OA
ATOM    109  C1  SGN d 304       0.368  -3.076  52.730  0.00  0.00     0.150 C 
ATOM    110  S2  SGN d 304       2.835  -0.943  49.315  0.00  0.00     0.251 S 
ATOM    111  O4  SGN d 304       2.742   0.041  54.030  0.00  0.00    -0.348 OA
ATOM    112  C6  SGN d 304       1.513   0.232  51.461  0.00  0.00     0.067 C 
ATOM    113  O4S SGN d 304       3.845   0.068  49.266  0.00  0.00    -0.572 OA
ATOM    114  O1  SGN d 304      -0.714  -2.590  53.499  0.00  0.00    -0.348 OA
ATOM    115  O5  SGN d 304       0.826  -2.076  51.833  0.00  0.00    -0.349 OA
ATOM    116  S1  SGN d 304       1.180  -6.052  54.394  0.00  0.00     0.156 S 
ATOM    117  O5S SGN d 304       2.484  -1.347  47.988  0.00  0.00    -0.572 OA
ATOM    118  C3  SGN d 304       1.901  -2.176  54.437  0.00  0.00     0.083 C 
ATOM    119  N   SGN d 304       0.928  -4.320  54.667  0.00  0.00    -0.210 NA
ATOM    120  O1S SGN d 304       0.214  -6.583  53.473  0.00  0.00    -0.296 OA
ATOM    121  O6  SGN d 304       1.404  -0.265  50.125  0.00  0.00    -0.254 OA
ATOM    122  C4  SGN d 304       2.346  -1.159  53.395  0.00  0.00     0.095 C 
ATOM    123  C5  SGN d 304       1.190  -0.859  52.470  0.00  0.00     0.091 C 
ATOM    124  C2  SGN d 304       1.470  -3.410  53.700  0.00  0.00     0.081 C 
ATOM    125  O6S SGN d 304       3.319  -2.085  50.046  0.00  0.00    -0.572 OA
ATOM    126  O3  SGN d 304       2.958  -2.527  55.305  0.00  0.00    -0.391 OA
ATOM    127  O3S SGN d 304       2.506  -6.267  53.875  0.00  0.00    -0.296 OA
ATOM    128  H   SGN d 304       0.150  -6.515  56.017  0.00  0.00     0.231 HD
ATOM    129  H   SGN d 304       0.071  -3.929  52.157  0.00  0.00     0.131 H 
ATOM    130  H   SGN d 304       2.512   0.578  51.626  0.00  0.00     0.080 H 
ATOM    131  H   SGN d 304       0.817   1.034  51.587  0.00  0.00     0.080 H 
ATOM    132  H   SGN d 304       1.113  -1.755  55.024  0.00  0.00     0.089 H 
ATOM    133  H   SGN d 304       1.342  -4.090  55.570  0.00  0.00     0.140 HD
ATOM    134  H   SGN d 304      -0.679  -6.439  53.822  0.00  0.00     0.231 HD
ATOM    135  H   SGN d 304       3.169  -1.561  52.843  0.00  0.00     0.091 H 
ATOM    136  H   SGN d 304       0.368  -0.475  53.038  0.00  0.00     0.090 H 
ATOM    137  H   SGN d 304       2.304  -3.825  53.173  0.00  0.00     0.076 H 
ATOM    138  H   SGN d 304       3.684  -2.912  54.791  0.00  0.00     0.210 HD
ATOM    139  H   SGN d 304       3.158  -5.909  54.498  0.00  0.00     0.231 HD
ATOM    140  O1S UAP d 301      12.690  -2.632  49.719  0.00  0.00    -0.572 OA
ATOM    141  C3  UAP d 301      10.373   0.882  48.359  0.00  0.00     0.086 C 
ATOM    142  O62 UAP d 301      13.484   3.894  50.086  0.00  0.00    -0.642 OA
ATOM    143  C2  UAP d 301      11.073  -0.085  49.281  0.00  0.00     0.135 C 
ATOM    144  O61 UAP d 301      12.339   4.446  48.343  0.00  0.00    -0.642 OA
ATOM    145  C1  UAP d 301      11.318   0.529  50.643  0.00  0.00     0.167 C 
ATOM    146  C5  UAP d 301      11.758   2.569  49.445  0.00  0.00     0.147 C 
ATOM    147  C4  UAP d 301      10.880   2.237  48.475  0.00  0.00    -0.034 C 
ATOM    148  O3S UAP d 301      11.926  -2.502  47.483  0.00  0.00    -0.572 OA
ATOM    149  C6  UAP d 301      12.516   3.699  49.315  0.00  0.00     0.233 C 
ATOM    150  O5  UAP d 301      12.101   1.697  50.443  0.00  0.00    -0.311 OA
ATOM    151  O2S UAP d 301      14.179  -2.006  48.063  0.00  0.00    -0.572 OA
ATOM    152  O2  UAP d 301      12.342  -0.311  48.741  0.00  0.00    -0.244 OA
ATOM    153  O3  UAP d 301       9.009   0.777  48.550  0.00  0.00    -0.389 OA
ATOM    154  S   UAP d 301      12.818  -1.966  48.471  0.00  0.00     0.252 S 
ATOM    155  H   UAP d 301      10.587   0.616  47.344  0.00  0.00     0.093 H 
ATOM    156  H   UAP d 301      10.471  -0.964  49.380  0.00  0.00     0.097 H 
ATOM    157  H   UAP d 301      11.854  -0.120  51.303  0.00  0.00     0.134 H 
ATOM    158  H   UAP d 301      10.565   2.956  47.806  0.00  0.00     0.085 H 
ATOM    159  H   UAP d 301       8.792   1.013  49.466  0.00  0.00     0.210 HD
ENDROOT
TORSDOF 50
ENDMDL
MODEL 26
REMARK VINA RESULT:      -7.6      3.115      5.283
REMARK  0 active torsions:
REMARK  status: ('A' for Active; 'I' for Inactive)
REMARK       I    between atoms: C3_1  and  O3_85 
REMARK       I    between atoms: C6_2  and  C5_22 
REMARK       I    between atoms: C6_3  and  C5_14 
REMARK       I    between atoms: C6_3  and  O6_30 
REMARK       I    between atoms: C1_4  and  O1_84 
REMARK       I    between atoms: O2S_6  and  S1_45 
REMARK       I    between atoms: C1_7  and  O1_36 
REMARK       I    between atoms: S1_10  and  N_69 
REMARK       I    between atoms: S1_10  and  O1S_27 
REMARK       I    between atoms: S1_10  and  O2S_71 
REMARK       I    between atoms: S1_10  and  O3S_88 
REMARK       I    between atoms: O4_11  and  C1_42 
REMARK       I    between atoms: O4_11  and  C4_63 
REMARK       I    between atoms: O6_12  and  C6_94 
REMARK       I    between atoms: O6_12  and  S2_28 
REMARK       I    between atoms: C1_13  and  O4_51 
REMARK       I    between atoms: S2_16  and  O6_76 
REMARK       I    between atoms: C3_18  and  O3_103 
REMARK       I    between atoms: C1_19  and  O1_37 
REMARK       I    between atoms: O4_20  and  C1_23 
REMARK       I    between atoms: O4_20  and  C4_77 
REMARK       I    between atoms: O3S_21  and  S1_92 
REMARK       I    between atoms: C3_24  and  O3_87 
REMARK       I    between atoms: O3_25  and  C3_46 
REMARK       I    between atoms: C6_29  and  C5_79 
REMARK       I    between atoms: C6_29  and  O6_76 
REMARK       I    between atoms: O6_30  and  S2_31 
REMARK       I    between atoms: O1_36  and  C4_81 
REMARK       I    between atoms: C2_38  and  O2_72 
REMARK       I    between atoms: S1_45  and  N_74 
REMARK       I    between atoms: S1_45  and  O1S_75 
REMARK       I    between atoms: S1_45  and  O3S_101 
REMARK       I    between atoms: O1S_47  and  S1_92 
REMARK       I    between atoms: S_48  and  O2_91 
REMARK       I    between atoms: C5_49  and  C6_67 
REMARK       I    between atoms: O4_51  and  C4_57 
REMARK       I    between atoms: N_52  and  C2_73 
REMARK       I    between atoms: N_52  and  S1_92 
REMARK       I    between atoms: C5_53  and  C6_61 
REMARK       I    between atoms: C4_56  and  O1_84 
REMARK       I    between atoms: C2_62  and  O2_91 
REMARK       I    between atoms: S_66  and  O2_105 
REMARK       I    between atoms: O3_68  and  C3_102 
REMARK       I    between atoms: N_69  and  C2_83 
REMARK       I    between atoms: C3_70  and  O3_98 
REMARK       I    between atoms: O2_72  and  S_96 
REMARK       I    between atoms: N_74  and  C2_86 
REMARK       I    between atoms: O2S_80  and  S1_92 
REMARK       I    between atoms: C5_89  and  C6_94 
REMARK       I    between atoms: C2_104  and  O2_105 
ROOT
ATOM      1  C3  IDS d 305      -1.997   5.443  53.220  0.00  0.00     0.094 C 
ATOM      2  O3S IDS d 305      -5.447   8.674  54.144  0.00  0.00    -0.572 OA
ATOM      3  C1  IDS d 305      -4.327   5.522  52.447  0.00  0.00     0.161 C 
ATOM      4  O62 IDS d 305      -3.236   1.975  51.012  0.00  0.00    -0.646 OA
ATOM      5  O5  IDS d 305      -3.898   4.294  51.898  0.00  0.00    -0.340 OA
ATOM      6  O61 IDS d 305      -3.101   1.093  53.045  0.00  0.00    -0.646 OA
ATOM      7  O1S IDS d 305      -3.424   9.384  55.199  0.00  0.00    -0.572 OA
ATOM      8  C5  IDS d 305      -3.445   3.416  52.913  0.00  0.00     0.152 C 
ATOM      9  S   IDS d 305      -4.176   8.249  54.710  0.00  0.00     0.252 S 
ATOM     10  C6  IDS d 305      -3.265   2.049  52.268  0.00  0.00     0.206 C 
ATOM     11  C4  IDS d 305      -2.091   3.943  53.432  0.00  0.00     0.103 C 
ATOM     12  O3  IDS d 305      -1.085   5.973  54.126  0.00  0.00    -0.390 OA
ATOM     13  O2S IDS d 305      -4.395   7.318  55.779  0.00  0.00    -0.572 OA
ATOM     14  C2  IDS d 305      -3.346   5.983  53.534  0.00  0.00     0.134 C 
ATOM     15  O2  IDS d 305      -3.217   7.384  53.514  0.00  0.00    -0.244 OA
ATOM     16  H   IDS d 305      -1.686   5.684  52.225  0.00  0.00     0.091 H 
ATOM     17  H   IDS d 305      -4.377   6.295  51.709  0.00  0.00     0.133 H 
ATOM     18  H   IDS d 305      -4.132   3.352  53.731  0.00  0.00     0.104 H 
ATOM     19  H   IDS d 305      -2.038   3.702  54.473  0.00  0.00     0.092 H 
ATOM     20  H   IDS d 305      -1.363   5.756  55.029  0.00  0.00     0.210 HD
ATOM     21  H   IDS d 305      -3.711   5.647  54.482  0.00  0.00     0.097 H 
ATOM     22  C6  IDS d 303       5.132  -0.619  51.263  0.00  0.00     0.206 C 
ATOM     23  O61 IDS d 303       5.697  -0.706  50.182  0.00  0.00    -0.646 OA
ATOM     24  C5  IDS d 303       3.789  -1.236  51.428  0.00  0.00     0.152 C 
ATOM     25  C1  IDS d 303       1.978  -1.409  52.936  0.00  0.00     0.161 C 
ATOM     26  O3  IDS d 303       1.500  -2.408  50.125  0.00  0.00    -0.390 OA
ATOM     27  O2S IDS d 303       0.047  -5.017  53.550  0.00  0.00    -0.572 OA
ATOM     28  O5  IDS d 303       3.371  -1.105  52.793  0.00  0.00    -0.340 OA
ATOM     29  C3  IDS d 303       2.248  -3.112  51.057  0.00  0.00     0.094 C 
ATOM     30  S   IDS d 303       0.930  -4.277  54.371  0.00  0.00     0.252 S 
ATOM     31  C4  IDS d 303       3.734  -2.700  51.014  0.00  0.00     0.103 C 
ATOM     32  O1S IDS d 303       1.557  -5.074  55.351  0.00  0.00    -0.572 OA
ATOM     33  C2  IDS d 303       1.689  -2.819  52.418  0.00  0.00     0.134 C 
ATOM     34  O3S IDS d 303       0.141  -3.248  54.939  0.00  0.00    -0.572 OA
ATOM     35  O2  IDS d 303       2.158  -3.718  53.319  0.00  0.00    -0.244 OA
ATOM     36  O62 IDS d 303       5.498   0.111  52.159  0.00  0.00    -0.646 OA
ATOM     37  H   IDS d 303       3.126  -0.711  50.773  0.00  0.00     0.104 H 
ATOM     38  H   IDS d 303       1.744  -1.375  53.979  0.00  0.00     0.133 H 
ATOM     39  H   IDS d 303       0.573  -2.688  50.176  0.00  0.00     0.210 HD
ATOM     40  H   IDS d 303       2.193  -4.157  50.835  0.00  0.00     0.091 H 
ATOM     41  H   IDS d 303       4.132  -2.885  50.037  0.00  0.00     0.092 H 
ATOM     42  H   IDS d 303       0.628  -2.892  52.306  0.00  0.00     0.097 H 
ATOM     43  C6  SGN d 306      -6.363   7.445  51.309  0.00  0.00     0.067 C 
ATOM     44  S1  SGN d 306     -10.930   2.259  51.250  0.00  0.00     0.156 S 
ATOM     45  C5  SGN d 306      -7.332   6.449  51.922  0.00  0.00     0.091 C 
ATOM     46  C3  SGN d 306      -7.592   4.037  52.518  0.00  0.00     0.083 C 
ATOM     47  C1  SGN d 306      -9.463   5.395  51.495  0.00  0.00     0.147 C 
ATOM     48  O1S SGN d 306     -11.780   1.495  52.126  0.00  0.00    -0.296 OA
ATOM     49  O6  SGN d 306      -5.662   6.813  50.240  0.00  0.00    -0.254 OA
ATOM     50  S2  SGN d 306      -4.831   7.797  49.025  0.00  0.00     0.251 S 
ATOM     51  O4S SGN d 306      -3.418   7.825  49.279  0.00  0.00    -0.572 OA
ATOM     52  O1  SGN d 306      -9.998   5.773  52.755  0.00  0.00    -0.369 OA
ATOM     53  O4  SGN d 306      -5.589   5.252  53.018  0.00  0.00    -0.348 OA
ATOM     54  C4  SGN d 306      -6.623   5.110  52.045  0.00  0.00     0.095 C 
ATOM     55  N   SGN d 306      -9.781   3.143  52.251  0.00  0.00    -0.210 NA
ATOM     56  O2S SGN d 306     -10.182   1.383  50.394  0.00  0.00    -0.296 OA
ATOM     57  O5  SGN d 306      -8.480   6.320  51.051  0.00  0.00    -0.350 OA
ATOM     58  O6S SGN d 306      -5.066   7.194  47.740  0.00  0.00    -0.572 OA
ATOM     59  C2  SGN d 306      -8.818   4.016  51.611  0.00  0.00     0.081 C 
ATOM     60  O3S SGN d 306     -11.727   3.175  50.475  0.00  0.00    -0.296 OA
ATOM     61  O5S SGN d 306      -5.391   9.126  49.045  0.00  0.00    -0.572 OA
ATOM     62  O3  SGN d 306      -6.954   2.781  52.335  0.00  0.00    -0.391 OA
ATOM     63  H   SGN d 306      -5.666   7.771  52.051  0.00  0.00     0.080 H 
ATOM     64  H   SGN d 306      -6.902   8.292  50.938  0.00  0.00     0.080 H 
ATOM     65  H   SGN d 306      -7.656   6.776  52.888  0.00  0.00     0.090 H 
ATOM     66  H   SGN d 306      -7.870   4.227  53.534  0.00  0.00     0.089 H 
ATOM     67  H   SGN d 306     -10.266   5.379  50.788  0.00  0.00     0.131 H 
ATOM     68  H   SGN d 306     -11.240   0.880  52.646  0.00  0.00     0.231 HD
ATOM     69  H   SGN d 306      -9.288   5.795  53.415  0.00  0.00     0.212 HD
ATOM     70  H   SGN d 306      -6.228   4.822  51.094  0.00  0.00     0.091 H 
ATOM     71  H   SGN d 306      -9.250   2.451  52.780  0.00  0.00     0.140 HD
ATOM     72  H   SGN d 306      -9.653   0.776  50.934  0.00  0.00     0.231 HD
ATOM     73  H   SGN d 306      -8.528   3.696  50.633  0.00  0.00     0.076 H 
ATOM     74  H   SGN d 306     -12.223   3.756  51.073  0.00  0.00     0.231 HD
ATOM     75  H   SGN d 306      -6.727   2.667  51.398  0.00  0.00     0.210 HD
ATOM     76  C1  SGN d 302       5.539  -4.257  51.506  0.00  0.00     0.150 C 
ATOM     77  O4  SGN d 302       7.677  -3.861  55.042  0.00  0.00    -0.348 OA
ATOM     78  O6  SGN d 302       9.516  -3.346  52.610  0.00  0.00    -0.254 OA
ATOM     79  O3S SGN d 302       3.401  -6.208  50.304  0.00  0.00    -0.296 OA
ATOM     80  S2  SGN d 302      10.892  -2.866  51.707  0.00  0.00     0.251 S 
ATOM     81  O5  SGN d 302       6.802  -3.588  51.504  0.00  0.00    -0.349 OA
ATOM     82  O1S SGN d 302       2.335  -7.407  52.013  0.00  0.00    -0.296 OA
ATOM     83  O6S SGN d 302      10.427  -2.083  50.594  0.00  0.00    -0.572 OA
ATOM     84  N   SGN d 302       4.322  -5.906  52.685  0.00  0.00    -0.210 NA
ATOM     85  O5S SGN d 302      11.684  -2.047  52.552  0.00  0.00    -0.572 OA
ATOM     86  C4  SGN d 302       7.467  -4.352  53.718  0.00  0.00     0.095 C 
ATOM     87  O3  SGN d 302       6.358  -6.235  54.592  0.00  0.00    -0.391 OA
ATOM     88  C2  SGN d 302       5.661  -5.468  52.428  0.00  0.00     0.081 C 
ATOM     89  O2S SGN d 302       4.449  -8.000  51.246  0.00  0.00    -0.296 OA
ATOM     90  O1  SGN d 302       4.485  -3.425  51.985  0.00  0.00    -0.348 OA
ATOM     91  C5  SGN d 302       7.231  -3.159  52.791  0.00  0.00     0.091 C 
ATOM     92  S1  SGN d 302       3.578  -6.937  51.502  0.00  0.00     0.156 S 
ATOM     93  C6  SGN d 302       8.492  -2.399  52.601  0.00  0.00     0.067 C 
ATOM     94  O4S SGN d 302      11.626  -4.020  51.335  0.00  0.00    -0.572 OA
ATOM     95  C3  SGN d 302       6.161  -5.083  53.805  0.00  0.00     0.083 C 
ATOM     96  H   SGN d 302       5.299  -4.533  50.501  0.00  0.00     0.131 H 
ATOM     97  H   SGN d 302       2.798  -5.465  50.463  0.00  0.00     0.231 HD
ATOM     98  H   SGN d 302       1.750  -6.653  52.182  0.00  0.00     0.231 HD
ATOM     99  H   SGN d 302       3.740  -5.074  52.774  0.00  0.00     0.140 HD
ATOM    100  H   SGN d 302       8.286  -4.944  53.364  0.00  0.00     0.091 H 
ATOM    101  H   SGN d 302       6.677  -5.976  55.471  0.00  0.00     0.210 HD
ATOM    102  H   SGN d 302       6.315  -6.177  51.966  0.00  0.00     0.076 H 
ATOM    103  H   SGN d 302       4.053  -8.590  50.586  0.00  0.00     0.231 HD
ATOM    104  H   SGN d 302       6.478  -2.550  53.247  0.00  0.00     0.090 H 
ATOM    105  H   SGN d 302       8.474  -1.878  51.667  0.00  0.00     0.080 H 
ATOM    106  H   SGN d 302       8.628  -1.668  53.370  0.00  0.00     0.080 H 
ATOM    107  H   SGN d 302       5.422  -4.450  54.249  0.00  0.00     0.089 H 
ATOM    108  O2S SGN d 304       2.133   6.322  50.356  0.00  0.00    -0.296 OA
ATOM    109  C1  SGN d 304       0.202   3.400  53.482  0.00  0.00     0.150 C 
ATOM    110  S2  SGN d 304       1.746   0.619  56.972  0.00  0.00     0.251 S 
ATOM    111  O4  SGN d 304       1.146  -0.444  52.313  0.00  0.00    -0.348 OA
ATOM    112  C6  SGN d 304       0.012  -0.038  54.900  0.00  0.00     0.067 C 
ATOM    113  O4S SGN d 304       2.287  -0.702  57.060  0.00  0.00    -0.572 OA
ATOM    114  O1  SGN d 304      -1.005   3.341  52.750  0.00  0.00    -0.348 OA
ATOM    115  O5  SGN d 304       0.262   2.338  54.422  0.00  0.00    -0.349 OA
ATOM    116  S1  SGN d 304       2.055   5.757  51.667  0.00  0.00     0.156 S 
ATOM    117  O5S SGN d 304       1.617   1.181  58.282  0.00  0.00    -0.572 OA
ATOM    118  C3  SGN d 304       1.218   1.907  51.806  0.00  0.00     0.083 C 
ATOM    119  N   SGN d 304       1.144   4.249  51.482  0.00  0.00    -0.210 NA
ATOM    120  O1S SGN d 304       1.397   6.658  52.572  0.00  0.00    -0.296 OA
ATOM    121  O6  SGN d 304       0.142   0.517  56.212  0.00  0.00    -0.254 OA
ATOM    122  C4  SGN d 304       1.263   0.840  52.892  0.00  0.00     0.095 C 
ATOM    123  C5  SGN d 304       0.108   1.051  53.842  0.00  0.00     0.091 C 
ATOM    124  C2  SGN d 304       1.320   3.240  52.486  0.00  0.00     0.081 C 
ATOM    125  O6S SGN d 304       2.614   1.452  56.182  0.00  0.00    -0.572 OA
ATOM    126  O3  SGN d 304       2.302   1.784  50.911  0.00  0.00    -0.391 OA
ATOM    127  O3S SGN d 304       3.375   5.461  52.161  0.00  0.00    -0.296 OA
ATOM    128  H   SGN d 304       1.239   6.517  50.034  0.00  0.00     0.231 HD
ATOM    129  H   SGN d 304       0.274   4.325  54.017  0.00  0.00     0.131 H 
ATOM    130  H   SGN d 304       0.794  -0.751  54.742  0.00  0.00     0.080 H 
ATOM    131  H   SGN d 304      -0.944  -0.511  54.821  0.00  0.00     0.080 H 
ATOM    132  H   SGN d 304       0.311   1.800  51.248  0.00  0.00     0.089 H 
ATOM    133  H   SGN d 304       1.412   3.839  50.587  0.00  0.00     0.140 HD
ATOM    134  H   SGN d 304       0.508   6.858  52.239  0.00  0.00     0.231 HD
ATOM    135  H   SGN d 304       2.193   0.913  53.416  0.00  0.00     0.091 H 
ATOM    136  H   SGN d 304      -0.814   0.993  53.302  0.00  0.00     0.090 H 
ATOM    137  H   SGN d 304       2.263   3.320  52.983  0.00  0.00     0.076 H 
ATOM    138  H   SGN d 304       3.136   1.878  51.398  0.00  0.00     0.210 HD
ATOM    139  H   SGN d 304       3.820   4.853  51.550  0.00  0.00     0.231 HD
ATOM    140  O1S UAP d 301      11.471  -1.668  56.385  0.00  0.00    -0.572 OA
ATOM    141  C3  UAP d 301       8.014  -3.948  57.939  0.00  0.00     0.086 C 
ATOM    142  O62 UAP d 301       9.665  -8.000  56.329  0.00  0.00    -0.642 OA
ATOM    143  C2  UAP d 301       9.006  -3.368  56.963  0.00  0.00     0.135 C 
ATOM    144  O61 UAP d 301       8.445  -7.992  58.108  0.00  0.00    -0.642 OA
ATOM    145  C1  UAP d 301       8.956  -4.084  55.630  0.00  0.00     0.167 C 
ATOM    146  C5  UAP d 301       8.605  -6.084  56.922  0.00  0.00     0.147 C 
ATOM    147  C4  UAP d 301       7.953  -5.397  57.884  0.00  0.00    -0.034 C 
ATOM    148  O3S UAP d 301      10.780  -1.400  58.632  0.00  0.00    -0.572 OA
ATOM    149  C6  UAP d 301       8.870  -7.413  57.100  0.00  0.00     0.233 C 
ATOM    150  O5  UAP d 301       9.231  -5.456  55.880  0.00  0.00    -0.311 OA
ATOM    151  O2S UAP d 301      12.647  -2.755  58.055  0.00  0.00    -0.572 OA
ATOM    152  O2  UAP d 301      10.278  -3.630  57.479  0.00  0.00    -0.244 OA
ATOM    153  O3  UAP d 301       6.791  -3.330  57.757  0.00  0.00    -0.389 OA
ATOM    154  S   UAP d 301      11.366  -2.280  57.662  0.00  0.00     0.252 S 
ATOM    155  H   UAP d 301       8.342  -3.745  58.938  0.00  0.00     0.093 H 
ATOM    156  H   UAP d 301       8.789  -2.329  56.828  0.00  0.00     0.097 H 
ATOM    157  H   UAP d 301       9.682  -3.721  54.934  0.00  0.00     0.134 H 
ATOM    158  H   UAP d 301       7.402  -5.910  58.590  0.00  0.00     0.085 H 
ATOM    159  H   UAP d 301       6.474  -3.501  56.856  0.00  0.00     0.210 HD
ENDROOT
TORSDOF 50
ENDMDL
MODEL 27
REMARK VINA RESULT:      -7.5      2.668      4.085
REMARK  0 active torsions:
REMARK  status: ('A' for Active; 'I' for Inactive)
REMARK       I    between atoms: C3_1  and  O3_85 
REMARK       I    between atoms: C6_2  and  C5_22 
REMARK       I    between atoms: C6_3  and  C5_14 
REMARK       I    between atoms: C6_3  and  O6_30 
REMARK       I    between atoms: C1_4  and  O1_84 
REMARK       I    between atoms: O2S_6  and  S1_45 
REMARK       I    between atoms: C1_7  and  O1_36 
REMARK       I    between atoms: S1_10  and  N_69 
REMARK       I    between atoms: S1_10  and  O1S_27 
REMARK       I    between atoms: S1_10  and  O2S_71 
REMARK       I    between atoms: S1_10  and  O3S_88 
REMARK       I    between atoms: O4_11  and  C1_42 
REMARK       I    between atoms: O4_11  and  C4_63 
REMARK       I    between atoms: O6_12  and  C6_94 
REMARK       I    between atoms: O6_12  and  S2_28 
REMARK       I    between atoms: C1_13  and  O4_51 
REMARK       I    between atoms: S2_16  and  O6_76 
REMARK       I    between atoms: C3_18  and  O3_103 
REMARK       I    between atoms: C1_19  and  O1_37 
REMARK       I    between atoms: O4_20  and  C1_23 
REMARK       I    between atoms: O4_20  and  C4_77 
REMARK       I    between atoms: O3S_21  and  S1_92 
REMARK       I    between atoms: C3_24  and  O3_87 
REMARK       I    between atoms: O3_25  and  C3_46 
REMARK       I    between atoms: C6_29  and  C5_79 
REMARK       I    between atoms: C6_29  and  O6_76 
REMARK       I    between atoms: O6_30  and  S2_31 
REMARK       I    between atoms: O1_36  and  C4_81 
REMARK       I    between atoms: C2_38  and  O2_72 
REMARK       I    between atoms: S1_45  and  N_74 
REMARK       I    between atoms: S1_45  and  O1S_75 
REMARK       I    between atoms: S1_45  and  O3S_101 
REMARK       I    between atoms: O1S_47  and  S1_92 
REMARK       I    between atoms: S_48  and  O2_91 
REMARK       I    between atoms: C5_49  and  C6_67 
REMARK       I    between atoms: O4_51  and  C4_57 
REMARK       I    between atoms: N_52  and  C2_73 
REMARK       I    between atoms: N_52  and  S1_92 
REMARK       I    between atoms: C5_53  and  C6_61 
REMARK       I    between atoms: C4_56  and  O1_84 
REMARK       I    between atoms: C2_62  and  O2_91 
REMARK       I    between atoms: S_66  and  O2_105 
REMARK       I    between atoms: O3_68  and  C3_102 
REMARK       I    between atoms: N_69  and  C2_83 
REMARK       I    between atoms: C3_70  and  O3_98 
REMARK       I    between atoms: O2_72  and  S_96 
REMARK       I    between atoms: N_74  and  C2_86 
REMARK       I    between atoms: O2S_80  and  S1_92 
REMARK       I    between atoms: C5_89  and  C6_94 
REMARK       I    between atoms: C2_104  and  O2_105 
ROOT
ATOM      1  C3  IDS d 305      -3.295   4.196  53.749  0.00  0.00     0.094 C 
ATOM      2  O3S IDS d 305      -7.738   5.686  54.862  0.00  0.00    -0.572 OA
ATOM      3  C1  IDS d 305      -5.434   3.742  52.629  0.00  0.00     0.161 C 
ATOM      4  O62 IDS d 305      -3.033   1.356  50.539  0.00  0.00    -0.646 OA
ATOM      5  O5  IDS d 305      -4.552   2.949  51.865  0.00  0.00    -0.340 OA
ATOM      6  O61 IDS d 305      -2.734  -0.007  52.266  0.00  0.00    -0.646 OA
ATOM      7  O1S IDS d 305      -6.191   6.662  56.400  0.00  0.00    -0.572 OA
ATOM      8  C5  IDS d 305      -3.885   2.003  52.681  0.00  0.00     0.152 C 
ATOM      9  S   IDS d 305      -6.444   5.549  55.511  0.00  0.00     0.252 S 
ATOM     10  C6  IDS d 305      -3.177   1.032  51.747  0.00  0.00     0.206 C 
ATOM     11  C4  IDS d 305      -2.855   2.758  53.546  0.00  0.00     0.103 C 
ATOM     12  O3  IDS d 305      -2.705   4.694  54.905  0.00  0.00    -0.390 OA
ATOM     13  O2S IDS d 305      -6.386   4.320  56.248  0.00  0.00    -0.572 OA
ATOM     14  C2  IDS d 305      -4.768   4.146  53.952  0.00  0.00     0.134 C 
ATOM     15  O2  IDS d 305      -5.153   5.448  54.317  0.00  0.00    -0.244 OA
ATOM     16  H   IDS d 305      -3.023   4.815  52.920  0.00  0.00     0.091 H 
ATOM     17  H   IDS d 305      -5.708   4.643  52.119  0.00  0.00     0.133 H 
ATOM     18  H   IDS d 305      -4.560   1.473  53.322  0.00  0.00     0.104 H 
ATOM     19  H   IDS d 305      -2.793   2.244  54.482  0.00  0.00     0.092 H 
ATOM     20  H   IDS d 305      -2.950   4.135  55.659  0.00  0.00     0.210 HD
ATOM     21  H   IDS d 305      -5.053   3.438  54.703  0.00  0.00     0.097 H 
ATOM     22  C6  IDS d 303       5.665   1.681  51.562  0.00  0.00     0.206 C 
ATOM     23  O61 IDS d 303       6.299   2.115  50.611  0.00  0.00    -0.646 OA
ATOM     24  C5  IDS d 303       4.628   0.641  51.326  0.00  0.00     0.152 C 
ATOM     25  C1  IDS d 303       2.900  -0.561  52.400  0.00  0.00     0.161 C 
ATOM     26  O3  IDS d 303       3.019  -0.759  49.387  0.00  0.00    -0.390 OA
ATOM     27  O2S IDS d 303       2.368  -4.607  51.715  0.00  0.00    -0.572 OA
ATOM     28  O5  IDS d 303       4.094   0.208  52.584  0.00  0.00    -0.340 OA
ATOM     29  C3  IDS d 303       3.902  -1.428  50.222  0.00  0.00     0.094 C 
ATOM     30  S   IDS d 303       2.862  -3.905  52.840  0.00  0.00     0.252 S 
ATOM     31  C4  IDS d 303       5.137  -0.562  50.545  0.00  0.00     0.103 C 
ATOM     32  O1S IDS d 303       3.662  -4.712  53.674  0.00  0.00    -0.572 OA
ATOM     33  C2  IDS d 303       3.179  -1.760  51.493  0.00  0.00     0.134 C 
ATOM     34  O3S IDS d 303       1.715  -3.413  53.508  0.00  0.00    -0.572 OA
ATOM     35  O2  IDS d 303       3.876  -2.686  52.198  0.00  0.00    -0.244 OA
ATOM     36  O62 IDS d 303       5.677   2.182  52.666  0.00  0.00    -0.646 OA
ATOM     37  H   IDS d 303       3.869   1.094  50.724  0.00  0.00     0.104 H 
ATOM     38  H   IDS d 303       2.595  -0.922  53.359  0.00  0.00     0.133 H 
ATOM     39  H   IDS d 303       2.255  -1.327  49.202  0.00  0.00     0.210 HD
ATOM     40  H   IDS d 303       4.245  -2.315  49.731  0.00  0.00     0.091 H 
ATOM     41  H   IDS d 303       5.644  -0.303  49.638  0.00  0.00     0.092 H 
ATOM     42  H   IDS d 303       2.227  -2.137  51.183  0.00  0.00     0.097 H 
ATOM     43  C6  SGN d 306      -7.941   5.147  51.691  0.00  0.00     0.067 C 
ATOM     44  S1  SGN d 306     -10.304  -0.967  49.501  0.00  0.00     0.156 S 
ATOM     45  C5  SGN d 306      -8.525   3.753  51.847  0.00  0.00     0.091 C 
ATOM     46  C3  SGN d 306      -7.937   1.328  51.746  0.00  0.00     0.083 C 
ATOM     47  C1  SGN d 306     -10.094   2.245  50.799  0.00  0.00     0.147 C 
ATOM     48  O1S SGN d 306     -10.881  -2.193  49.988  0.00  0.00    -0.296 OA
ATOM     49  O6  SGN d 306      -6.985   5.133  50.633  0.00  0.00    -0.254 OA
ATOM     50  S2  SGN d 306      -6.481   6.653  49.877  0.00  0.00     0.251 S 
ATOM     51  O4S SGN d 306      -5.196   7.062  50.372  0.00  0.00    -0.572 OA
ATOM     52  O1  SGN d 306     -10.819   2.028  52.001  0.00  0.00    -0.369 OA
ATOM     53  O4  SGN d 306      -6.551   2.917  52.882  0.00  0.00    -0.348 OA
ATOM     54  C4  SGN d 306      -7.390   2.747  51.742  0.00  0.00     0.095 C 
ATOM     55  N   SGN d 306      -9.628  -0.104  50.880  0.00  0.00    -0.210 NA
ATOM     56  O2S SGN d 306      -9.231  -1.248  48.591  0.00  0.00    -0.296 OA
ATOM     57  O5  SGN d 306      -9.483   3.529  50.787  0.00  0.00    -0.350 OA
ATOM     58  O6S SGN d 306      -6.390   6.426  48.460  0.00  0.00    -0.572 OA
ATOM     59  C2  SGN d 306      -9.003   1.185  50.665  0.00  0.00     0.081 C 
ATOM     60  O3S SGN d 306     -11.321  -0.171  48.863  0.00  0.00    -0.296 OA
ATOM     61  O5S SGN d 306      -7.485   7.655  50.142  0.00  0.00    -0.572 OA
ATOM     62  O3  SGN d 306      -6.876   0.466  51.358  0.00  0.00    -0.391 OA
ATOM     63  H   SGN d 306      -7.465   5.441  52.602  0.00  0.00     0.080 H 
ATOM     64  H   SGN d 306      -8.722   5.843  51.463  0.00  0.00     0.080 H 
ATOM     65  H   SGN d 306      -9.014   3.648  52.793  0.00  0.00     0.090 H 
ATOM     66  H   SGN d 306      -8.336   1.100  52.712  0.00  0.00     0.089 H 
ATOM     67  H   SGN d 306     -10.783   2.184  49.983  0.00  0.00     0.131 H 
ATOM     68  H   SGN d 306     -10.192  -2.726  50.417  0.00  0.00     0.231 HD
ATOM     69  H   SGN d 306     -10.213   2.078  52.757  0.00  0.00     0.212 HD
ATOM     70  H   SGN d 306      -6.850   2.907  50.832  0.00  0.00     0.091 H 
ATOM     71  H   SGN d 306      -8.922  -0.712  51.296  0.00  0.00     0.140 HD
ATOM     72  H   SGN d 306      -8.558  -1.783  49.039  0.00  0.00     0.231 HD
ATOM     73  H   SGN d 306      -8.548   1.289  49.703  0.00  0.00     0.076 H 
ATOM     74  H   SGN d 306     -12.035   0.007  49.494  0.00  0.00     0.231 HD
ATOM     75  H   SGN d 306      -6.556   0.722  50.478  0.00  0.00     0.210 HD
ATOM     76  C1  SGN d 302       7.343  -1.518  50.924  0.00  0.00     0.150 C 
ATOM     77  O4  SGN d 302       8.933  -1.539  54.759  0.00  0.00    -0.348 OA
ATOM     78  O6  SGN d 302      10.630   0.258  52.900  0.00  0.00    -0.254 OA
ATOM     79  O3S SGN d 302       6.149  -3.597  48.906  0.00  0.00    -0.296 OA
ATOM     80  S2  SGN d 302      11.800   1.409  52.405  0.00  0.00     0.251 S 
ATOM     81  O5  SGN d 302       8.275  -0.508  51.314  0.00  0.00    -0.349 OA
ATOM     82  O1S SGN d 302       5.469  -5.537  50.035  0.00  0.00    -0.296 OA
ATOM     83  O6S SGN d 302      11.164   2.296  51.469  0.00  0.00    -0.572 OA
ATOM     84  N   SGN d 302       6.724  -3.749  51.407  0.00  0.00    -0.210 NA
ATOM     85  O5S SGN d 302      12.178   2.145  53.557  0.00  0.00    -0.572 OA
ATOM     86  C4  SGN d 302       9.011  -1.646  53.337  0.00  0.00     0.095 C 
ATOM     87  O3  SGN d 302       8.599  -3.959  53.488  0.00  0.00    -0.391 OA
ATOM     88  C2  SGN d 302       7.829  -2.843  51.509  0.00  0.00     0.081 C 
ATOM     89  O2S SGN d 302       7.704  -5.146  49.520  0.00  0.00    -0.296 OA
ATOM     90  O1  SGN d 302       6.028  -1.261  51.411  0.00  0.00    -0.348 OA
ATOM     91  C5  SGN d 302       8.426  -0.374  52.723  0.00  0.00     0.091 C 
ATOM     92  S1  SGN d 302       6.492  -4.556  49.887  0.00  0.00     0.156 S 
ATOM     93  C6  SGN d 302       9.336   0.775  52.958  0.00  0.00     0.067 C 
ATOM     94  O4S SGN d 302      12.927   0.728  51.881  0.00  0.00    -0.572 OA
ATOM     95  C3  SGN d 302       8.056  -2.753  53.004  0.00  0.00     0.083 C 
ATOM     96  H   SGN d 302       7.292  -1.539  49.856  0.00  0.00     0.131 H 
ATOM     97  H   SGN d 302       5.307  -3.176  49.144  0.00  0.00     0.231 HD
ATOM     98  H   SGN d 302       4.640  -5.103  50.289  0.00  0.00     0.231 HD
ATOM     99  H   SGN d 302       5.876  -3.220  51.605  0.00  0.00     0.140 HD
ATOM    100  H   SGN d 302      10.012  -1.802  52.990  0.00  0.00     0.091 H 
ATOM    101  H   SGN d 302       8.740  -3.889  54.446  0.00  0.00     0.210 HD
ATOM    102  H   SGN d 302       8.727  -3.125  51.000  0.00  0.00     0.076 H 
ATOM    103  H   SGN d 302       7.596  -5.604  48.672  0.00  0.00     0.231 HD
ATOM    104  H   SGN d 302       7.473  -0.211  53.183  0.00  0.00     0.090 H 
ATOM    105  H   SGN d 302       9.198   1.519  52.202  0.00  0.00     0.080 H 
ATOM    106  H   SGN d 302       9.143   1.241  53.902  0.00  0.00     0.080 H 
ATOM    107  H   SGN d 302       7.108  -2.560  53.460  0.00  0.00     0.089 H 
ATOM    108  O2S SGN d 304       0.430   7.196  51.972  0.00  0.00    -0.296 OA
ATOM    109  C1  SGN d 304      -0.531   3.003  53.853  0.00  0.00     0.150 C 
ATOM    110  S2  SGN d 304       1.661  -0.043  56.719  0.00  0.00     0.251 S 
ATOM    111  O4  SGN d 304       1.822   0.221  51.912  0.00  0.00    -0.348 OA
ATOM    112  C6  SGN d 304       0.436  -0.568  54.279  0.00  0.00     0.067 C 
ATOM    113  O4S SGN d 304       2.635  -1.076  56.555  0.00  0.00    -0.572 OA
ATOM    114  O1  SGN d 304      -1.579   2.779  52.931  0.00  0.00    -0.348 OA
ATOM    115  O5  SGN d 304      -0.158   1.787  54.482  0.00  0.00    -0.349 OA
ATOM    116  S1  SGN d 304       0.468   6.267  53.059  0.00  0.00     0.156 S 
ATOM    117  O5S SGN d 304       1.244   0.021  58.086  0.00  0.00    -0.572 OA
ATOM    118  C3  SGN d 304       1.074   2.504  52.050  0.00  0.00     0.083 C 
ATOM    119  N   SGN d 304       0.181   4.676  52.335  0.00  0.00    -0.210 NA
ATOM    120  O1S SGN d 304      -0.535   6.586  54.037  0.00  0.00    -0.296 OA
ATOM    121  O6  SGN d 304       0.262  -0.426  55.691  0.00  0.00    -0.254 OA
ATOM    122  C4  SGN d 304       1.424   1.235  52.815  0.00  0.00     0.095 C 
ATOM    123  C5  SGN d 304       0.207   0.759  53.571  0.00  0.00     0.091 C 
ATOM    124  C2  SGN d 304       0.637   3.526  53.059  0.00  0.00     0.081 C 
ATOM    125  O6S SGN d 304       2.223   1.226  56.334  0.00  0.00    -0.572 OA
ATOM    126  O3  SGN d 304       2.190   3.018  51.357  0.00  0.00    -0.391 OA
ATOM    127  O3S SGN d 304       1.766   6.282  53.681  0.00  0.00    -0.296 OA
ATOM    128  H   SGN d 304      -0.449   7.177  51.561  0.00  0.00     0.231 HD
ATOM    129  H   SGN d 304      -0.837   3.692  54.612  0.00  0.00     0.131 H 
ATOM    130  H   SGN d 304       1.432  -0.904  54.080  0.00  0.00     0.080 H 
ATOM    131  H   SGN d 304      -0.276  -1.279  53.915  0.00  0.00     0.080 H 
ATOM    132  H   SGN d 304       0.309   2.283  51.335  0.00  0.00     0.089 H 
ATOM    133  H   SGN d 304       0.642   4.667  51.425  0.00  0.00     0.140 HD
ATOM    134  H   SGN d 304      -1.410   6.576  53.618  0.00  0.00     0.231 HD
ATOM    135  H   SGN d 304       2.225   1.444  53.493  0.00  0.00     0.091 H 
ATOM    136  H   SGN d 304      -0.591   0.571  52.882  0.00  0.00     0.090 H 
ATOM    137  H   SGN d 304       1.449   3.754  53.716  0.00  0.00     0.076 H 
ATOM    138  H   SGN d 304       2.896   3.226  51.989  0.00  0.00     0.210 HD
ATOM    139  H   SGN d 304       2.443   6.067  53.021  0.00  0.00     0.231 HD
ATOM    140  O1S UAP d 301      11.569   1.253  57.261  0.00  0.00    -0.572 OA
ATOM    141  C3  UAP d 301       9.070  -2.386  57.547  0.00  0.00     0.086 C 
ATOM    142  O62 UAP d 301      12.187  -4.989  55.258  0.00  0.00    -0.642 OA
ATOM    143  C2  UAP d 301       9.852  -1.247  56.942  0.00  0.00     0.135 C 
ATOM    144  O61 UAP d 301      10.924  -5.919  56.739  0.00  0.00    -0.642 OA
ATOM    145  C1  UAP d 301      10.160  -1.501  55.482  0.00  0.00     0.167 C 
ATOM    146  C5  UAP d 301      10.466  -3.798  56.132  0.00  0.00     0.147 C 
ATOM    147  C4  UAP d 301       9.542  -3.687  57.110  0.00  0.00    -0.034 C 
ATOM    148  O3S UAP d 301      10.669   0.587  59.345  0.00  0.00    -0.572 OA
ATOM    149  C6  UAP d 301      11.181  -4.956  56.003  0.00  0.00     0.233 C 
ATOM    150  O5  UAP d 301      10.895  -2.715  55.412  0.00  0.00    -0.311 OA
ATOM    151  O2S UAP d 301      12.937   0.156  58.771  0.00  0.00    -0.572 OA
ATOM    152  O2  UAP d 301      11.093  -1.224  57.586  0.00  0.00    -0.244 OA
ATOM    153  O3  UAP d 301       7.724  -2.175  57.321  0.00  0.00    -0.389 OA
ATOM    154  S   UAP d 301      11.602   0.283  58.298  0.00  0.00     0.252 S 
ATOM    155  H   UAP d 301       9.230  -2.400  58.606  0.00  0.00     0.093 H 
ATOM    156  H   UAP d 301       9.284  -0.346  57.045  0.00  0.00     0.097 H 
ATOM    157  H   UAP d 301      10.754  -0.729  55.040  0.00  0.00     0.134 H 
ATOM    158  H   UAP d 301       9.166  -4.539  57.553  0.00  0.00     0.085 H 
ATOM    159  H   UAP d 301       7.555  -2.158  56.366  0.00  0.00     0.210 HD
ENDROOT
TORSDOF 50
ENDMDL
MODEL 28
REMARK VINA RESULT:      -7.5      2.729      4.090
REMARK  0 active torsions:
REMARK  status: ('A' for Active; 'I' for Inactive)
REMARK       I    between atoms: C3_1  and  O3_85 
REMARK       I    between atoms: C6_2  and  C5_22 
REMARK       I    between atoms: C6_3  and  C5_14 
REMARK       I    between atoms: C6_3  and  O6_30 
REMARK       I    between atoms: C1_4  and  O1_84 
REMARK       I    between atoms: O2S_6  and  S1_45 
REMARK       I    between atoms: C1_7  and  O1_36 
REMARK       I    between atoms: S1_10  and  N_69 
REMARK       I    between atoms: S1_10  and  O1S_27 
REMARK       I    between atoms: S1_10  and  O2S_71 
REMARK       I    between atoms: S1_10  and  O3S_88 
REMARK       I    between atoms: O4_11  and  C1_42 
REMARK       I    between atoms: O4_11  and  C4_63 
REMARK       I    between atoms: O6_12  and  C6_94 
REMARK       I    between atoms: O6_12  and  S2_28 
REMARK       I    between atoms: C1_13  and  O4_51 
REMARK       I    between atoms: S2_16  and  O6_76 
REMARK       I    between atoms: C3_18  and  O3_103 
REMARK       I    between atoms: C1_19  and  O1_37 
REMARK       I    between atoms: O4_20  and  C1_23 
REMARK       I    between atoms: O4_20  and  C4_77 
REMARK       I    between atoms: O3S_21  and  S1_92 
REMARK       I    between atoms: C3_24  and  O3_87 
REMARK       I    between atoms: O3_25  and  C3_46 
REMARK       I    between atoms: C6_29  and  C5_79 
REMARK       I    between atoms: C6_29  and  O6_76 
REMARK       I    between atoms: O6_30  and  S2_31 
REMARK       I    between atoms: O1_36  and  C4_81 
REMARK       I    between atoms: C2_38  and  O2_72 
REMARK       I    between atoms: S1_45  and  N_74 
REMARK       I    between atoms: S1_45  and  O1S_75 
REMARK       I    between atoms: S1_45  and  O3S_101 
REMARK       I    between atoms: O1S_47  and  S1_92 
REMARK       I    between atoms: S_48  and  O2_91 
REMARK       I    between atoms: C5_49  and  C6_67 
REMARK       I    between atoms: O4_51  and  C4_57 
REMARK       I    between atoms: N_52  and  C2_73 
REMARK       I    between atoms: N_52  and  S1_92 
REMARK       I    between atoms: C5_53  and  C6_61 
REMARK       I    between atoms: C4_56  and  O1_84 
REMARK       I    between atoms: C2_62  and  O2_91 
REMARK       I    between atoms: S_66  and  O2_105 
REMARK       I    between atoms: O3_68  and  C3_102 
REMARK       I    between atoms: N_69  and  C2_83 
REMARK       I    between atoms: C3_70  and  O3_98 
REMARK       I    between atoms: O2_72  and  S_96 
REMARK       I    between atoms: N_74  and  C2_86 
REMARK       I    between atoms: O2S_80  and  S1_92 
REMARK       I    between atoms: C5_89  and  C6_94 
REMARK       I    between atoms: C2_104  and  O2_105 
ROOT
ATOM      1  C3  IDS d 305      -2.777   3.490  53.958  0.00  0.00     0.094 C 
ATOM      2  O3S IDS d 305      -7.178   5.062  55.124  0.00  0.00    -0.572 OA
ATOM      3  C1  IDS d 305      -4.911   3.219  52.771  0.00  0.00     0.161 C 
ATOM      4  O62 IDS d 305      -2.566   0.919  50.525  0.00  0.00    -0.646 OA
ATOM      5  O5  IDS d 305      -4.046   2.457  51.957  0.00  0.00    -0.340 OA
ATOM      6  O61 IDS d 305      -2.354  -0.594  52.137  0.00  0.00    -0.646 OA
ATOM      7  O1S IDS d 305      -5.623   5.842  56.762  0.00  0.00    -0.572 OA
ATOM      8  C5  IDS d 305      -3.433   1.419  52.701  0.00  0.00     0.152 C 
ATOM      9  S   IDS d 305      -5.903   4.818  55.779  0.00  0.00     0.252 S 
ATOM     10  C6  IDS d 305      -2.745   0.502  51.699  0.00  0.00     0.206 C 
ATOM     11  C4  IDS d 305      -2.390   2.057  53.643  0.00  0.00     0.103 C 
ATOM     12  O3  IDS d 305      -2.189   3.865  55.161  0.00  0.00    -0.390 OA
ATOM     13  O2S IDS d 305      -5.908   3.531  56.411  0.00  0.00    -0.572 OA
ATOM     14  C2  IDS d 305      -4.254   3.483  54.134  0.00  0.00     0.134 C 
ATOM     15  O2  IDS d 305      -4.595   4.765  54.601  0.00  0.00    -0.244 OA
ATOM     16  H   IDS d 305      -2.465   4.165  53.189  0.00  0.00     0.091 H 
ATOM     17  H   IDS d 305      -5.139   4.169  52.335  0.00  0.00     0.133 H 
ATOM     18  H   IDS d 305      -4.139   0.866  53.285  0.00  0.00     0.104 H 
ATOM     19  H   IDS d 305      -2.366   1.465  54.533  0.00  0.00     0.092 H 
ATOM     20  H   IDS d 305      -2.471   3.256  55.862  0.00  0.00     0.210 HD
ATOM     21  H   IDS d 305      -4.581   2.727  54.818  0.00  0.00     0.097 H 
ATOM     22  C6  IDS d 303       6.117   0.804  51.708  0.00  0.00     0.206 C 
ATOM     23  O61 IDS d 303       6.786   1.289  50.806  0.00  0.00    -0.646 OA
ATOM     24  C5  IDS d 303       5.045  -0.170  51.369  0.00  0.00     0.152 C 
ATOM     25  C1  IDS d 303       3.251  -1.386  52.311  0.00  0.00     0.161 C 
ATOM     26  O3  IDS d 303       3.419  -1.337  49.294  0.00  0.00    -0.390 OA
ATOM     27  O2S IDS d 303       2.574  -5.336  51.281  0.00  0.00    -0.572 OA
ATOM     28  O5  IDS d 303       4.471  -0.684  52.578  0.00  0.00    -0.340 OA
ATOM     29  C3  IDS d 303       4.260  -2.109  50.083  0.00  0.00     0.094 C 
ATOM     30  S   IDS d 303       3.073  -4.751  52.468  0.00  0.00     0.252 S 
ATOM     31  C4  IDS d 303       5.521  -1.324  50.497  0.00  0.00     0.103 C 
ATOM     32  O1S IDS d 303       3.826  -5.656  53.244  0.00  0.00    -0.572 OA
ATOM     33  C2  IDS d 303       3.500  -2.515  51.311  0.00  0.00     0.134 C 
ATOM     34  O3S IDS d 303       1.934  -4.270  53.157  0.00  0.00    -0.572 OA
ATOM     35  O2  IDS d 303       4.146  -3.525  51.946  0.00  0.00    -0.244 OA
ATOM     36  O62 IDS d 303       6.128   1.210  52.850  0.00  0.00    -0.646 OA
ATOM     37  H   IDS d 303       4.315   0.362  50.795  0.00  0.00     0.104 H 
ATOM     38  H   IDS d 303       2.915  -1.813  53.232  0.00  0.00     0.133 H 
ATOM     39  H   IDS d 303       2.637  -1.856  49.051  0.00  0.00     0.210 HD
ATOM     40  H   IDS d 303       4.577  -2.965  49.525  0.00  0.00     0.091 H 
ATOM     41  H   IDS d 303       6.055  -1.010  49.624  0.00  0.00     0.092 H 
ATOM     42  H   IDS d 303       2.540  -2.827  50.955  0.00  0.00     0.097 H 
ATOM     43  C6  SGN d 306      -7.343   4.798  51.915  0.00  0.00     0.067 C 
ATOM     44  S1  SGN d 306      -9.901  -1.012  49.183  0.00  0.00     0.156 S 
ATOM     45  C5  SGN d 306      -7.983   3.420  51.945  0.00  0.00     0.091 C 
ATOM     46  C3  SGN d 306      -7.489   0.990  51.649  0.00  0.00     0.083 C 
ATOM     47  C1  SGN d 306      -9.590   2.070  50.750  0.00  0.00     0.147 C 
ATOM     48  O1S SGN d 306     -10.535  -2.250  49.557  0.00  0.00    -0.296 OA
ATOM     49  O6  SGN d 306      -6.368   4.833  50.875  0.00  0.00    -0.254 OA
ATOM     50  S2  SGN d 306      -5.791   6.389  50.258  0.00  0.00     0.251 S 
ATOM     51  O4S SGN d 306      -4.500   6.702  50.805  0.00  0.00    -0.572 OA
ATOM     52  O1  SGN d 306     -10.345   1.783  51.918  0.00  0.00    -0.369 OA
ATOM     53  O4  SGN d 306      -6.063   2.421  52.937  0.00  0.00    -0.348 OA
ATOM     54  C4  SGN d 306      -6.887   2.382  51.773  0.00  0.00     0.095 C 
ATOM     55  N   SGN d 306      -9.218  -0.295  50.640  0.00  0.00    -0.210 NA
ATOM     56  O2S SGN d 306      -8.823  -1.259  48.269  0.00  0.00    -0.296 OA
ATOM     57  O5  SGN d 306      -8.929   3.324  50.855  0.00  0.00    -0.350 OA
ATOM     58  O6S SGN d 306      -5.681   6.277  48.828  0.00  0.00    -0.572 OA
ATOM     59  C2  SGN d 306      -8.540   0.981  50.544  0.00  0.00     0.081 C 
ATOM     60  O3S SGN d 306     -10.874  -0.125  48.598  0.00  0.00    -0.296 OA
ATOM     61  O5S SGN d 306      -6.759   7.405  50.591  0.00  0.00    -0.572 OA
ATOM     62  O3  SGN d 306      -6.455   0.121  51.207  0.00  0.00    -0.391 OA
ATOM     63  H   SGN d 306      -6.872   4.995  52.855  0.00  0.00     0.080 H 
ATOM     64  H   SGN d 306      -8.091   5.541  51.735  0.00  0.00     0.080 H 
ATOM     65  H   SGN d 306      -8.494   3.257  52.871  0.00  0.00     0.090 H 
ATOM     66  H   SGN d 306      -7.915   0.698  52.586  0.00  0.00     0.089 H 
ATOM     67  H   SGN d 306     -10.266   2.105  49.921  0.00  0.00     0.131 H 
ATOM     68  H   SGN d 306      -9.876  -2.844  49.950  0.00  0.00     0.231 HD
ATOM     69  H   SGN d 306      -9.753   1.746  52.685  0.00  0.00     0.212 HD
ATOM     70  H   SGN d 306      -6.324   2.594  50.889  0.00  0.00     0.091 H 
ATOM     71  H   SGN d 306      -8.545  -0.963  51.015  0.00  0.00     0.140 HD
ATOM     72  H   SGN d 306      -8.180  -1.857  48.682  0.00  0.00     0.231 HD
ATOM     73  H   SGN d 306      -8.062   1.147  49.602  0.00  0.00     0.076 H 
ATOM     74  H   SGN d 306     -11.593   0.029  49.232  0.00  0.00     0.231 HD
ATOM     75  H   SGN d 306      -6.109   0.436  50.357  0.00  0.00     0.210 HD
ATOM     76  C1  SGN d 302       7.680  -2.397  50.830  0.00  0.00     0.150 C 
ATOM     77  O4  SGN d 302       9.196  -2.802  54.673  0.00  0.00    -0.348 OA
ATOM     78  O6  SGN d 302      10.997  -0.927  52.998  0.00  0.00    -0.254 OA
ATOM     79  O3S SGN d 302       6.444  -4.250  48.625  0.00  0.00    -0.296 OA
ATOM     80  S2  SGN d 302      12.220   0.213  52.621  0.00  0.00     0.251 S 
ATOM     81  O5  SGN d 302       8.644  -1.461  51.318  0.00  0.00    -0.349 OA
ATOM     82  O1S SGN d 302       5.667  -6.247  49.577  0.00  0.00    -0.296 OA
ATOM     83  O6S SGN d 302      11.637   1.201  51.752  0.00  0.00    -0.572 OA
ATOM     84  N   SGN d 302       6.966  -4.633  51.113  0.00  0.00    -0.210 NA
ATOM     85  O5S SGN d 302      12.605   0.835  53.836  0.00  0.00    -0.572 OA
ATOM     86  C4  SGN d 302       9.296  -2.792  53.249  0.00  0.00     0.095 C 
ATOM     87  O3  SGN d 302       8.791  -5.091  53.199  0.00  0.00    -0.391 OA
ATOM     88  C2  SGN d 302       8.103  -3.784  51.308  0.00  0.00     0.081 C 
ATOM     89  O2S SGN d 302       7.925  -5.907  49.132  0.00  0.00    -0.296 OA
ATOM     90  O1  SGN d 302       6.367  -2.128  51.316  0.00  0.00    -0.348 OA
ATOM     91  C5  SGN d 302       8.773  -1.451  52.735  0.00  0.00     0.091 C 
ATOM     92  S1  SGN d 302       6.730  -5.300  49.528  0.00  0.00     0.156 S 
ATOM     93  C6  SGN d 302       9.723  -0.364  53.080  0.00  0.00     0.067 C 
ATOM     94  O4S SGN d 302      13.329  -0.467  52.059  0.00  0.00    -0.572 OA
ATOM     95  C3  SGN d 302       8.305  -3.828  52.809  0.00  0.00     0.083 C 
ATOM     96  H   SGN d 302       7.648  -2.327  49.763  0.00  0.00     0.131 H 
ATOM     97  H   SGN d 302       5.615  -3.817  48.885  0.00  0.00     0.231 HD
ATOM     98  H   SGN d 302       4.851  -5.803  49.853  0.00  0.00     0.231 HD
ATOM     99  H   SGN d 302       6.135  -4.088  51.342  0.00  0.00     0.140 HD
ATOM    100  H   SGN d 302      10.296  -2.960  52.906  0.00  0.00     0.091 H 
ATOM    101  H   SGN d 302       8.916  -5.107  54.161  0.00  0.00     0.210 HD
ATOM    102  H   SGN d 302       8.999  -4.059  50.791  0.00  0.00     0.076 H 
ATOM    103  H   SGN d 302       7.816  -6.288  48.247  0.00  0.00     0.231 HD
ATOM    104  H   SGN d 302       7.819  -1.289  53.192  0.00  0.00     0.090 H 
ATOM    105  H   SGN d 302       9.628   0.445  52.387  0.00  0.00     0.080 H 
ATOM    106  H   SGN d 302       9.530   0.030  54.056  0.00  0.00     0.080 H 
ATOM    107  H   SGN d 302       7.357  -3.636  53.265  0.00  0.00     0.089 H 
ATOM    108  O2S SGN d 304       1.096   6.473  52.498  0.00  0.00    -0.296 OA
ATOM    109  C1  SGN d 304      -0.064   2.181  54.005  0.00  0.00     0.150 C 
ATOM    110  S2  SGN d 304       1.952  -1.180  56.638  0.00  0.00     0.251 S 
ATOM    111  O4  SGN d 304       2.214  -0.522  51.874  0.00  0.00    -0.348 OA
ATOM    112  C6  SGN d 304       0.754  -1.449  54.144  0.00  0.00     0.067 C 
ATOM    113  O4S SGN d 304       2.888  -2.235  56.404  0.00  0.00    -0.572 OA
ATOM    114  O1  SGN d 304      -1.103   2.078  53.051  0.00  0.00    -0.348 OA
ATOM    115  O5  SGN d 304       0.249   0.903  54.535  0.00  0.00    -0.349 OA
ATOM    116  S1  SGN d 304       1.076   5.457  53.503  0.00  0.00     0.156 S 
ATOM    117  O5S SGN d 304       1.512  -1.212  58.000  0.00  0.00    -0.572 OA
ATOM    118  C3  SGN d 304       1.554   1.769  52.192  0.00  0.00     0.083 C 
ATOM    119  N   SGN d 304       0.741   3.945  52.644  0.00  0.00    -0.210 NA
ATOM    120  O1S SGN d 304       0.068   5.734  54.489  0.00  0.00    -0.296 OA
ATOM    121  O6  SGN d 304       0.558  -1.418  55.560  0.00  0.00    -0.254 OA
ATOM    122  C4  SGN d 304       1.839   0.428  52.852  0.00  0.00     0.095 C 
ATOM    123  C5  SGN d 304       0.590  -0.059  53.547  0.00  0.00     0.091 C 
ATOM    124  C2  SGN d 304       1.138   2.720  53.276  0.00  0.00     0.081 C 
ATOM    125  O6S SGN d 304       2.570   0.093  56.370  0.00  0.00    -0.572 OA
ATOM    126  O3  SGN d 304       2.702   2.294  51.562  0.00  0.00    -0.391 OA
ATOM    127  O3S SGN d 304       2.363   5.367  54.145  0.00  0.00    -0.296 OA
ATOM    128  H   SGN d 304       0.225   6.525  52.073  0.00  0.00     0.231 HD
ATOM    129  H   SGN d 304      -0.357   2.817  54.814  0.00  0.00     0.131 H 
ATOM    130  H   SGN d 304       1.740  -1.808  53.934  0.00  0.00     0.080 H 
ATOM    131  H   SGN d 304       0.021  -2.098  53.711  0.00  0.00     0.080 H 
ATOM    132  H   SGN d 304       0.795   1.640  51.449  0.00  0.00     0.089 H 
ATOM    133  H   SGN d 304       1.218   3.993  51.744  0.00  0.00     0.140 HD
ATOM    134  H   SGN d 304      -0.798   5.794  54.057  0.00  0.00     0.231 HD
ATOM    135  H   SGN d 304       2.634   0.547  53.558  0.00  0.00     0.091 H 
ATOM    136  H   SGN d 304      -0.201  -0.157  52.833  0.00  0.00     0.090 H 
ATOM    137  H   SGN d 304       1.946   2.860  53.963  0.00  0.00     0.076 H 
ATOM    138  H   SGN d 304       3.403   2.419  52.220  0.00  0.00     0.210 HD
ATOM    139  H   SGN d 304       3.043   5.181  53.480  0.00  0.00     0.231 HD
ATOM    140  O1S UAP d 301      11.892  -0.338  57.441  0.00  0.00    -0.572 OA
ATOM    141  C3  UAP d 301       9.247  -3.883  57.382  0.00  0.00     0.086 C 
ATOM    142  O62 UAP d 301      12.302  -6.411  54.931  0.00  0.00    -0.642 OA
ATOM    143  C2  UAP d 301      10.084  -2.730  56.888  0.00  0.00     0.135 C 
ATOM    144  O61 UAP d 301      10.975  -7.408  56.309  0.00  0.00    -0.642 OA
ATOM    145  C1  UAP d 301      10.410  -2.874  55.416  0.00  0.00     0.167 C 
ATOM    146  C5  UAP d 301      10.613  -5.228  55.876  0.00  0.00     0.147 C 
ATOM    147  C4  UAP d 301       9.676  -5.161  56.844  0.00  0.00    -0.034 C 
ATOM    148  O3S UAP d 301      10.927  -1.137  59.448  0.00  0.00    -0.572 OA
ATOM    149  C6  UAP d 301      11.283  -6.399  55.661  0.00  0.00     0.233 C 
ATOM    150  O5  UAP d 301      11.097  -4.107  55.256  0.00  0.00    -0.311 OA
ATOM    151  O2S UAP d 301      13.186  -1.611  58.875  0.00  0.00    -0.572 OA
ATOM    152  O2  UAP d 301      11.312  -2.811  57.550  0.00  0.00    -0.244 OA
ATOM    153  O3  UAP d 301       7.914  -3.599  57.154  0.00  0.00    -0.389 OA
ATOM    154  S   UAP d 301      11.866  -1.390  58.394  0.00  0.00     0.252 S 
ATOM    155  H   UAP d 301       9.386  -3.991  58.438  0.00  0.00     0.093 H 
ATOM    156  H   UAP d 301       9.550  -1.819  57.056  0.00  0.00     0.097 H 
ATOM    157  H   UAP d 301      11.041  -2.092  55.050  0.00  0.00     0.134 H 
ATOM    158  H   UAP d 301       9.258  -6.031  57.208  0.00  0.00     0.085 H 
ATOM    159  H   UAP d 301       7.764  -3.496  56.201  0.00  0.00     0.210 HD
ENDROOT
TORSDOF 50
ENDMDL
MODEL 29
REMARK VINA RESULT:      -7.4      4.330     14.796
REMARK  0 active torsions:
REMARK  status: ('A' for Active; 'I' for Inactive)
REMARK       I    between atoms: C3_1  and  O3_85 
REMARK       I    between atoms: C6_2  and  C5_22 
REMARK       I    between atoms: C6_3  and  C5_14 
REMARK       I    between atoms: C6_3  and  O6_30 
REMARK       I    between atoms: C1_4  and  O1_84 
REMARK       I    between atoms: O2S_6  and  S1_45 
REMARK       I    between atoms: C1_7  and  O1_36 
REMARK       I    between atoms: S1_10  and  N_69 
REMARK       I    between atoms: S1_10  and  O1S_27 
REMARK       I    between atoms: S1_10  and  O2S_71 
REMARK       I    between atoms: S1_10  and  O3S_88 
REMARK       I    between atoms: O4_11  and  C1_42 
REMARK       I    between atoms: O4_11  and  C4_63 
REMARK       I    between atoms: O6_12  and  C6_94 
REMARK       I    between atoms: O6_12  and  S2_28 
REMARK       I    between atoms: C1_13  and  O4_51 
REMARK       I    between atoms: S2_16  and  O6_76 
REMARK       I    between atoms: C3_18  and  O3_103 
REMARK       I    between atoms: C1_19  and  O1_37 
REMARK       I    between atoms: O4_20  and  C1_23 
REMARK       I    between atoms: O4_20  and  C4_77 
REMARK       I    between atoms: O3S_21  and  S1_92 
REMARK       I    between atoms: C3_24  and  O3_87 
REMARK       I    between atoms: O3_25  and  C3_46 
REMARK       I    between atoms: C6_29  and  C5_79 
REMARK       I    between atoms: C6_29  and  O6_76 
REMARK       I    between atoms: O6_30  and  S2_31 
REMARK       I    between atoms: O1_36  and  C4_81 
REMARK       I    between atoms: C2_38  and  O2_72 
REMARK       I    between atoms: S1_45  and  N_74 
REMARK       I    between atoms: S1_45  and  O1S_75 
REMARK       I    between atoms: S1_45  and  O3S_101 
REMARK       I    between atoms: O1S_47  and  S1_92 
REMARK       I    between atoms: S_48  and  O2_91 
REMARK       I    between atoms: C5_49  and  C6_67 
REMARK       I    between atoms: O4_51  and  C4_57 
REMARK       I    between atoms: N_52  and  C2_73 
REMARK       I    between atoms: N_52  and  S1_92 
REMARK       I    between atoms: C5_53  and  C6_61 
REMARK       I    between atoms: C4_56  and  O1_84 
REMARK       I    between atoms: C2_62  and  O2_91 
REMARK       I    between atoms: S_66  and  O2_105 
REMARK       I    between atoms: O3_68  and  C3_102 
REMARK       I    between atoms: N_69  and  C2_83 
REMARK       I    between atoms: C3_70  and  O3_98 
REMARK       I    between atoms: O2_72  and  S_96 
REMARK       I    between atoms: N_74  and  C2_86 
REMARK       I    between atoms: O2S_80  and  S1_92 
REMARK       I    between atoms: C5_89  and  C6_94 
REMARK       I    between atoms: C2_104  and  O2_105 
ROOT
ATOM      1  C3  IDS d 305       6.777   0.931  51.810  0.00  0.00     0.094 C 
ATOM      2  O3S IDS d 305      11.587   1.008  52.039  0.00  0.00    -0.572 OA
ATOM      3  C1  IDS d 305       8.294   2.762  52.429  0.00  0.00     0.161 C 
ATOM      4  O62 IDS d 305       4.788   4.458  53.239  0.00  0.00    -0.646 OA
ATOM      5  O5  IDS d 305       7.036   3.362  52.652  0.00  0.00    -0.340 OA
ATOM      6  O61 IDS d 305       4.429   3.105  54.963  0.00  0.00    -0.646 OA
ATOM      7  O1S IDS d 305      10.888  -1.136  51.249  0.00  0.00    -0.572 OA
ATOM      8  C5  IDS d 305       6.283   2.622  53.598  0.00  0.00     0.152 C 
ATOM      9  S   IDS d 305      10.516   0.025  52.028  0.00  0.00     0.252 S 
ATOM     10  C6  IDS d 305       5.080   3.477  53.972  0.00  0.00     0.206 C 
ATOM     11  C4  IDS d 305       5.819   1.315  52.923  0.00  0.00     0.103 C 
ATOM     12  O3  IDS d 305       6.686  -0.438  51.585  0.00  0.00    -0.390 OA
ATOM     13  O2S IDS d 305      10.195  -0.376  53.368  0.00  0.00    -0.572 OA
ATOM     14  C2  IDS d 305       8.139   1.237  52.323  0.00  0.00     0.134 C 
ATOM     15  O2  IDS d 305       9.037   0.719  51.372  0.00  0.00    -0.244 OA
ATOM     16  H   IDS d 305       6.560   1.453  50.902  0.00  0.00     0.091 H 
ATOM     17  H   IDS d 305       8.745   3.103  51.520  0.00  0.00     0.133 H 
ATOM     18  H   IDS d 305       6.853   2.382  54.472  0.00  0.00     0.104 H 
ATOM     19  H   IDS d 305       5.795   0.561  53.682  0.00  0.00     0.092 H 
ATOM     20  H   IDS d 305       6.882  -0.914  52.406  0.00  0.00     0.210 HD
ATOM     21  H   IDS d 305       8.318   0.813  53.289  0.00  0.00     0.097 H 
ATOM     22  C6  IDS d 303      -2.737   0.605  50.925  0.00  0.00     0.206 C 
ATOM     23  O61 IDS d 303      -3.375   1.164  50.046  0.00  0.00    -0.646 OA
ATOM     24  C5  IDS d 303      -2.223   1.407  52.068  0.00  0.00     0.152 C 
ATOM     25  C1  IDS d 303      -0.839   1.276  53.979  0.00  0.00     0.161 C 
ATOM     26  O3  IDS d 303      -1.712   4.040  53.125  0.00  0.00    -0.390 OA
ATOM     27  O2S IDS d 303      -1.958   3.039  57.551  0.00  0.00    -0.572 OA
ATOM     28  O5  IDS d 303      -1.604   0.534  53.021  0.00  0.00    -0.340 OA
ATOM     29  C3  IDS d 303      -2.558   3.147  53.767  0.00  0.00     0.094 C 
ATOM     30  S   IDS d 303      -1.896   1.682  57.156  0.00  0.00     0.252 S 
ATOM     31  C4  IDS d 303      -3.293   2.242  52.757  0.00  0.00     0.103 C 
ATOM     32  O1S IDS d 303      -2.716   0.849  57.945  0.00  0.00    -0.572 OA
ATOM     33  C2  IDS d 303      -1.728   2.300  54.685  0.00  0.00     0.134 C 
ATOM     34  O3S IDS d 303      -0.528   1.328  57.245  0.00  0.00    -0.572 OA
ATOM     35  O2  IDS d 303      -2.527   1.648  55.567  0.00  0.00    -0.244 OA
ATOM     36  O62 IDS d 303      -2.314  -0.529  50.836  0.00  0.00    -0.646 OA
ATOM     37  H   IDS d 303      -1.512   2.098  51.665  0.00  0.00     0.104 H 
ATOM     38  H   IDS d 303      -0.472   0.583  54.707  0.00  0.00     0.133 H 
ATOM     39  H   IDS d 303      -1.265   4.593  53.784  0.00  0.00     0.210 HD
ATOM     40  H   IDS d 303      -3.298   3.696  54.312  0.00  0.00     0.091 H 
ATOM     41  H   IDS d 303      -3.868   2.844  52.084  0.00  0.00     0.092 H 
ATOM     42  H   IDS d 303      -1.073   2.984  55.181  0.00  0.00     0.097 H 
ATOM     43  C6  SGN d 306      10.849   4.104  51.528  0.00  0.00     0.067 C 
ATOM     44  S1  SGN d 306      10.303   8.335  56.965  0.00  0.00     0.156 S 
ATOM     45  C5  SGN d 306      10.916   4.483  52.998  0.00  0.00     0.091 C 
ATOM     46  C3  SGN d 306       9.496   4.962  54.995  0.00  0.00     0.083 C 
ATOM     47  C1  SGN d 306      11.557   6.313  54.438  0.00  0.00     0.147 C 
ATOM     48  O1S SGN d 306      10.500   8.369  58.392  0.00  0.00    -0.296 OA
ATOM     49  O6  SGN d 306       9.734   4.762  50.931  0.00  0.00    -0.254 OA
ATOM     50  S2  SGN d 306       9.646   4.927  49.169  0.00  0.00     0.251 S 
ATOM     51  O4S SGN d 306       8.742   3.958  48.616  0.00  0.00    -0.572 OA
ATOM     52  O1  SGN d 306      12.413   5.502  55.230  0.00  0.00    -0.369 OA
ATOM     53  O4  SGN d 306       9.069   3.091  53.561  0.00  0.00    -0.348 OA
ATOM     54  C4  SGN d 306       9.506   4.449  53.564  0.00  0.00     0.095 C 
ATOM     55  N   SGN d 306      10.316   6.647  56.460  0.00  0.00    -0.210 NA
ATOM     56  O2S SGN d 306       9.022   8.884  56.626  0.00  0.00    -0.296 OA
ATOM     57  O5  SGN d 306      11.459   5.819  53.108  0.00  0.00    -0.350 OA
ATOM     58  O6S SGN d 306       9.156   6.248  48.879  0.00  0.00    -0.572 OA
ATOM     59  C2  SGN d 306      10.161   6.332  55.055  0.00  0.00     0.081 C 
ATOM     60  O3S SGN d 306      11.361   9.061  56.310  0.00  0.00    -0.296 OA
ATOM     61  O5S SGN d 306      10.973   4.773  48.625  0.00  0.00    -0.572 OA
ATOM     62  O3  SGN d 306       8.138   5.175  55.357  0.00  0.00    -0.391 OA
ATOM     63  H   SGN d 306      10.732   3.045  51.436  0.00  0.00     0.080 H 
ATOM     64  H   SGN d 306      11.752   4.401  51.036  0.00  0.00     0.080 H 
ATOM     65  H   SGN d 306      11.540   3.802  53.540  0.00  0.00     0.090 H 
ATOM     66  H   SGN d 306       9.998   4.263  55.631  0.00  0.00     0.089 H 
ATOM     67  H   SGN d 306      11.972   7.299  54.409  0.00  0.00     0.131 H 
ATOM     68  H   SGN d 306       9.786   7.879  58.828  0.00  0.00     0.231 HD
ATOM     69  H   SGN d 306      12.057   4.601  55.271  0.00  0.00     0.212 HD
ATOM     70  H   SGN d 306       8.864   5.066  52.971  0.00  0.00     0.091 H 
ATOM     71  H   SGN d 306       9.556   6.180  56.956  0.00  0.00     0.140 HD
ATOM     72  H   SGN d 306       8.325   8.381  57.076  0.00  0.00     0.231 HD
ATOM     73  H   SGN d 306       9.565   7.039  54.518  0.00  0.00     0.076 H 
ATOM     74  H   SGN d 306      12.217   8.674  56.553  0.00  0.00     0.231 HD
ATOM     75  H   SGN d 306       7.737   5.815  54.747  0.00  0.00     0.210 HD
ATOM     76  C1  SGN d 302      -5.544   1.403  53.148  0.00  0.00     0.150 C 
ATOM     77  O4  SGN d 302      -6.108  -2.619  54.009  0.00  0.00    -0.348 OA
ATOM     78  O6  SGN d 302      -7.432  -1.901  51.308  0.00  0.00    -0.254 OA
ATOM     79  O3S SGN d 302      -5.668   4.134  54.680  0.00  0.00    -0.296 OA
ATOM     80  S2  SGN d 302      -8.194  -2.105  49.787  0.00  0.00     0.251 S 
ATOM     81  O5  SGN d 302      -5.937   0.501  52.112  0.00  0.00    -0.349 OA
ATOM     82  O1S SGN d 302      -5.485   3.785  56.991  0.00  0.00    -0.296 OA
ATOM     83  O6S SGN d 302      -7.518  -1.252  48.846  0.00  0.00    -0.572 OA
ATOM     84  N   SGN d 302      -5.668   1.694  55.491  0.00  0.00    -0.210 NA
ATOM     85  O5S SGN d 302      -8.009  -3.457  49.402  0.00  0.00    -0.572 OA
ATOM     86  C4  SGN d 302      -6.544  -1.319  53.612  0.00  0.00     0.095 C 
ATOM     87  O3  SGN d 302      -6.961  -0.772  55.863  0.00  0.00    -0.391 OA
ATOM     88  C2  SGN d 302      -6.321   1.025  54.407  0.00  0.00     0.081 C 
ATOM     89  O2S SGN d 302      -7.487   3.433  55.862  0.00  0.00    -0.296 OA
ATOM     90  O1  SGN d 302      -4.149   1.325  53.435  0.00  0.00    -0.348 OA
ATOM     91  C5  SGN d 302      -5.702  -0.869  52.418  0.00  0.00     0.091 C 
ATOM     92  S1  SGN d 302      -6.095   3.353  55.779  0.00  0.00     0.156 S 
ATOM     93  C6  SGN d 302      -6.062  -1.655  51.212  0.00  0.00     0.067 C 
ATOM     94  O4S SGN d 302      -9.578  -1.831  49.922  0.00  0.00    -0.572 OA
ATOM     95  C3  SGN d 302      -6.150  -0.438  54.761  0.00  0.00     0.083 C 
ATOM     96  H   SGN d 302      -5.750   2.401  52.826  0.00  0.00     0.131 H 
ATOM     97  H   SGN d 302      -4.702   4.090  54.607  0.00  0.00     0.231 HD
ATOM     98  H   SGN d 302      -4.521   3.720  56.909  0.00  0.00     0.231 HD
ATOM     99  H   SGN d 302      -4.665   1.664  55.309  0.00  0.00     0.140 HD
ATOM    100  H   SGN d 302      -7.585  -1.291  53.367  0.00  0.00     0.091 H 
ATOM    101  H   SGN d 302      -6.843  -1.710  56.080  0.00  0.00     0.210 HD
ATOM    102  H   SGN d 302      -7.352   1.264  54.249  0.00  0.00     0.076 H 
ATOM    103  H   SGN d 302      -7.749   4.353  56.023  0.00  0.00     0.231 HD
ATOM    104  H   SGN d 302      -4.675  -1.017  52.682  0.00  0.00     0.090 H 
ATOM    105  H   SGN d 302      -5.846  -1.095  50.325  0.00  0.00     0.080 H 
ATOM    106  H   SGN d 302      -5.503  -2.566  51.156  0.00  0.00     0.080 H 
ATOM    107  H   SGN d 302      -5.118  -0.592  54.996  0.00  0.00     0.089 H 
ATOM    108  O2S SGN d 304       4.065   0.625  47.500  0.00  0.00    -0.296 OA
ATOM    109  C1  SGN d 304       3.872   0.218  52.173  0.00  0.00     0.150 C 
ATOM    110  S2  SGN d 304       1.462  -2.394  55.282  0.00  0.00     0.251 S 
ATOM    111  O4  SGN d 304       0.304   1.887  53.403  0.00  0.00    -0.348 OA
ATOM    112  C6  SGN d 304       1.822   0.363  55.278  0.00  0.00     0.067 C 
ATOM    113  O4S SGN d 304       0.173  -2.316  55.896  0.00  0.00    -0.572 OA
ATOM    114  O1  SGN d 304       4.530   1.456  52.353  0.00  0.00    -0.348 OA
ATOM    115  O5  SGN d 304       3.246  -0.190  53.379  0.00  0.00    -0.349 OA
ATOM    116  S1  SGN d 304       3.949  -0.160  48.689  0.00  0.00     0.156 S 
ATOM    117  O5S SGN d 304       2.178  -3.524  55.791  0.00  0.00    -0.572 OA
ATOM    118  C3  SGN d 304       1.826   1.461  51.589  0.00  0.00     0.083 C 
ATOM    119  N   SGN d 304       3.475   0.975  49.964  0.00  0.00    -0.210 NA
ATOM    120  O1S SGN d 304       5.196  -0.803  48.998  0.00  0.00    -0.296 OA
ATOM    121  O6  SGN d 304       2.355  -0.906  55.666  0.00  0.00    -0.254 OA
ATOM    122  C4  SGN d 304       1.233   0.950  52.895  0.00  0.00     0.095 C 
ATOM    123  C5  SGN d 304       2.340   0.769  53.906  0.00  0.00     0.091 C 
ATOM    124  C2  SGN d 304       2.819   0.438  51.120  0.00  0.00     0.081 C 
ATOM    125  O6S SGN d 304       1.317  -2.527  53.855  0.00  0.00    -0.572 OA
ATOM    126  O3  SGN d 304       0.839   1.608  50.592  0.00  0.00    -0.391 OA
ATOM    127  O3S SGN d 304       2.922  -1.157  48.530  0.00  0.00    -0.296 OA
ATOM    128  H   SGN d 304       4.759   1.293  47.619  0.00  0.00     0.231 HD
ATOM    129  H   SGN d 304       4.570  -0.541  51.885  0.00  0.00     0.131 H 
ATOM    130  H   SGN d 304       0.754   0.299  55.245  0.00  0.00     0.080 H 
ATOM    131  H   SGN d 304       2.129   1.098  55.992  0.00  0.00     0.080 H 
ATOM    132  H   SGN d 304       2.275   2.417  51.759  0.00  0.00     0.089 H 
ATOM    133  H   SGN d 304       2.845   1.659  49.545  0.00  0.00     0.140 HD
ATOM    134  H   SGN d 304       5.888  -0.132  49.105  0.00  0.00     0.231 HD
ATOM    135  H   SGN d 304       0.739   0.018  52.714  0.00  0.00     0.091 H 
ATOM    136  H   SGN d 304       2.836   1.704  54.064  0.00  0.00     0.090 H 
ATOM    137  H   SGN d 304       2.316  -0.483  50.912  0.00  0.00     0.076 H 
ATOM    138  H   SGN d 304       0.420   0.750  50.422  0.00  0.00     0.210 HD
ATOM    139  H   SGN d 304       2.081  -0.723  48.321  0.00  0.00     0.231 HD
ATOM    140  O1S UAP d 301      -6.923  -6.433  51.603  0.00  0.00    -0.572 OA
ATOM    141  C3  UAP d 301      -5.892  -5.013  55.663  0.00  0.00     0.086 C 
ATOM    142  O62 UAP d 301     -10.169  -3.316  56.409  0.00  0.00    -0.642 OA
ATOM    143  C2  UAP d 301      -6.333  -4.986  54.221  0.00  0.00     0.135 C 
ATOM    144  O61 UAP d 301      -9.016  -4.036  58.083  0.00  0.00    -0.642 OA
ATOM    145  C1  UAP d 301      -7.039  -3.690  53.882  0.00  0.00     0.167 C 
ATOM    146  C5  UAP d 301      -7.985  -3.838  56.090  0.00  0.00     0.147 C 
ATOM    147  C4  UAP d 301      -6.884  -4.457  56.565  0.00  0.00    -0.034 C 
ATOM    148  O3S UAP d 301      -5.865  -7.888  53.141  0.00  0.00    -0.572 OA
ATOM    149  C6  UAP d 301      -9.074  -3.677  56.899  0.00  0.00     0.233 C 
ATOM    150  O5  UAP d 301      -8.153  -3.577  54.757  0.00  0.00    -0.311 OA
ATOM    151  O2S UAP d 301      -8.204  -8.000  52.724  0.00  0.00    -0.572 OA
ATOM    152  O2  UAP d 301      -7.300  -5.985  54.077  0.00  0.00    -0.244 OA
ATOM    153  O3  UAP d 301      -4.649  -4.417  55.763  0.00  0.00    -0.389 OA
ATOM    154  S   UAP d 301      -7.059  -7.162  52.814  0.00  0.00     0.252 S 
ATOM    155  H   UAP d 301      -5.798  -6.030  55.983  0.00  0.00     0.093 H 
ATOM    156  H   UAP d 301      -5.474  -5.109  53.595  0.00  0.00     0.097 H 
ATOM    157  H   UAP d 301      -7.403  -3.664  52.876  0.00  0.00     0.134 H 
ATOM    158  H   UAP d 301      -6.745  -4.536  57.584  0.00  0.00     0.085 H 
ATOM    159  H   UAP d 301      -4.710  -3.492  55.476  0.00  0.00     0.210 HD
ENDROOT
TORSDOF 50
ENDMDL
MODEL 30
REMARK VINA RESULT:      -7.3      4.890     15.987
REMARK  0 active torsions:
REMARK  status: ('A' for Active; 'I' for Inactive)
REMARK       I    between atoms: C3_1  and  O3_85 
REMARK       I    between atoms: C6_2  and  C5_22 
REMARK       I    between atoms: C6_3  and  C5_14 
REMARK       I    between atoms: C6_3  and  O6_30 
REMARK       I    between atoms: C1_4  and  O1_84 
REMARK       I    between atoms: O2S_6  and  S1_45 
REMARK       I    between atoms: C1_7  and  O1_36 
REMARK       I    between atoms: S1_10  and  N_69 
REMARK       I    between atoms: S1_10  and  O1S_27 
REMARK       I    between atoms: S1_10  and  O2S_71 
REMARK       I    between atoms: S1_10  and  O3S_88 
REMARK       I    between atoms: O4_11  and  C1_42 
REMARK       I    between atoms: O4_11  and  C4_63 
REMARK       I    between atoms: O6_12  and  C6_94 
REMARK       I    between atoms: O6_12  and  S2_28 
REMARK       I    between atoms: C1_13  and  O4_51 
REMARK       I    between atoms: S2_16  and  O6_76 
REMARK       I    between atoms: C3_18  and  O3_103 
REMARK       I    between atoms: C1_19  and  O1_37 
REMARK       I    between atoms: O4_20  and  C1_23 
REMARK       I    between atoms: O4_20  and  C4_77 
REMARK       I    between atoms: O3S_21  and  S1_92 
REMARK       I    between atoms: C3_24  and  O3_87 
REMARK       I    between atoms: O3_25  and  C3_46 
REMARK       I    between atoms: C6_29  and  C5_79 
REMARK       I    between atoms: C6_29  and  O6_76 
REMARK       I    between atoms: O6_30  and  S2_31 
REMARK       I    between atoms: O1_36  and  C4_81 
REMARK       I    between atoms: C2_38  and  O2_72 
REMARK       I    between atoms: S1_45  and  N_74 
REMARK       I    between atoms: S1_45  and  O1S_75 
REMARK       I    between atoms: S1_45  and  O3S_101 
REMARK       I    between atoms: O1S_47  and  S1_92 
REMARK       I    between atoms: S_48  and  O2_91 
REMARK       I    between atoms: C5_49  and  C6_67 
REMARK       I    between atoms: O4_51  and  C4_57 
REMARK       I    between atoms: N_52  and  C2_73 
REMARK       I    between atoms: N_52  and  S1_92 
REMARK       I    between atoms: C5_53  and  C6_61 
REMARK       I    between atoms: C4_56  and  O1_84 
REMARK       I    between atoms: C2_62  and  O2_91 
REMARK       I    between atoms: S_66  and  O2_105 
REMARK       I    between atoms: O3_68  and  C3_102 
REMARK       I    between atoms: N_69  and  C2_83 
REMARK       I    between atoms: C3_70  and  O3_98 
REMARK       I    between atoms: O2_72  and  S_96 
REMARK       I    between atoms: N_74  and  C2_86 
REMARK       I    between atoms: O2S_80  and  S1_92 
REMARK       I    between atoms: C5_89  and  C6_94 
REMARK       I    between atoms: C2_104  and  O2_105 
ROOT
ATOM      1  C3  IDS d 305       3.638  -3.654  53.958  0.00  0.00     0.094 C 
ATOM      2  O3S IDS d 305       8.404  -3.374  54.593  0.00  0.00    -0.572 OA
ATOM      3  C1  IDS d 305       5.376  -2.776  52.460  0.00  0.00     0.161 C 
ATOM      4  O62 IDS d 305       2.118  -1.772  50.410  0.00  0.00    -0.646 OA
ATOM      5  O5  IDS d 305       4.208  -2.484  51.724  0.00  0.00    -0.340 OA
ATOM      6  O61 IDS d 305       1.526  -0.254  51.919  0.00  0.00    -0.646 OA
ATOM      7  O1S IDS d 305       7.437  -4.458  56.490  0.00  0.00    -0.572 OA
ATOM      8  C5  IDS d 305       3.333  -1.656  52.470  0.00  0.00     0.152 C 
ATOM      9  S   IDS d 305       7.207  -3.530  55.404  0.00  0.00     0.252 S 
ATOM     10  C6  IDS d 305       2.251  -1.178  51.512  0.00  0.00     0.206 C 
ATOM     11  C4  IDS d 305       2.712  -2.508  53.596  0.00  0.00     0.103 C 
ATOM     12  O3  IDS d 305       3.364  -4.067  55.257  0.00  0.00    -0.390 OA
ATOM     13  O2S IDS d 305       6.797  -2.261  55.932  0.00  0.00    -0.572 OA
ATOM     14  C2  IDS d 305       5.014  -3.092  53.919  0.00  0.00     0.134 C 
ATOM     15  O2  IDS d 305       5.858  -4.097  54.426  0.00  0.00    -0.244 OA
ATOM     16  H   IDS d 305       3.521  -4.484  53.293  0.00  0.00     0.091 H 
ATOM     17  H   IDS d 305       5.896  -3.626  52.067  0.00  0.00     0.133 H 
ATOM     18  H   IDS d 305       3.839  -0.818  52.904  0.00  0.00     0.104 H 
ATOM     19  H   IDS d 305       2.562  -1.860  54.435  0.00  0.00     0.092 H 
ATOM     20  H   IDS d 305       3.469  -3.317  55.863  0.00  0.00     0.210 HD
ATOM     21  H   IDS d 305       5.105  -2.192  54.491  0.00  0.00     0.097 H 
ATOM     22  C6  IDS d 303      -5.800  -4.660  52.815  0.00  0.00     0.206 C 
ATOM     23  O61 IDS d 303      -6.330  -5.460  52.057  0.00  0.00    -0.646 OA
ATOM     24  C5  IDS d 303      -5.213  -3.414  52.255  0.00  0.00     0.152 C 
ATOM     25  C1  IDS d 303      -3.915  -1.527  52.836  0.00  0.00     0.161 C 
ATOM     26  O3  IDS d 303      -4.371  -2.000  49.887  0.00  0.00    -0.390 OA
ATOM     27  O2S IDS d 303      -4.879   2.244  51.430  0.00  0.00    -0.572 OA
ATOM     28  O5  IDS d 303      -4.748  -2.584  53.327  0.00  0.00    -0.340 OA
ATOM     29  C3  IDS d 303      -5.351  -1.494  50.729  0.00  0.00     0.094 C 
ATOM     30  S   IDS d 303      -4.994   1.667  52.717  0.00  0.00     0.252 S 
ATOM     31  C4  IDS d 303      -6.175  -2.626  51.377  0.00  0.00     0.103 C 
ATOM     32  O1S IDS d 303      -5.944   2.327  53.524  0.00  0.00    -0.572 OA
ATOM     33  C2  IDS d 303      -4.673  -0.694  51.802  0.00  0.00     0.134 C 
ATOM     34  O3S IDS d 303      -3.692   1.719  53.269  0.00  0.00    -0.572 OA
ATOM     35  O2  IDS d 303      -5.579   0.083  52.447  0.00  0.00    -0.244 OA
ATOM     36  O62 IDS d 303      -5.537  -4.901  53.974  0.00  0.00    -0.646 OA
ATOM     37  H   IDS d 303      -4.402  -3.711  51.623  0.00  0.00     0.104 H 
ATOM     38  H   IDS d 303      -3.668  -0.897  53.666  0.00  0.00     0.133 H 
ATOM     39  H   IDS d 303      -3.871  -1.267  49.496  0.00  0.00     0.210 HD
ATOM     40  H   IDS d 303      -6.022  -0.886  50.161  0.00  0.00     0.091 H 
ATOM     41  H   IDS d 303      -6.642  -3.215  50.615  0.00  0.00     0.092 H 
ATOM     42  H   IDS d 303      -3.943  -0.103  51.290  0.00  0.00     0.097 H 
ATOM     43  C6  SGN d 306       8.117  -3.461  51.383  0.00  0.00     0.067 C 
ATOM     44  S1  SGN d 306       8.011   2.501  47.890  0.00  0.00     0.156 S 
ATOM     45  C5  SGN d 306       8.195  -1.953  51.219  0.00  0.00     0.091 C 
ATOM     46  C3  SGN d 306       6.799   0.078  50.818  0.00  0.00     0.083 C 
ATOM     47  C1  SGN d 306       9.043  -0.269  49.709  0.00  0.00     0.147 C 
ATOM     48  O1S SGN d 306       8.171   3.920  48.076  0.00  0.00    -0.296 OA
ATOM     49  O6  SGN d 306       7.121  -3.973  50.500  0.00  0.00    -0.254 OA
ATOM     50  S2  SGN d 306       7.107  -5.695  50.088  0.00  0.00     0.251 S 
ATOM     51  O4S SGN d 306       6.093  -6.385  50.836  0.00  0.00    -0.572 OA
ATOM     52  O1  SGN d 306       9.755   0.411  50.732  0.00  0.00    -0.369 OA
ATOM     53  O4  SGN d 306       6.157  -1.602  52.399  0.00  0.00    -0.348 OA
ATOM     54  C4  SGN d 306       6.778  -1.410  51.130  0.00  0.00     0.095 C 
ATOM     55  N   SGN d 306       7.804   1.768  49.479  0.00  0.00    -0.210 NA
ATOM     56  O2S SGN d 306       6.828   2.228  47.125  0.00  0.00    -0.296 OA
ATOM     57  O5  SGN d 306       8.915  -1.655  50.000  0.00  0.00    -0.350 OA
ATOM     58  O6S SGN d 306       6.813  -5.805  48.684  0.00  0.00    -0.572 OA
ATOM     59  C2  SGN d 306       7.646   0.332  49.577  0.00  0.00     0.081 C 
ATOM     60  O3S SGN d 306       9.177   1.961  47.239  0.00  0.00    -0.296 OA
ATOM     61  O5S SGN d 306       8.414  -6.244  50.353  0.00  0.00    -0.572 OA
ATOM     62  O3  SGN d 306       5.474   0.454  50.466  0.00  0.00    -0.391 OA
ATOM     63  H   SGN d 306       7.857  -3.700  52.393  0.00  0.00     0.080 H 
ATOM     64  H   SGN d 306       9.066  -3.900  51.153  0.00  0.00     0.080 H 
ATOM     65  H   SGN d 306       8.702  -1.504  52.048  0.00  0.00     0.090 H 
ATOM     66  H   SGN d 306       7.181   0.617  51.660  0.00  0.00     0.089 H 
ATOM     67  H   SGN d 306       9.591  -0.159  48.797  0.00  0.00     0.131 H 
ATOM     68  H   SGN d 306       7.383   4.279  48.515  0.00  0.00     0.231 HD
ATOM     69  H   SGN d 306       9.277   0.325  51.572  0.00  0.00     0.212 HD
ATOM     70  H   SGN d 306       6.245  -1.918  50.354  0.00  0.00     0.091 H 
ATOM     71  H   SGN d 306       6.973   2.189  49.896  0.00  0.00     0.140 HD
ATOM     72  H   SGN d 306       6.056   2.599  47.580  0.00  0.00     0.231 HD
ATOM     73  H   SGN d 306       7.169  -0.108  48.727  0.00  0.00     0.076 H 
ATOM     74  H   SGN d 306       9.964   2.156  47.773  0.00  0.00     0.231 HD
ATOM     75  H   SGN d 306       5.184  -0.065  49.700  0.00  0.00     0.210 HD
ATOM     76  C1  SGN d 302      -8.531  -2.374  51.935  0.00  0.00     0.150 C 
ATOM     77  O4  SGN d 302      -9.671  -2.079  55.916  0.00  0.00    -0.348 OA
ATOM     78  O6  SGN d 302     -10.807  -4.667  54.660  0.00  0.00    -0.254 OA
ATOM     79  O3S SGN d 302      -8.318  -0.482  49.445  0.00  0.00    -0.296 OA
ATOM     80  S2  SGN d 302     -11.547  -6.209  54.547  0.00  0.00     0.251 S 
ATOM     81  O5  SGN d 302      -9.017  -3.527  52.624  0.00  0.00    -0.349 OA
ATOM     82  O1S SGN d 302      -8.250   1.761  50.125  0.00  0.00    -0.296 OA
ATOM     83  O6S SGN d 302     -10.732  -7.017  53.680  0.00  0.00    -0.572 OA
ATOM     84  N   SGN d 302      -8.679  -0.014  51.947  0.00  0.00    -0.210 NA
ATOM     85  O5S SGN d 302     -11.540  -6.774  55.848  0.00  0.00    -0.572 OA
ATOM     86  C4  SGN d 302      -9.912  -2.297  54.525  0.00  0.00     0.095 C 
ATOM     87  O3  SGN d 302     -10.312   0.005  54.233  0.00  0.00    -0.391 OA
ATOM     88  C2  SGN d 302      -9.389  -1.185  52.366  0.00  0.00     0.081 C 
ATOM     89  O2S SGN d 302     -10.249   0.576  50.035  0.00  0.00    -0.296 OA
ATOM     90  O1  SGN d 302      -7.169  -2.088  52.247  0.00  0.00    -0.348 OA
ATOM     91  C5  SGN d 302      -8.982  -3.410  54.042  0.00  0.00     0.091 C 
ATOM     92  S1  SGN d 302      -8.880   0.495  50.299  0.00  0.00     0.156 S 
ATOM     93  C6  SGN d 302      -9.414  -4.716  54.600  0.00  0.00     0.067 C 
ATOM     94  O4S SGN d 302     -12.882  -6.049  54.101  0.00  0.00    -0.572 OA
ATOM     95  C3  SGN d 302      -9.432  -1.035  53.872  0.00  0.00     0.083 C 
ATOM     96  H   SGN d 302      -8.588  -2.557  50.883  0.00  0.00     0.131 H 
ATOM     97  H   SGN d 302      -7.366  -0.551  49.615  0.00  0.00     0.231 HD
ATOM     98  H   SGN d 302      -7.303   1.679  50.314  0.00  0.00     0.231 HD
ATOM     99  H   SGN d 302      -7.686  -0.189  52.094  0.00  0.00     0.140 HD
ATOM    100  H   SGN d 302     -10.932  -2.545  54.318  0.00  0.00     0.091 H 
ATOM    101  H   SGN d 302     -10.331   0.091  55.199  0.00  0.00     0.210 HD
ATOM    102  H   SGN d 302     -10.371  -1.318  51.964  0.00  0.00     0.076 H 
ATOM    103  H   SGN d 302     -10.385   0.860  49.118  0.00  0.00     0.231 HD
ATOM    104  H   SGN d 302      -7.994  -3.160  54.369  0.00  0.00     0.090 H 
ATOM    105  H   SGN d 302      -9.097  -5.515  53.962  0.00  0.00     0.080 H 
ATOM    106  H   SGN d 302      -8.986  -4.892  55.564  0.00  0.00     0.080 H 
ATOM    107  H   SGN d 302      -8.439  -0.814  54.201  0.00  0.00     0.089 H 
ATOM    108  O2S SGN d 304       1.032  -7.989  53.294  0.00  0.00    -0.296 OA
ATOM    109  C1  SGN d 304       0.653  -3.419  54.296  0.00  0.00     0.150 C 
ATOM    110  S2  SGN d 304      -2.183  -0.720  56.936  0.00  0.00     0.251 S 
ATOM    111  O4  SGN d 304      -2.682  -2.003  52.320  0.00  0.00    -0.348 OA
ATOM    112  C6  SGN d 304      -1.444  -0.342  54.283  0.00  0.00     0.067 C 
ATOM    113  O4S SGN d 304      -3.465  -0.112  56.761  0.00  0.00    -0.572 OA
ATOM    114  O1  SGN d 304       1.471  -3.064  53.199  0.00  0.00    -0.348 OA
ATOM    115  O5  SGN d 304      -0.057  -2.286  54.770  0.00  0.00    -0.349 OA
ATOM    116  S1  SGN d 304       0.775  -6.920  54.207  0.00  0.00     0.156 S 
ATOM    117  O5S SGN d 304      -1.645  -0.365  58.214  0.00  0.00    -0.572 OA
ATOM    118  C3  SGN d 304      -1.183  -3.844  52.709  0.00  0.00     0.083 C 
ATOM    119  N   SGN d 304       0.428  -5.506  53.199  0.00  0.00    -0.210 NA
ATOM    120  O1S SGN d 304       1.912  -6.692  55.056  0.00  0.00    -0.296 OA
ATOM    121  O6  SGN d 304      -1.102  -0.127  55.654  0.00  0.00    -0.254 OA
ATOM    122  C4  SGN d 304      -1.878  -2.626  53.302  0.00  0.00     0.095 C 
ATOM    123  C5  SGN d 304      -0.836  -1.640  53.773  0.00  0.00     0.091 C 
ATOM    124  C2  SGN d 304      -0.330  -4.441  53.789  0.00  0.00     0.081 C 
ATOM    125  O6S SGN d 304      -2.304  -2.153  56.854  0.00  0.00    -0.572 OA
ATOM    126  O3  SGN d 304      -2.112  -4.821  52.290  0.00  0.00    -0.391 OA
ATOM    127  O3S SGN d 304      -0.375  -7.224  55.019  0.00  0.00    -0.296 OA
ATOM    128  H   SGN d 304       1.808  -7.774  52.753  0.00  0.00     0.231 HD
ATOM    129  H   SGN d 304       1.247  -3.802  55.100  0.00  0.00     0.131 H 
ATOM    130  H   SGN d 304      -2.509  -0.392  54.190  0.00  0.00     0.080 H 
ATOM    131  H   SGN d 304      -1.058   0.470  53.702  0.00  0.00     0.080 H 
ATOM    132  H   SGN d 304      -0.611  -3.540  51.857  0.00  0.00     0.089 H 
ATOM    133  H   SGN d 304      -0.090  -5.833  52.383  0.00  0.00     0.140 HD
ATOM    134  H   SGN d 304       2.687  -6.488  54.510  0.00  0.00     0.231 HD
ATOM    135  H   SGN d 304      -2.492  -2.938  54.122  0.00  0.00     0.091 H 
ATOM    136  H   SGN d 304      -0.220  -1.351  52.947  0.00  0.00     0.090 H 
ATOM    137  H   SGN d 304      -0.949  -4.778  54.593  0.00  0.00     0.076 H 
ATOM    138  H   SGN d 304      -2.641  -5.110  53.050  0.00  0.00     0.210 HD
ATOM    139  H   SGN d 304      -1.143  -7.379  54.446  0.00  0.00     0.231 HD
ATOM    140  O1S UAP d 301     -10.940  -4.994  59.217  0.00  0.00    -0.572 OA
ATOM    141  C3  UAP d 301      -9.836  -0.768  58.517  0.00  0.00     0.086 C 
ATOM    142  O62 UAP d 301     -13.856   0.166  56.349  0.00  0.00    -0.642 OA
ATOM    143  C2  UAP d 301     -10.229  -2.196  58.234  0.00  0.00     0.135 C 
ATOM    144  O61 UAP d 301     -12.861   1.736  57.444  0.00  0.00    -0.642 OA
ATOM    145  C1  UAP d 301     -10.738  -2.360  56.818  0.00  0.00     0.167 C 
ATOM    146  C5  UAP d 301     -11.758  -0.202  57.126  0.00  0.00     0.147 C 
ATOM    147  C4  UAP d 301     -10.766   0.193  57.953  0.00  0.00    -0.034 C 
ATOM    148  O3S UAP d 301     -10.138  -3.661  61.000  0.00  0.00    -0.572 OA
ATOM    149  C6  UAP d 301     -12.836   0.612  56.924  0.00  0.00     0.233 C 
ATOM    150  O5  UAP d 301     -11.850  -1.488  56.667  0.00  0.00    -0.311 OA
ATOM    151  O2S UAP d 301     -12.457  -4.110  60.724  0.00  0.00    -0.572 OA
ATOM    152  O2  UAP d 301     -11.320  -2.484  59.058  0.00  0.00    -0.244 OA
ATOM    153  O3  UAP d 301      -8.526  -0.576  58.121  0.00  0.00    -0.389 OA
ATOM    154  S   UAP d 301     -11.210  -3.895  60.076  0.00  0.00     0.252 S 
ATOM    155  H   UAP d 301      -9.893  -0.589  59.571  0.00  0.00     0.093 H 
ATOM    156  H   UAP d 301      -9.378  -2.825  58.391  0.00  0.00     0.097 H 
ATOM    157  H   UAP d 301     -11.067  -3.356  56.605  0.00  0.00     0.134 H 
ATOM    158  H   UAP d 301     -10.669   1.193  58.188  0.00  0.00     0.085 H 
ATOM    159  H   UAP d 301      -8.450  -0.733  57.167  0.00  0.00     0.210 HD
ENDROOT
TORSDOF 50
ENDMDL
MODEL 31
REMARK VINA RESULT:      -7.3      3.948      6.825
REMARK  0 active torsions:
REMARK  status: ('A' for Active; 'I' for Inactive)
REMARK       I    between atoms: C3_1  and  O3_85 
REMARK       I    between atoms: C6_2  and  C5_22 
REMARK       I    between atoms: C6_3  and  C5_14 
REMARK       I    between atoms: C6_3  and  O6_30 
REMARK       I    between atoms: C1_4  and  O1_84 
REMARK       I    between atoms: O2S_6  and  S1_45 
REMARK       I    between atoms: C1_7  and  O1_36 
REMARK       I    between atoms: S1_10  and  N_69 
REMARK       I    between atoms: S1_10  and  O1S_27 
REMARK       I    between atoms: S1_10  and  O2S_71 
REMARK       I    between atoms: S1_10  and  O3S_88 
REMARK       I    between atoms: O4_11  and  C1_42 
REMARK       I    between atoms: O4_11  and  C4_63 
REMARK       I    between atoms: O6_12  and  C6_94 
REMARK       I    between atoms: O6_12  and  S2_28 
REMARK       I    between atoms: C1_13  and  O4_51 
REMARK       I    between atoms: S2_16  and  O6_76 
REMARK       I    between atoms: C3_18  and  O3_103 
REMARK       I    between atoms: C1_19  and  O1_37 
REMARK       I    between atoms: O4_20  and  C1_23 
REMARK       I    between atoms: O4_20  and  C4_77 
REMARK       I    between atoms: O3S_21  and  S1_92 
REMARK       I    between atoms: C3_24  and  O3_87 
REMARK       I    between atoms: O3_25  and  C3_46 
REMARK       I    between atoms: C6_29  and  C5_79 
REMARK       I    between atoms: C6_29  and  O6_76 
REMARK       I    between atoms: O6_30  and  S2_31 
REMARK       I    between atoms: O1_36  and  C4_81 
REMARK       I    between atoms: C2_38  and  O2_72 
REMARK       I    between atoms: S1_45  and  N_74 
REMARK       I    between atoms: S1_45  and  O1S_75 
REMARK       I    between atoms: S1_45  and  O3S_101 
REMARK       I    between atoms: O1S_47  and  S1_92 
REMARK       I    between atoms: S_48  and  O2_91 
REMARK       I    between atoms: C5_49  and  C6_67 
REMARK       I    between atoms: O4_51  and  C4_57 
REMARK       I    between atoms: N_52  and  C2_73 
REMARK       I    between atoms: N_52  and  S1_92 
REMARK       I    between atoms: C5_53  and  C6_61 
REMARK       I    between atoms: C4_56  and  O1_84 
REMARK       I    between atoms: C2_62  and  O2_91 
REMARK       I    between atoms: S_66  and  O2_105 
REMARK       I    between atoms: O3_68  and  C3_102 
REMARK       I    between atoms: N_69  and  C2_83 
REMARK       I    between atoms: C3_70  and  O3_98 
REMARK       I    between atoms: O2_72  and  S_96 
REMARK       I    between atoms: N_74  and  C2_86 
REMARK       I    between atoms: O2S_80  and  S1_92 
REMARK       I    between atoms: C5_89  and  C6_94 
REMARK       I    between atoms: C2_104  and  O2_105 
ROOT
ATOM      1  C3  IDS d 305      -4.358  -3.165  52.429  0.00  0.00     0.094 C 
ATOM      2  O3S IDS d 305      -8.182  -4.929  50.092  0.00  0.00    -0.572 OA
ATOM      3  C1  IDS d 305      -6.607  -2.216  52.149  0.00  0.00     0.161 C 
ATOM      4  O62 IDS d 305      -4.789   0.824  53.962  0.00  0.00    -0.646 OA
ATOM      5  O5  IDS d 305      -5.955  -1.175  52.846  0.00  0.00    -0.340 OA
ATOM      6  O61 IDS d 305      -3.521   1.242  52.187  0.00  0.00    -0.646 OA
ATOM      7  O1S IDS d 305      -6.405  -6.523  49.976  0.00  0.00    -0.572 OA
ATOM      8  C5  IDS d 305      -4.823  -0.717  52.128  0.00  0.00     0.152 C 
ATOM      9  S   IDS d 305      -6.740  -5.123  50.120  0.00  0.00     0.252 S 
ATOM     10  C6  IDS d 305      -4.356   0.562  52.809  0.00  0.00     0.206 C 
ATOM     11  C4  IDS d 305      -3.728  -1.800  52.219  0.00  0.00     0.103 C 
ATOM     12  O3  IDS d 305      -3.478  -4.145  51.984  0.00  0.00    -0.390 OA
ATOM     13  O2S IDS d 305      -6.118  -4.368  49.072  0.00  0.00    -0.572 OA
ATOM     14  C2  IDS d 305      -5.570  -3.190  51.569  0.00  0.00     0.134 C 
ATOM     15  O2  IDS d 305      -6.056  -4.509  51.621  0.00  0.00    -0.244 OA
ATOM     16  H   IDS d 305      -4.589  -3.341  53.459  0.00  0.00     0.091 H 
ATOM     17  H   IDS d 305      -7.256  -2.780  52.786  0.00  0.00     0.133 H 
ATOM     18  H   IDS d 305      -5.044  -0.528  51.098  0.00  0.00     0.104 H 
ATOM     19  H   IDS d 305      -3.180  -1.771  51.301  0.00  0.00     0.092 H 
ATOM     20  H   IDS d 305      -3.266  -3.988  51.051  0.00  0.00     0.210 HD
ATOM     21  H   IDS d 305      -5.362  -2.898  50.560  0.00  0.00     0.097 H 
ATOM     22  C6  IDS d 303       3.269  -0.070  57.293  0.00  0.00     0.206 C 
ATOM     23  O61 IDS d 303       3.350  -0.031  58.512  0.00  0.00    -0.646 OA
ATOM     24  C5  IDS d 303       2.486   0.979  56.586  0.00  0.00     0.152 C 
ATOM     25  C1  IDS d 303       1.654   1.585  54.459  0.00  0.00     0.161 C 
ATOM     26  O3  IDS d 303       0.587   3.136  56.823  0.00  0.00    -0.390 OA
ATOM     27  O2S IDS d 303       1.809   5.505  53.143  0.00  0.00    -0.572 OA
ATOM     28  O5  IDS d 303       2.617   0.798  55.171  0.00  0.00    -0.340 OA
ATOM     29  C3  IDS d 303       1.857   3.336  56.302  0.00  0.00     0.094 C 
ATOM     30  S   IDS d 303       2.545   4.359  52.759  0.00  0.00     0.252 S 
ATOM     31  C4  IDS d 303       2.890   2.398  56.961  0.00  0.00     0.103 C 
ATOM     32  O1S IDS d 303       3.772   4.683  52.145  0.00  0.00    -0.572 OA
ATOM     33  C2  IDS d 303       1.803   3.062  54.829  0.00  0.00     0.134 C 
ATOM     34  O3S IDS d 303       1.688   3.635  51.897  0.00  0.00    -0.572 OA
ATOM     35  O2  IDS d 303       2.913   3.552  54.222  0.00  0.00    -0.244 OA
ATOM     36  O62 IDS d 303       3.614  -1.020  56.623  0.00  0.00    -0.646 OA
ATOM     37  H   IDS d 303       1.468   0.864  56.894  0.00  0.00     0.104 H 
ATOM     38  H   IDS d 303       1.853   1.473  53.414  0.00  0.00     0.133 H 
ATOM     39  H   IDS d 303      -0.039   3.737  56.390  0.00  0.00     0.210 HD
ATOM     40  H   IDS d 303       2.161   4.343  56.496  0.00  0.00     0.091 H 
ATOM     41  H   IDS d 303       2.916   2.573  58.017  0.00  0.00     0.092 H 
ATOM     42  H   IDS d 303       0.918   3.554  54.485  0.00  0.00     0.097 H 
ATOM     43  C6  SGN d 306      -9.523  -2.998  52.297  0.00  0.00     0.067 C 
ATOM     44  S1  SGN d 306     -11.139   3.478  50.504  0.00  0.00     0.156 S 
ATOM     45  C5  SGN d 306      -9.667  -1.820  51.347  0.00  0.00     0.091 C 
ATOM     46  C3  SGN d 306      -8.645   0.374  50.732  0.00  0.00     0.083 C 
ATOM     47  C1  SGN d 306     -11.145   0.025  50.853  0.00  0.00     0.147 C 
ATOM     48  O1S SGN d 306     -11.180   4.355  49.363  0.00  0.00    -0.296 OA
ATOM     49  O6  SGN d 306      -9.099  -2.517  53.570  0.00  0.00    -0.254 OA
ATOM     50  S2  SGN d 306      -9.296  -3.532  55.008  0.00  0.00     0.251 S 
ATOM     51  O4S SGN d 306      -8.048  -4.141  55.372  0.00  0.00    -0.572 OA
ATOM     52  O1  SGN d 306     -11.254  -0.320  49.479  0.00  0.00    -0.369 OA
ATOM     53  O4  SGN d 306      -7.310  -1.580  51.104  0.00  0.00    -0.348 OA
ATOM     54  C4  SGN d 306      -8.478  -0.895  51.553  0.00  0.00     0.095 C 
ATOM     55  N   SGN d 306     -10.175   2.070  50.067  0.00  0.00    -0.210 NA
ATOM     56  O2S SGN d 306     -10.492   4.127  51.608  0.00  0.00    -0.296 OA
ATOM     57  O5  SGN d 306     -10.895  -1.121  51.656  0.00  0.00    -0.350 OA
ATOM     58  O6S SGN d 306      -9.737  -2.683  56.083  0.00  0.00    -0.572 OA
ATOM     59  C2  SGN d 306      -9.995   1.011  51.039  0.00  0.00     0.081 C 
ATOM     60  O3S SGN d 306     -12.477   3.078  50.858  0.00  0.00    -0.296 OA
ATOM     61  O5S SGN d 306     -10.303  -4.528  54.734  0.00  0.00    -0.572 OA
ATOM     62  O3  SGN d 306      -7.668   1.301  51.185  0.00  0.00    -0.391 OA
ATOM     63  H   SGN d 306      -8.798  -3.683  51.912  0.00  0.00     0.080 H 
ATOM     64  H   SGN d 306     -10.463  -3.500  52.394  0.00  0.00     0.080 H 
ATOM     65  H   SGN d 306      -9.695  -2.151  50.330  0.00  0.00     0.090 H 
ATOM     66  H   SGN d 306      -8.557   0.143  49.691  0.00  0.00     0.089 H 
ATOM     67  H   SGN d 306     -12.073   0.463  51.157  0.00  0.00     0.131 H 
ATOM     68  H   SGN d 306     -10.278   4.622  49.128  0.00  0.00     0.231 HD
ATOM     69  H   SGN d 306     -10.423  -0.720  49.179  0.00  0.00     0.212 HD
ATOM     70  H   SGN d 306      -8.402  -0.630  52.587  0.00  0.00     0.091 H 
ATOM     71  H   SGN d 306      -9.245   2.409  49.820  0.00  0.00     0.140 HD
ATOM     72  H   SGN d 306      -9.595   4.387  51.350  0.00  0.00     0.231 HD
ATOM     73  H   SGN d 306     -10.003   1.351  52.053  0.00  0.00     0.076 H 
ATOM     74  H   SGN d 306     -12.895   2.642  50.099  0.00  0.00     0.231 HD
ATOM     75  H   SGN d 306      -7.797   1.470  52.132  0.00  0.00     0.210 HD
ATOM     76  C1  SGN d 302       5.214   3.041  57.296  0.00  0.00     0.150 C 
ATOM     77  O4  SGN d 302       8.178   1.283  54.982  0.00  0.00    -0.348 OA
ATOM     78  O6  SGN d 302       8.532   0.507  57.955  0.00  0.00    -0.254 OA
ATOM     79  O3S SGN d 302       3.802   5.831  57.516  0.00  0.00    -0.296 OA
ATOM     80  S2  SGN d 302       9.113  -0.309  59.346  0.00  0.00     0.251 S 
ATOM     81  O5  SGN d 302       5.973   1.949  57.820  0.00  0.00    -0.349 OA
ATOM     82  O1S SGN d 302       4.089   7.051  55.534  0.00  0.00    -0.296 OA
ATOM     83  O6S SGN d 302       7.972  -0.661  60.149  0.00  0.00    -0.572 OA
ATOM     84  N   SGN d 302       5.358   4.814  55.739  0.00  0.00    -0.210 NA
ATOM     85  O5S SGN d 302       9.750  -1.496  58.901  0.00  0.00    -0.572 OA
ATOM     86  C4  SGN d 302       7.697   2.026  56.103  0.00  0.00     0.095 C 
ATOM     87  O3  SGN d 302       7.909   4.021  54.871  0.00  0.00    -0.391 OA
ATOM     88  C2  SGN d 302       6.177   3.944  56.529  0.00  0.00     0.081 C 
ATOM     89  O2S SGN d 302       5.776   6.903  57.128  0.00  0.00    -0.296 OA
ATOM     90  O1  SGN d 302       4.186   2.610  56.406  0.00  0.00    -0.348 OA
ATOM     91  C5  SGN d 302       6.646   1.184  56.827  0.00  0.00     0.091 C 
ATOM     92  S1  SGN d 302       4.717   6.230  56.514  0.00  0.00     0.156 S 
ATOM     93  C6  SGN d 302       7.292   0.041  57.518  0.00  0.00     0.067 C 
ATOM     94  O4S SGN d 302      10.052   0.518  60.009  0.00  0.00    -0.572 OA
ATOM     95  C3  SGN d 302       6.961   3.178  55.485  0.00  0.00     0.083 C 
ATOM     96  H   SGN d 302       4.741   3.548  58.111  0.00  0.00     0.131 H 
ATOM     97  H   SGN d 302       3.058   5.361  57.107  0.00  0.00     0.231 HD
ATOM     98  H   SGN d 302       3.359   6.562  55.124  0.00  0.00     0.231 HD
ATOM     99  H   SGN d 302       4.567   4.266  55.401  0.00  0.00     0.140 HD
ATOM    100  H   SGN d 302       8.479   2.308  56.777  0.00  0.00     0.091 H 
ATOM    101  H   SGN d 302       8.404   3.519  54.204  0.00  0.00     0.210 HD
ATOM    102  H   SGN d 302       6.830   4.413  57.234  0.00  0.00     0.076 H 
ATOM    103  H   SGN d 302       5.440   7.699  57.569  0.00  0.00     0.231 HD
ATOM    104  H   SGN d 302       5.950   0.844  56.087  0.00  0.00     0.090 H 
ATOM    105  H   SGN d 302       6.698  -0.273  58.351  0.00  0.00     0.080 H 
ATOM    106  H   SGN d 302       7.397  -0.802  56.867  0.00  0.00     0.080 H 
ATOM    107  H   SGN d 302       6.262   2.813  54.762  0.00  0.00     0.089 H 
ATOM    108  O2S SGN d 304      -2.440  -5.080  56.752  0.00  0.00    -0.296 OA
ATOM    109  C1  SGN d 304      -1.597  -2.194  53.146  0.00  0.00     0.150 C 
ATOM    110  S2  SGN d 304       2.185  -0.828  50.671  0.00  0.00     0.251 S 
ATOM    111  O4  SGN d 304       0.326   1.129  54.660  0.00  0.00    -0.348 OA
ATOM    112  C6  SGN d 304       0.229   0.772  51.831  0.00  0.00     0.067 C 
ATOM    113  O4S SGN d 304       3.214   0.150  50.838  0.00  0.00    -0.572 OA
ATOM    114  O1  SGN d 304      -2.849  -1.558  53.304  0.00  0.00    -0.348 OA
ATOM    115  O5  SGN d 304      -0.741  -1.406  52.335  0.00  0.00    -0.349 OA
ATOM    116  S1  SGN d 304      -1.761  -4.751  55.538  0.00  0.00     0.156 S 
ATOM    117  O5S SGN d 304       2.353  -1.504  49.420  0.00  0.00    -0.572 OA
ATOM    118  C3  SGN d 304      -0.791  -0.953  55.116  0.00  0.00     0.083 C 
ATOM    119  N   SGN d 304      -1.953  -3.001  55.345  0.00  0.00    -0.210 NA
ATOM    120  O1S SGN d 304      -2.326  -5.465  54.428  0.00  0.00    -0.296 OA
ATOM    121  O6  SGN d 304       0.614   0.004  50.688  0.00  0.00    -0.254 OA
ATOM    122  C4  SGN d 304       0.112  -0.178  54.166  0.00  0.00     0.095 C 
ATOM    123  C5  SGN d 304      -0.556  -0.082  52.815  0.00  0.00     0.091 C 
ATOM    124  C2  SGN d 304      -0.999  -2.315  54.523  0.00  0.00     0.081 C 
ATOM    125  O6S SGN d 304       2.244  -1.790  51.741  0.00  0.00    -0.572 OA
ATOM    126  O3  SGN d 304      -0.195  -1.111  56.386  0.00  0.00    -0.391 OA
ATOM    127  O3S SGN d 304      -0.361  -5.069  55.650  0.00  0.00    -0.296 OA
ATOM    128  H   SGN d 304      -3.382  -4.862  56.665  0.00  0.00     0.231 HD
ATOM    129  H   SGN d 304      -1.716  -3.150  52.678  0.00  0.00     0.131 H 
ATOM    130  H   SGN d 304       1.108   1.146  52.313  0.00  0.00     0.080 H 
ATOM    131  H   SGN d 304      -0.390   1.582  51.507  0.00  0.00     0.080 H 
ATOM    132  H   SGN d 304      -1.708  -0.417  55.242  0.00  0.00     0.089 H 
ATOM    133  H   SGN d 304      -1.910  -2.584  56.275  0.00  0.00     0.140 HD
ATOM    134  H   SGN d 304      -3.269  -5.252  54.352  0.00  0.00     0.231 HD
ATOM    135  H   SGN d 304       1.050  -0.687  54.081  0.00  0.00     0.091 H 
ATOM    136  H   SGN d 304      -1.500   0.413  52.918  0.00  0.00     0.090 H 
ATOM    137  H   SGN d 304      -0.063  -2.831  54.467  0.00  0.00     0.076 H 
ATOM    138  H   SGN d 304       0.640  -1.596  56.293  0.00  0.00     0.210 HD
ATOM    139  H   SGN d 304       0.021  -4.587  56.400  0.00  0.00     0.231 HD
ATOM    140  O1S UAP d 301      10.905  -2.384  55.329  0.00  0.00    -0.572 OA
ATOM    141  C3  UAP d 301       9.616   0.760  52.498  0.00  0.00     0.086 C 
ATOM    142  O62 UAP d 301      12.036   4.072  54.712  0.00  0.00    -0.642 OA
ATOM    143  C2  UAP d 301       9.811   0.011  53.792  0.00  0.00     0.135 C 
ATOM    144  O61 UAP d 301      11.721   4.243  52.585  0.00  0.00    -0.642 OA
ATOM    145  C1  UAP d 301       9.551   0.900  54.990  0.00  0.00     0.167 C 
ATOM    146  C5  UAP d 301      10.597   2.641  53.700  0.00  0.00     0.147 C 
ATOM    147  C4  UAP d 301      10.148   2.110  52.544  0.00  0.00    -0.034 C 
ATOM    148  O3S UAP d 301      11.097  -2.730  52.996  0.00  0.00    -0.572 OA
ATOM    149  C6  UAP d 301      11.437   3.718  53.670  0.00  0.00     0.233 C 
ATOM    150  O5  UAP d 301      10.445   2.000  54.900  0.00  0.00    -0.311 OA
ATOM    151  O2S UAP d 301      12.972  -2.120  54.325  0.00  0.00    -0.572 OA
ATOM    152  O2  UAP d 301      11.166  -0.322  53.864  0.00  0.00    -0.244 OA
ATOM    153  O3  UAP d 301       8.282   0.697  52.140  0.00  0.00    -0.389 OA
ATOM    154  S   UAP d 301      11.569  -1.997  54.135  0.00  0.00     0.252 S 
ATOM    155  H   UAP d 301      10.188   0.287  51.727  0.00  0.00     0.093 H 
ATOM    156  H   UAP d 301       9.147  -0.828  53.808  0.00  0.00     0.097 H 
ATOM    157  H   UAP d 301       9.726   0.405  55.923  0.00  0.00     0.134 H 
ATOM    158  H   UAP d 301      10.183   2.672  51.679  0.00  0.00     0.085 H 
ATOM    159  H   UAP d 301       7.743   1.121  52.826  0.00  0.00     0.210 HD
ENDROOT
TORSDOF 50
ENDMDL
MODEL 32
REMARK VINA RESULT:      -7.3      4.044      5.893
REMARK  0 active torsions:
REMARK  status: ('A' for Active; 'I' for Inactive)
REMARK       I    between atoms: C3_1  and  O3_85 
REMARK       I    between atoms: C6_2  and  C5_22 
REMARK       I    between atoms: C6_3  and  C5_14 
REMARK       I    between atoms: C6_3  and  O6_30 
REMARK       I    between atoms: C1_4  and  O1_84 
REMARK       I    between atoms: O2S_6  and  S1_45 
REMARK       I    between atoms: C1_7  and  O1_36 
REMARK       I    between atoms: S1_10  and  N_69 
REMARK       I    between atoms: S1_10  and  O1S_27 
REMARK       I    between atoms: S1_10  and  O2S_71 
REMARK       I    between atoms: S1_10  and  O3S_88 
REMARK       I    between atoms: O4_11  and  C1_42 
REMARK       I    between atoms: O4_11  and  C4_63 
REMARK       I    between atoms: O6_12  and  C6_94 
REMARK       I    between atoms: O6_12  and  S2_28 
REMARK       I    between atoms: C1_13  and  O4_51 
REMARK       I    between atoms: S2_16  and  O6_76 
REMARK       I    between atoms: C3_18  and  O3_103 
REMARK       I    between atoms: C1_19  and  O1_37 
REMARK       I    between atoms: O4_20  and  C1_23 
REMARK       I    between atoms: O4_20  and  C4_77 
REMARK       I    between atoms: O3S_21  and  S1_92 
REMARK       I    between atoms: C3_24  and  O3_87 
REMARK       I    between atoms: O3_25  and  C3_46 
REMARK       I    between atoms: C6_29  and  C5_79 
REMARK       I    between atoms: C6_29  and  O6_76 
REMARK       I    between atoms: O6_30  and  S2_31 
REMARK       I    between atoms: O1_36  and  C4_81 
REMARK       I    between atoms: C2_38  and  O2_72 
REMARK       I    between atoms: S1_45  and  N_74 
REMARK       I    between atoms: S1_45  and  O1S_75 
REMARK       I    between atoms: S1_45  and  O3S_101 
REMARK       I    between atoms: O1S_47  and  S1_92 
REMARK       I    between atoms: S_48  and  O2_91 
REMARK       I    between atoms: C5_49  and  C6_67 
REMARK       I    between atoms: O4_51  and  C4_57 
REMARK       I    between atoms: N_52  and  C2_73 
REMARK       I    between atoms: N_52  and  S1_92 
REMARK       I    between atoms: C5_53  and  C6_61 
REMARK       I    between atoms: C4_56  and  O1_84 
REMARK       I    between atoms: C2_62  and  O2_91 
REMARK       I    between atoms: S_66  and  O2_105 
REMARK       I    between atoms: O3_68  and  C3_102 
REMARK       I    between atoms: N_69  and  C2_83 
REMARK       I    between atoms: C3_70  and  O3_98 
REMARK       I    between atoms: O2_72  and  S_96 
REMARK       I    between atoms: N_74  and  C2_86 
REMARK       I    between atoms: O2S_80  and  S1_92 
REMARK       I    between atoms: C5_89  and  C6_94 
REMARK       I    between atoms: C2_104  and  O2_105 
ROOT
ATOM      1  C3  IDS d 305      -5.933   1.265  54.204  0.00  0.00     0.094 C 
ATOM      2  O3S IDS d 305     -10.523   1.159  55.659  0.00  0.00    -0.572 OA
ATOM      3  C1  IDS d 305      -7.801  -0.124  53.419  0.00  0.00     0.161 C 
ATOM      4  O62 IDS d 305      -4.810  -1.753  51.363  0.00  0.00    -0.646 OA
ATOM      5  O5  IDS d 305      -6.734  -0.645  52.657  0.00  0.00    -0.340 OA
ATOM      6  O61 IDS d 305      -3.896  -2.609  53.196  0.00  0.00    -0.646 OA
ATOM      7  O1S IDS d 305      -9.373   2.873  56.863  0.00  0.00    -0.572 OA
ATOM      8  C5  IDS d 305      -5.702  -1.132  53.497  0.00  0.00     0.152 C 
ATOM      9  S   IDS d 305      -9.236   1.618  56.157  0.00  0.00     0.252 S 
ATOM     10  C6  IDS d 305      -4.737  -1.907  52.610  0.00  0.00     0.206 C 
ATOM     11  C4  IDS d 305      -4.987   0.080  54.129  0.00  0.00     0.103 C 
ATOM     12  O3  IDS d 305      -5.505   2.126  55.208  0.00  0.00    -0.390 OA
ATOM     13  O2S IDS d 305      -8.661   0.634  57.028  0.00  0.00    -0.572 OA
ATOM     14  C2  IDS d 305      -7.255   0.705  54.591  0.00  0.00     0.134 C 
ATOM     15  O2  IDS d 305      -8.088   1.813  54.836  0.00  0.00    -0.244 OA
ATOM     16  H   IDS d 305      -5.975   1.799  53.278  0.00  0.00     0.091 H 
ATOM     17  H   IDS d 305      -8.433   0.516  52.839  0.00  0.00     0.133 H 
ATOM     18  H   IDS d 305      -6.076  -1.763  54.276  0.00  0.00     0.104 H 
ATOM     19  H   IDS d 305      -4.670  -0.216  55.107  0.00  0.00     0.092 H 
ATOM     20  H   IDS d 305      -5.466   1.645  56.050  0.00  0.00     0.210 HD
ATOM     21  H   IDS d 305      -7.196   0.073  55.452  0.00  0.00     0.097 H 
ATOM     22  C6  IDS d 303       3.140   1.938  51.266  0.00  0.00     0.206 C 
ATOM     23  O61 IDS d 303       3.494   2.416  50.198  0.00  0.00    -0.646 OA
ATOM     24  C5  IDS d 303       2.570   0.564  51.289  0.00  0.00     0.152 C 
ATOM     25  C1  IDS d 303       1.513  -1.004  52.707  0.00  0.00     0.161 C 
ATOM     26  O3  IDS d 303       1.500  -1.627  49.750  0.00  0.00    -0.390 OA
ATOM     27  O2S IDS d 303       2.537  -5.011  52.599  0.00  0.00    -0.572 OA
ATOM     28  O5  IDS d 303       2.328   0.173  52.647  0.00  0.00    -0.340 OA
ATOM     29  C3  IDS d 303       2.626  -1.776  50.547  0.00  0.00     0.094 C 
ATOM     30  S   IDS d 303       2.795  -4.005  53.560  0.00  0.00     0.252 S 
ATOM     31  C4  IDS d 303       3.451  -0.474  50.606  0.00  0.00     0.103 C 
ATOM     32  O1S IDS d 303       3.897  -4.311  54.383  0.00  0.00    -0.572 OA
ATOM     33  C2  IDS d 303       2.172  -2.143  51.928  0.00  0.00     0.134 C 
ATOM     34  O3S IDS d 303       1.594  -3.873  54.297  0.00  0.00    -0.572 OA
ATOM     35  O2  IDS d 303       3.216  -2.618  52.652  0.00  0.00    -0.244 OA
ATOM     36  O62 IDS d 303       3.030   2.578  52.289  0.00  0.00    -0.646 OA
ATOM     37  H   IDS d 303       1.657   0.599  50.733  0.00  0.00     0.104 H 
ATOM     38  H   IDS d 303       1.435  -1.293  53.734  0.00  0.00     0.133 H 
ATOM     39  H   IDS d 303       1.003  -2.459  49.732  0.00  0.00     0.210 HD
ATOM     40  H   IDS d 303       3.251  -2.539  50.131  0.00  0.00     0.091 H 
ATOM     41  H   IDS d 303       3.757  -0.194  49.620  0.00  0.00     0.092 H 
ATOM     42  H   IDS d 303       1.420  -2.891  51.786  0.00  0.00     0.097 H 
ATOM     43  C6  SGN d 306     -10.712   0.079  52.628  0.00  0.00     0.067 C 
ATOM     44  S1  SGN d 306     -10.676  -6.742  51.519  0.00  0.00     0.156 S 
ATOM     45  C5  SGN d 306     -10.702  -1.387  53.027  0.00  0.00     0.091 C 
ATOM     46  C3  SGN d 306      -9.233  -3.403  53.155  0.00  0.00     0.083 C 
ATOM     47  C1  SGN d 306     -11.634  -3.518  52.373  0.00  0.00     0.147 C 
ATOM     48  O1S SGN d 306     -10.702  -7.999  52.221  0.00  0.00    -0.296 OA
ATOM     49  O6  SGN d 306      -9.895   0.250  51.471  0.00  0.00    -0.254 OA
ATOM     50  S2  SGN d 306     -10.067   1.706  50.477  0.00  0.00     0.251 S 
ATOM     51  O4S SGN d 306      -9.009   2.636  50.756  0.00  0.00    -0.572 OA
ATOM     52  O1  SGN d 306     -12.138  -3.791  53.673  0.00  0.00    -0.369 OA
ATOM     53  O4  SGN d 306      -8.494  -1.252  53.908  0.00  0.00    -0.348 OA
ATOM     54  C4  SGN d 306      -9.277  -1.903  52.908  0.00  0.00     0.095 C 
ATOM     55  N   SGN d 306     -10.295  -5.480  52.687  0.00  0.00    -0.210 NA
ATOM     56  O2S SGN d 306      -9.640  -6.748  50.526  0.00  0.00    -0.296 OA
ATOM     57  O5  SGN d 306     -11.567  -2.119  52.127  0.00  0.00    -0.350 OA
ATOM     58  O6S SGN d 306      -9.989   1.303  49.098  0.00  0.00    -0.572 OA
ATOM     59  C2  SGN d 306     -10.231  -4.104  52.240  0.00  0.00     0.081 C 
ATOM     60  O3S SGN d 306     -11.960  -6.495  50.916  0.00  0.00    -0.296 OA
ATOM     61  O5S SGN d 306     -11.359   2.292  50.737  0.00  0.00    -0.572 OA
ATOM     62  O3  SGN d 306      -7.950  -3.860  52.750  0.00  0.00    -0.391 OA
ATOM     63  H   SGN d 306     -10.326   0.672  53.430  0.00  0.00     0.080 H 
ATOM     64  H   SGN d 306     -11.714   0.389  52.413  0.00  0.00     0.080 H 
ATOM     65  H   SGN d 306     -11.049  -1.512  54.031  0.00  0.00     0.090 H 
ATOM     66  H   SGN d 306      -9.449  -3.604  54.183  0.00  0.00     0.089 H 
ATOM     67  H   SGN d 306     -12.299  -3.961  51.662  0.00  0.00     0.131 H 
ATOM     68  H   SGN d 306      -9.835  -8.162  52.625  0.00  0.00     0.231 HD
ATOM     69  H   SGN d 306     -11.551  -3.399  54.337  0.00  0.00     0.212 HD
ATOM     70  H   SGN d 306      -8.901  -1.703  51.927  0.00  0.00     0.091 H 
ATOM     71  H   SGN d 306      -9.384  -5.706  53.086  0.00  0.00     0.140 HD
ATOM     72  H   SGN d 306      -8.785  -6.915  50.952  0.00  0.00     0.231 HD
ATOM     73  H   SGN d 306      -9.915  -3.995  51.223  0.00  0.00     0.076 H 
ATOM     74  H   SGN d 306     -12.645  -6.495  51.604  0.00  0.00     0.231 HD
ATOM     75  H   SGN d 306      -7.812  -3.649  51.813  0.00  0.00     0.210 HD
ATOM     76  C1  SGN d 302       5.874  -0.468  50.829  0.00  0.00     0.150 C 
ATOM     77  O4  SGN d 302       7.599   0.721  54.412  0.00  0.00    -0.348 OA
ATOM     78  O6  SGN d 302       8.346   2.694  52.152  0.00  0.00    -0.254 OA
ATOM     79  O3S SGN d 302       5.442  -3.138  49.245  0.00  0.00    -0.296 OA
ATOM     80  S2  SGN d 302       8.947   4.101  51.379  0.00  0.00     0.251 S 
ATOM     81  O5  SGN d 302       6.369   0.865  50.973  0.00  0.00    -0.349 OA
ATOM     82  O1S SGN d 302       5.638  -4.982  50.680  0.00  0.00    -0.296 OA
ATOM     83  O6S SGN d 302       7.958   4.526  50.424  0.00  0.00    -0.572 OA
ATOM     84  N   SGN d 302       6.196  -2.660  51.656  0.00  0.00    -0.210 NA
ATOM     85  O5S SGN d 302       9.088   5.101  52.376  0.00  0.00    -0.572 OA
ATOM     86  C4  SGN d 302       7.618   0.423  53.016  0.00  0.00     0.095 C 
ATOM     87  O3  SGN d 302       8.140  -1.820  53.502  0.00  0.00    -0.391 OA
ATOM     88  C2  SGN d 302       6.870  -1.405  51.509  0.00  0.00     0.081 C 
ATOM     89  O2S SGN d 302       7.511  -3.879  49.852  0.00  0.00    -0.296 OA
ATOM     90  O1  SGN d 302       4.597  -0.643  51.438  0.00  0.00    -0.348 OA
ATOM     91  C5  SGN d 302       6.549   1.270  52.326  0.00  0.00     0.091 C 
ATOM     92  S1  SGN d 302       6.192  -3.729  50.288  0.00  0.00     0.156 S 
ATOM     93  C6  SGN d 302       6.960   2.696  52.304  0.00  0.00     0.067 C 
ATOM     94  O4S SGN d 302      10.212   3.812  50.809  0.00  0.00    -0.572 OA
ATOM     95  C3  SGN d 302       7.143  -0.997  52.942  0.00  0.00     0.083 C 
ATOM     96  H   SGN d 302       5.764  -0.679  49.786  0.00  0.00     0.131 H 
ATOM     97  H   SGN d 302       4.522  -3.027  49.530  0.00  0.00     0.231 HD
ATOM     98  H   SGN d 302       4.725  -4.852  50.978  0.00  0.00     0.231 HD
ATOM     99  H   SGN d 302       5.224  -2.459  51.889  0.00  0.00     0.140 HD
ATOM    100  H   SGN d 302       8.576   0.596  52.572  0.00  0.00     0.091 H 
ATOM    101  H   SGN d 302       8.305  -1.550  54.419  0.00  0.00     0.210 HD
ATOM    102  H   SGN d 302       7.772  -1.412  50.933  0.00  0.00     0.076 H 
ATOM    103  H   SGN d 302       7.533  -4.474  49.087  0.00  0.00     0.231 HD
ATOM    104  H   SGN d 302       5.640   1.140  52.875  0.00  0.00     0.090 H 
ATOM    105  H   SGN d 302       6.496   3.204  51.483  0.00  0.00     0.080 H 
ATOM    106  H   SGN d 302       6.664   3.203  53.198  0.00  0.00     0.080 H 
ATOM    107  H   SGN d 302       6.227  -1.100  53.484  0.00  0.00     0.089 H 
ATOM    108  O2S SGN d 304      -3.776   5.104  51.627  0.00  0.00    -0.296 OA
ATOM    109  C1  SGN d 304      -2.922   1.216  54.116  0.00  0.00     0.150 C 
ATOM    110  S2  SGN d 304       0.458  -0.294  57.047  0.00  0.00     0.251 S 
ATOM    111  O4  SGN d 304       0.187  -0.767  52.261  0.00  0.00    -0.348 OA
ATOM    112  C6  SGN d 304      -0.629  -1.621  54.860  0.00  0.00     0.067 C 
ATOM    113  O4S SGN d 304       1.742  -0.903  56.895  0.00  0.00    -0.572 OA
ATOM    114  O1  SGN d 304      -3.861   0.474  53.365  0.00  0.00    -0.348 OA
ATOM    115  O5  SGN d 304      -2.069   0.344  54.841  0.00  0.00    -0.349 OA
ATOM    116  S1  SGN d 304      -3.312   4.444  52.807  0.00  0.00     0.156 S 
ATOM    117  O5S SGN d 304       0.139  -0.169  58.437  0.00  0.00    -0.572 OA
ATOM    118  C3  SGN d 304      -1.372   1.065  52.206  0.00  0.00     0.083 C 
ATOM    119  N   SGN d 304      -3.012   2.766  52.326  0.00  0.00    -0.210 NA
ATOM    120  O1S SGN d 304      -4.294   4.521  53.853  0.00  0.00    -0.296 OA
ATOM    121  O6  SGN d 304      -0.751  -1.329  56.254  0.00  0.00    -0.254 OA
ATOM    122  C4  SGN d 304      -0.510   0.158  53.073  0.00  0.00     0.095 C 
ATOM    123  C5  SGN d 304      -1.398  -0.607  54.026  0.00  0.00     0.091 C 
ATOM    124  C2  SGN d 304      -2.101   2.000  53.126  0.00  0.00     0.081 C 
ATOM    125  O6S SGN d 304       0.461   1.013  56.442  0.00  0.00    -0.572 OA
ATOM    126  O3  SGN d 304      -0.588   1.838  51.323  0.00  0.00    -0.391 OA
ATOM    127  O3S SGN d 304      -2.082   5.040  53.259  0.00  0.00    -0.296 OA
ATOM    128  H   SGN d 304      -4.605   4.695  51.332  0.00  0.00     0.231 HD
ATOM    129  H   SGN d 304      -3.419   1.856  54.815  0.00  0.00     0.131 H 
ATOM    130  H   SGN d 304       0.405  -1.591  54.584  0.00  0.00     0.080 H 
ATOM    131  H   SGN d 304      -1.034  -2.595  54.676  0.00  0.00     0.080 H 
ATOM    132  H   SGN d 304      -2.037   0.464  51.623  0.00  0.00     0.089 H 
ATOM    133  H   SGN d 304      -2.644   2.782  51.375  0.00  0.00     0.140 HD
ATOM    134  H   SGN d 304      -5.123   4.120  53.549  0.00  0.00     0.231 HD
ATOM    135  H   SGN d 304       0.191   0.756  53.617  0.00  0.00     0.091 H 
ATOM    136  H   SGN d 304      -2.104  -1.186  53.469  0.00  0.00     0.090 H 
ATOM    137  H   SGN d 304      -1.397   2.616  53.646  0.00  0.00     0.076 H 
ATOM    138  H   SGN d 304       0.023   2.392  51.833  0.00  0.00     0.210 HD
ATOM    139  H   SGN d 304      -1.419   4.989  52.553  0.00  0.00     0.231 HD
ATOM    140  O1S UAP d 301       9.115   4.656  56.208  0.00  0.00    -0.572 OA
ATOM    141  C3  UAP d 301       8.235   0.447  57.247  0.00  0.00     0.086 C 
ATOM    142  O62 UAP d 301      11.956  -1.146  54.933  0.00  0.00    -0.642 OA
ATOM    143  C2  UAP d 301       8.476   1.681  56.414  0.00  0.00     0.135 C 
ATOM    144  O61 UAP d 301      11.248  -2.226  56.661  0.00  0.00    -0.642 OA
ATOM    145  C1  UAP d 301       8.762   1.328  54.970  0.00  0.00     0.167 C 
ATOM    146  C5  UAP d 301       9.971  -0.555  55.857  0.00  0.00     0.147 C 
ATOM    147  C4  UAP d 301       9.142  -0.638  56.919  0.00  0.00    -0.034 C 
ATOM    148  O3S UAP d 301       8.680   4.049  58.453  0.00  0.00    -0.572 OA
ATOM    149  C6  UAP d 301      11.066  -1.369  55.787  0.00  0.00     0.233 C 
ATOM    150  O5  UAP d 301       9.901   0.479  54.962  0.00  0.00    -0.311 OA
ATOM    151  O2S UAP d 301      10.896   4.404  57.663  0.00  0.00    -0.572 OA
ATOM    152  O2  UAP d 301       9.652   2.266  56.893  0.00  0.00    -0.244 OA
ATOM    153  O3  UAP d 301       6.899   0.104  57.163  0.00  0.00    -0.389 OA
ATOM    154  S   UAP d 301       9.587   3.949  57.345  0.00  0.00     0.252 S 
ATOM    155  H   UAP d 301       8.458   0.665  58.271  0.00  0.00     0.093 H 
ATOM    156  H   UAP d 301       7.613   2.311  56.473  0.00  0.00     0.097 H 
ATOM    157  H   UAP d 301       8.982   2.183  54.366  0.00  0.00     0.134 H 
ATOM    158  H   UAP d 301       9.153  -1.486  57.507  0.00  0.00     0.085 H 
ATOM    159  H   UAP d 301       6.674  -0.097  56.241  0.00  0.00     0.210 HD
ENDROOT
TORSDOF 50
ENDMDL
MODEL 33
REMARK VINA RESULT:      -7.2      4.530     15.469
REMARK  0 active torsions:
REMARK  status: ('A' for Active; 'I' for Inactive)
REMARK       I    between atoms: C3_1  and  O3_85 
REMARK       I    between atoms: C6_2  and  C5_22 
REMARK       I    between atoms: C6_3  and  C5_14 
REMARK       I    between atoms: C6_3  and  O6_30 
REMARK       I    between atoms: C1_4  and  O1_84 
REMARK       I    between atoms: O2S_6  and  S1_45 
REMARK       I    between atoms: C1_7  and  O1_36 
REMARK       I    between atoms: S1_10  and  N_69 
REMARK       I    between atoms: S1_10  and  O1S_27 
REMARK       I    between atoms: S1_10  and  O2S_71 
REMARK       I    between atoms: S1_10  and  O3S_88 
REMARK       I    between atoms: O4_11  and  C1_42 
REMARK       I    between atoms: O4_11  and  C4_63 
REMARK       I    between atoms: O6_12  and  C6_94 
REMARK       I    between atoms: O6_12  and  S2_28 
REMARK       I    between atoms: C1_13  and  O4_51 
REMARK       I    between atoms: S2_16  and  O6_76 
REMARK       I    between atoms: C3_18  and  O3_103 
REMARK       I    between atoms: C1_19  and  O1_37 
REMARK       I    between atoms: O4_20  and  C1_23 
REMARK       I    between atoms: O4_20  and  C4_77 
REMARK       I    between atoms: O3S_21  and  S1_92 
REMARK       I    between atoms: C3_24  and  O3_87 
REMARK       I    between atoms: O3_25  and  C3_46 
REMARK       I    between atoms: C6_29  and  C5_79 
REMARK       I    between atoms: C6_29  and  O6_76 
REMARK       I    between atoms: O6_30  and  S2_31 
REMARK       I    between atoms: O1_36  and  C4_81 
REMARK       I    between atoms: C2_38  and  O2_72 
REMARK       I    between atoms: S1_45  and  N_74 
REMARK       I    between atoms: S1_45  and  O1S_75 
REMARK       I    between atoms: S1_45  and  O3S_101 
REMARK       I    between atoms: O1S_47  and  S1_92 
REMARK       I    between atoms: S_48  and  O2_91 
REMARK       I    between atoms: C5_49  and  C6_67 
REMARK       I    between atoms: O4_51  and  C4_57 
REMARK       I    between atoms: N_52  and  C2_73 
REMARK       I    between atoms: N_52  and  S1_92 
REMARK       I    between atoms: C5_53  and  C6_61 
REMARK       I    between atoms: C4_56  and  O1_84 
REMARK       I    between atoms: C2_62  and  O2_91 
REMARK       I    between atoms: S_66  and  O2_105 
REMARK       I    between atoms: O3_68  and  C3_102 
REMARK       I    between atoms: N_69  and  C2_83 
REMARK       I    between atoms: C3_70  and  O3_98 
REMARK       I    between atoms: O2_72  and  S_96 
REMARK       I    between atoms: N_74  and  C2_86 
REMARK       I    between atoms: O2S_80  and  S1_92 
REMARK       I    between atoms: C5_89  and  C6_94 
REMARK       I    between atoms: C2_104  and  O2_105 
ROOT
ATOM      1  C3  IDS d 305       2.779   2.193  55.199  0.00  0.00     0.094 C 
ATOM      2  O3S IDS d 305       6.938   4.623  55.191  0.00  0.00    -0.572 OA
ATOM      3  C1  IDS d 305       4.899   1.682  54.067  0.00  0.00     0.161 C 
ATOM      4  O62 IDS d 305       2.591  -1.187  52.557  0.00  0.00    -0.646 OA
ATOM      5  O5  IDS d 305       4.076   0.638  53.591  0.00  0.00    -0.340 OA
ATOM      6  O61 IDS d 305       1.393   0.269  51.384  0.00  0.00    -0.646 OA
ATOM      7  O1S IDS d 305       5.395   5.743  56.631  0.00  0.00    -0.572 OA
ATOM      8  C5  IDS d 305       2.940   1.155  52.920  0.00  0.00     0.152 C 
ATOM      9  S   IDS d 305       5.535   4.871  55.485  0.00  0.00     0.252 S 
ATOM     10  C6  IDS d 305       2.269  -0.018  52.218  0.00  0.00     0.206 C 
ATOM     11  C4  IDS d 305       1.992   1.758  53.977  0.00  0.00     0.103 C 
ATOM     12  O3  IDS d 305       2.063   3.176  55.874  0.00  0.00    -0.390 OA
ATOM     13  O2S IDS d 305       4.886   5.458  54.349  0.00  0.00    -0.572 OA
ATOM     14  C2  IDS d 305       4.036   2.795  54.679  0.00  0.00     0.134 C 
ATOM     15  O2  IDS d 305       4.684   3.360  55.792  0.00  0.00    -0.244 OA
ATOM     16  H   IDS d 305       2.967   1.376  55.863  0.00  0.00     0.091 H 
ATOM     17  H   IDS d 305       5.575   1.345  54.825  0.00  0.00     0.133 H 
ATOM     18  H   IDS d 305       3.198   1.912  52.209  0.00  0.00     0.104 H 
ATOM     19  H   IDS d 305       1.503   2.593  53.521  0.00  0.00     0.092 H 
ATOM     20  H   IDS d 305       1.892   3.919  55.275  0.00  0.00     0.210 HD
ATOM     21  H   IDS d 305       3.855   3.534  53.926  0.00  0.00     0.097 H 
ATOM     22  C6  IDS d 303      -5.473  -2.609  55.681  0.00  0.00     0.206 C 
ATOM     23  O61 IDS d 303      -5.635  -3.660  56.285  0.00  0.00    -0.646 OA
ATOM     24  C5  IDS d 303      -4.791  -2.632  54.359  0.00  0.00     0.152 C 
ATOM     25  C1  IDS d 303      -3.914  -1.222  52.677  0.00  0.00     0.161 C 
ATOM     26  O3  IDS d 303      -3.207  -4.154  52.492  0.00  0.00    -0.390 OA
ATOM     27  O2S IDS d 303      -4.495  -2.065  48.668  0.00  0.00    -0.572 OA
ATOM     28  O5  IDS d 303      -4.809  -1.315  53.793  0.00  0.00    -0.340 OA
ATOM     29  C3  IDS d 303      -4.457  -3.658  52.154  0.00  0.00     0.094 C 
ATOM     30  S   IDS d 303      -5.050  -1.068  49.505  0.00  0.00     0.252 S 
ATOM     31  C4  IDS d 303      -5.399  -3.622  53.375  0.00  0.00     0.103 C 
ATOM     32  O1S IDS d 303      -6.269  -0.561  49.009  0.00  0.00    -0.572 OA
ATOM     33  C2  IDS d 303      -4.276  -2.268  51.622  0.00  0.00     0.134 C 
ATOM     34  O3S IDS d 303      -4.054  -0.068  49.609  0.00  0.00    -0.572 OA
ATOM     35  O2  IDS d 303      -5.400  -1.865  50.978  0.00  0.00    -0.244 OA
ATOM     36  O62 IDS d 303      -5.649  -1.515  56.172  0.00  0.00    -0.646 OA
ATOM     37  H   IDS d 303      -3.787  -2.958  54.536  0.00  0.00     0.104 H 
ATOM     38  H   IDS d 303      -4.031  -0.249  52.248  0.00  0.00     0.133 H 
ATOM     39  H   IDS d 303      -2.639  -4.165  51.706  0.00  0.00     0.210 HD
ATOM     40  H   IDS d 303      -4.901  -4.297  51.419  0.00  0.00     0.091 H 
ATOM     41  H   IDS d 303      -5.512  -4.608  53.774  0.00  0.00     0.092 H 
ATOM     42  H   IDS d 303      -3.443  -2.330  50.954  0.00  0.00     0.097 H 
ATOM     43  C6  SGN d 306       7.877   1.601  54.577  0.00  0.00     0.067 C 
ATOM     44  S1  SGN d 306       8.746  -0.343  48.003  0.00  0.00     0.156 S 
ATOM     45  C5  SGN d 306       7.925   1.798  53.071  0.00  0.00     0.091 C 
ATOM     46  C3  SGN d 306       6.667   1.335  50.965  0.00  0.00     0.083 C 
ATOM     47  C1  SGN d 306       9.179   1.108  51.126  0.00  0.00     0.147 C 
ATOM     48  O1S SGN d 306       8.743   0.183  46.662  0.00  0.00    -0.296 OA
ATOM     49  O6  SGN d 306       7.315   0.321  54.859  0.00  0.00    -0.254 OA
ATOM     50  S2  SGN d 306       7.554  -0.416  56.452  0.00  0.00     0.251 S 
ATOM     51  O4S SGN d 306       6.375  -0.268  57.259  0.00  0.00    -0.572 OA
ATOM     52  O1  SGN d 306       9.417   2.442  50.701  0.00  0.00    -0.369 OA
ATOM     53  O4  SGN d 306       5.577   2.167  52.929  0.00  0.00    -0.348 OA
ATOM     54  C4  SGN d 306       6.616   1.296  52.484  0.00  0.00     0.095 C 
ATOM     55  N   SGN d 306       8.002   0.859  49.054  0.00  0.00    -0.210 NA
ATOM     56  O2S SGN d 306       7.952  -1.536  48.072  0.00  0.00    -0.296 OA
ATOM     57  O5  SGN d 306       9.030   1.032  52.538  0.00  0.00    -0.350 OA
ATOM     58  O6S SGN d 306       7.812  -1.817  56.249  0.00  0.00    -0.572 OA
ATOM     59  C2  SGN d 306       7.901   0.587  50.473  0.00  0.00     0.081 C 
ATOM     60  O3S SGN d 306      10.099  -0.603  48.420  0.00  0.00    -0.296 OA
ATOM     61  O5S SGN d 306       8.696   0.201  57.080  0.00  0.00    -0.572 OA
ATOM     62  O3  SGN d 306       5.551   0.596  50.486  0.00  0.00    -0.391 OA
ATOM     63  H   SGN d 306       7.272   2.364  55.020  0.00  0.00     0.080 H 
ATOM     64  H   SGN d 306       8.867   1.659  54.981  0.00  0.00     0.080 H 
ATOM     65  H   SGN d 306       8.059   2.831  52.826  0.00  0.00     0.090 H 
ATOM     66  H   SGN d 306       6.675   2.351  50.631  0.00  0.00     0.089 H 
ATOM     67  H   SGN d 306      10.021   0.514  50.836  0.00  0.00     0.131 H 
ATOM     68  H   SGN d 306       7.830   0.356  46.384  0.00  0.00     0.231 HD
ATOM     69  H   SGN d 306       8.665   3.001  50.953  0.00  0.00     0.212 HD
ATOM     70  H   SGN d 306       6.442   0.289  52.798  0.00  0.00     0.091 H 
ATOM     71  H   SGN d 306       7.053   1.010  48.711  0.00  0.00     0.140 HD
ATOM     72  H   SGN d 306       7.046  -1.340  47.787  0.00  0.00     0.231 HD
ATOM     73  H   SGN d 306       7.802  -0.452  50.706  0.00  0.00     0.076 H 
ATOM     74  H   SGN d 306      10.617   0.216  48.366  0.00  0.00     0.231 HD
ATOM     75  H   SGN d 306       5.598  -0.314  50.821  0.00  0.00     0.210 HD
ATOM     76  C1  SGN d 302      -7.802  -3.954  53.186  0.00  0.00     0.150 C 
ATOM     77  O4  SGN d 302     -10.363  -0.731  53.724  0.00  0.00    -0.348 OA
ATOM     78  O6  SGN d 302     -10.797  -2.834  55.950  0.00  0.00    -0.254 OA
ATOM     79  O3S SGN d 302      -6.782  -5.724  50.809  0.00  0.00    -0.296 OA
ATOM     80  S2  SGN d 302     -11.352  -3.538  57.411  0.00  0.00     0.251 S 
ATOM     81  O5  SGN d 302      -8.444  -3.757  54.448  0.00  0.00    -0.349 OA
ATOM     82  O1S SGN d 302      -7.101  -4.616  48.768  0.00  0.00    -0.296 OA
ATOM     83  O6S SGN d 302     -10.228  -4.183  58.035  0.00  0.00    -0.572 OA
ATOM     84  N   SGN d 302      -8.078  -3.505  50.881  0.00  0.00    -0.210 NA
ATOM     85  O5S SGN d 302     -11.801  -2.480  58.243  0.00  0.00    -0.572 OA
ATOM     86  C4  SGN d 302     -10.053  -2.122  53.632  0.00  0.00     0.095 C 
ATOM     87  O3  SGN d 302     -10.446  -2.055  51.311  0.00  0.00    -0.391 OA
ATOM     88  C2  SGN d 302      -8.825  -3.640  52.096  0.00  0.00     0.081 C 
ATOM     89  O2S SGN d 302      -8.850  -5.699  49.852  0.00  0.00    -0.296 OA
ATOM     90  O1  SGN d 302      -6.674  -3.099  53.011  0.00  0.00    -0.348 OA
ATOM     91  C5  SGN d 302      -8.949  -2.440  54.640  0.00  0.00     0.091 C 
ATOM     92  S1  SGN d 302      -7.677  -4.961  50.024  0.00  0.00     0.156 S 
ATOM     93  C6  SGN d 302      -9.482  -2.374  56.023  0.00  0.00     0.067 C 
ATOM     94  O4S SGN d 302     -12.431  -4.411  57.123  0.00  0.00    -0.572 OA
ATOM     95  C3  SGN d 302      -9.437  -2.266  52.272  0.00  0.00     0.083 C 
ATOM     96  H   SGN d 302      -7.451  -4.963  53.137  0.00  0.00     0.131 H 
ATOM     97  H   SGN d 302      -5.960  -5.226  50.939  0.00  0.00     0.231 HD
ATOM     98  H   SGN d 302      -6.290  -4.105  48.915  0.00  0.00     0.231 HD
ATOM     99  H   SGN d 302      -7.204  -3.034  51.111  0.00  0.00     0.140 HD
ATOM    100  H   SGN d 302     -10.906  -2.746  53.802  0.00  0.00     0.091 H 
ATOM    101  H   SGN d 302     -10.829  -1.172  51.434  0.00  0.00     0.210 HD
ATOM    102  H   SGN d 302      -9.577  -4.402  52.113  0.00  0.00     0.076 H 
ATOM    103  H   SGN d 302      -8.649  -6.519  49.374  0.00  0.00     0.231 HD
ATOM    104  H   SGN d 302      -8.170  -1.721  54.492  0.00  0.00     0.090 H 
ATOM    105  H   SGN d 302      -8.905  -2.997  56.674  0.00  0.00     0.080 H 
ATOM    106  H   SGN d 302      -9.437  -1.378  56.413  0.00  0.00     0.080 H 
ATOM    107  H   SGN d 302      -8.653  -1.549  52.154  0.00  0.00     0.089 H 
ATOM    108  O2S SGN d 304       0.862  -0.297  59.218  0.00  0.00    -0.296 OA
ATOM    109  C1  SGN d 304      -0.123   1.422  54.962  0.00  0.00     0.150 C 
ATOM    110  S2  SGN d 304      -3.890   3.298  52.819  0.00  0.00     0.251 S 
ATOM    111  O4  SGN d 304      -2.553  -1.323  53.065  0.00  0.00    -0.348 OA
ATOM    112  C6  SGN d 304      -2.235   1.263  51.899  0.00  0.00     0.067 C 
ATOM    113  O4S SGN d 304      -5.045   2.784  52.153  0.00  0.00    -0.572 OA
ATOM    114  O1  SGN d 304       1.023   0.815  54.401  0.00  0.00    -0.348 OA
ATOM    115  O5  SGN d 304      -1.023   1.819  53.938  0.00  0.00    -0.349 OA
ATOM    116  S1  SGN d 304       0.222   0.655  58.364  0.00  0.00     0.156 S 
ATOM    117  O5S SGN d 304      -3.890   4.729  52.762  0.00  0.00    -0.572 OA
ATOM    118  C3  SGN d 304      -1.206  -0.792  54.986  0.00  0.00     0.083 C 
ATOM    119  N   SGN d 304       0.197  -0.090  56.757  0.00  0.00    -0.210 NA
ATOM    120  O1S SGN d 304       0.944   1.897  58.354  0.00  0.00    -0.296 OA
ATOM    121  O6  SGN d 304      -2.444   2.674  51.994  0.00  0.00    -0.254 OA
ATOM    122  C4  SGN d 304      -2.141  -0.264  53.906  0.00  0.00     0.095 C 
ATOM    123  C5  SGN d 304      -1.408   0.760  53.073  0.00  0.00     0.091 C 
ATOM    124  C2  SGN d 304      -0.786   0.380  55.824  0.00  0.00     0.081 C 
ATOM    125  O6S SGN d 304      -3.890   2.879  54.197  0.00  0.00    -0.572 OA
ATOM    126  O3  SGN d 304      -1.853  -1.724  55.824  0.00  0.00    -0.391 OA
ATOM    127  O3S SGN d 304      -1.129   0.889  58.805  0.00  0.00    -0.296 OA
ATOM    128  H   SGN d 304       1.770  -0.446  58.912  0.00  0.00     0.231 HD
ATOM    129  H   SGN d 304       0.147   2.291  55.525  0.00  0.00     0.131 H 
ATOM    130  H   SGN d 304      -3.183   0.767  51.899  0.00  0.00     0.080 H 
ATOM    131  H   SGN d 304      -1.707   1.054  50.992  0.00  0.00     0.080 H 
ATOM    132  H   SGN d 304      -0.375  -1.281  54.521  0.00  0.00     0.089 H 
ATOM    133  H   SGN d 304       0.042  -1.090  56.887  0.00  0.00     0.140 HD
ATOM    134  H   SGN d 304       1.854   1.740  58.058  0.00  0.00     0.231 HD
ATOM    135  H   SGN d 304      -2.997   0.179  54.371  0.00  0.00     0.091 H 
ATOM    136  H   SGN d 304      -0.545   0.308  52.629  0.00  0.00     0.090 H 
ATOM    137  H   SGN d 304      -1.641   0.801  56.309  0.00  0.00     0.076 H 
ATOM    138  H   SGN d 304      -2.611  -1.299  56.256  0.00  0.00     0.210 HD
ATOM    139  H   SGN d 304      -1.616   0.051  58.812  0.00  0.00     0.231 HD
ATOM    140  O1S UAP d 301     -12.606   1.158  57.246  0.00  0.00    -0.572 OA
ATOM    141  C3  UAP d 301     -11.563   1.828  53.000  0.00  0.00     0.086 C 
ATOM    142  O62 UAP d 301     -14.527  -1.449  51.514  0.00  0.00    -0.642 OA
ATOM    143  C2  UAP d 301     -11.739   1.125  54.323  0.00  0.00     0.135 C 
ATOM    144  O61 UAP d 301     -14.105   0.243  50.244  0.00  0.00    -0.642 OA
ATOM    145  C1  UAP d 301     -11.672  -0.379  54.164  0.00  0.00     0.167 C 
ATOM    146  C5  UAP d 301     -12.854  -0.033  52.096  0.00  0.00     0.147 C 
ATOM    147  C4  UAP d 301     -12.268   1.169  51.915  0.00  0.00    -0.034 C 
ATOM    148  O3S UAP d 301     -12.606   3.348  56.351  0.00  0.00    -0.572 OA
ATOM    149  C6  UAP d 301     -13.823  -0.452  51.229  0.00  0.00     0.233 C 
ATOM    150  O5  UAP d 301     -12.694  -0.752  53.251  0.00  0.00    -0.311 OA
ATOM    151  O2S UAP d 301     -14.624   2.130  56.667  0.00  0.00    -0.572 OA
ATOM    152  O2  UAP d 301     -13.041   1.396  54.752  0.00  0.00    -0.244 OA
ATOM    153  O3  UAP d 301     -10.213   2.005  52.763  0.00  0.00    -0.389 OA
ATOM    154  S   UAP d 301     -13.239   2.061  56.352  0.00  0.00     0.252 S 
ATOM    155  H   UAP d 301     -12.020   2.794  53.051  0.00  0.00     0.093 H 
ATOM    156  H   UAP d 301     -10.974   1.457  54.993  0.00  0.00     0.097 H 
ATOM    157  H   UAP d 301     -11.840  -0.903  55.082  0.00  0.00     0.134 H 
ATOM    158  H   UAP d 301     -12.322   1.627  50.993  0.00  0.00     0.085 H 
ATOM    159  H   UAP d 301      -9.777   1.140  52.713  0.00  0.00     0.210 HD
ENDROOT
TORSDOF 50
ENDMDL
MODEL 34
REMARK VINA RESULT:      -7.2      3.019      5.340
REMARK  0 active torsions:
REMARK  status: ('A' for Active; 'I' for Inactive)
REMARK       I    between atoms: C3_1  and  O3_85 
REMARK       I    between atoms: C6_2  and  C5_22 
REMARK       I    between atoms: C6_3  and  C5_14 
REMARK       I    between atoms: C6_3  and  O6_30 
REMARK       I    between atoms: C1_4  and  O1_84 
REMARK       I    between atoms: O2S_6  and  S1_45 
REMARK       I    between atoms: C1_7  and  O1_36 
REMARK       I    between atoms: S1_10  and  N_69 
REMARK       I    between atoms: S1_10  and  O1S_27 
REMARK       I    between atoms: S1_10  and  O2S_71 
REMARK       I    between atoms: S1_10  and  O3S_88 
REMARK       I    between atoms: O4_11  and  C1_42 
REMARK       I    between atoms: O4_11  and  C4_63 
REMARK       I    between atoms: O6_12  and  C6_94 
REMARK       I    between atoms: O6_12  and  S2_28 
REMARK       I    between atoms: C1_13  and  O4_51 
REMARK       I    between atoms: S2_16  and  O6_76 
REMARK       I    between atoms: C3_18  and  O3_103 
REMARK       I    between atoms: C1_19  and  O1_37 
REMARK       I    between atoms: O4_20  and  C1_23 
REMARK       I    between atoms: O4_20  and  C4_77 
REMARK       I    between atoms: O3S_21  and  S1_92 
REMARK       I    between atoms: C3_24  and  O3_87 
REMARK       I    between atoms: O3_25  and  C3_46 
REMARK       I    between atoms: C6_29  and  C5_79 
REMARK       I    between atoms: C6_29  and  O6_76 
REMARK       I    between atoms: O6_30  and  S2_31 
REMARK       I    between atoms: O1_36  and  C4_81 
REMARK       I    between atoms: C2_38  and  O2_72 
REMARK       I    between atoms: S1_45  and  N_74 
REMARK       I    between atoms: S1_45  and  O1S_75 
REMARK       I    between atoms: S1_45  and  O3S_101 
REMARK       I    between atoms: O1S_47  and  S1_92 
REMARK       I    between atoms: S_48  and  O2_91 
REMARK       I    between atoms: C5_49  and  C6_67 
REMARK       I    between atoms: O4_51  and  C4_57 
REMARK       I    between atoms: N_52  and  C2_73 
REMARK       I    between atoms: N_52  and  S1_92 
REMARK       I    between atoms: C5_53  and  C6_61 
REMARK       I    between atoms: C4_56  and  O1_84 
REMARK       I    between atoms: C2_62  and  O2_91 
REMARK       I    between atoms: S_66  and  O2_105 
REMARK       I    between atoms: O3_68  and  C3_102 
REMARK       I    between atoms: N_69  and  C2_83 
REMARK       I    between atoms: C3_70  and  O3_98 
REMARK       I    between atoms: O2_72  and  S_96 
REMARK       I    between atoms: N_74  and  C2_86 
REMARK       I    between atoms: O2S_80  and  S1_92 
REMARK       I    between atoms: C5_89  and  C6_94 
REMARK       I    between atoms: C2_104  and  O2_105 
ROOT
ATOM      1  C3  IDS d 305      -1.179   5.422  53.619  0.00  0.00     0.094 C 
ATOM      2  O3S IDS d 305      -4.379   8.647  55.219  0.00  0.00    -0.572 OA
ATOM      3  C1  IDS d 305      -3.633   5.384  53.524  0.00  0.00     0.161 C 
ATOM      4  O62 IDS d 305      -2.825   1.751  52.119  0.00  0.00    -0.646 OA
ATOM      5  O5  IDS d 305      -3.319   4.124  52.974  0.00  0.00    -0.340 OA
ATOM      6  O61 IDS d 305      -2.094   1.051  54.096  0.00  0.00    -0.646 OA
ATOM      7  O1S IDS d 305      -2.176   9.489  55.609  0.00  0.00    -0.572 OA
ATOM      8  C5  IDS d 305      -2.563   3.346  53.886  0.00  0.00     0.152 C 
ATOM      9  S   IDS d 305      -2.983   8.300  55.438  0.00  0.00     0.252 S 
ATOM     10  C6  IDS d 305      -2.508   1.933  53.324  0.00  0.00     0.206 C 
ATOM     11  C4  IDS d 305      -1.144   3.945  53.964  0.00  0.00     0.103 C 
ATOM     12  O3  IDS d 305      -0.076   6.048  54.190  0.00  0.00    -0.390 OA
ATOM     13  O2S IDS d 305      -2.856   7.461  56.594  0.00  0.00    -0.572 OA
ATOM     14  C2  IDS d 305      -2.411   5.959  54.256  0.00  0.00     0.134 C 
ATOM     15  O2  IDS d 305      -2.355   7.355  54.092  0.00  0.00    -0.244 OA
ATOM     16  H   IDS d 305      -1.166   5.584  52.562  0.00  0.00     0.091 H 
ATOM     17  H   IDS d 305      -3.919   6.090  52.773  0.00  0.00     0.133 H 
ATOM     18  H   IDS d 305      -2.994   3.338  54.866  0.00  0.00     0.104 H 
ATOM     19  H   IDS d 305      -0.794   3.796  54.964  0.00  0.00     0.092 H 
ATOM     20  H   IDS d 305      -0.084   5.905  55.149  0.00  0.00     0.210 HD
ATOM     21  H   IDS d 305      -2.484   5.698  55.291  0.00  0.00     0.097 H 
ATOM     22  C6  IDS d 303       5.393  -0.633  50.220  0.00  0.00     0.206 C 
ATOM     23  O61 IDS d 303       5.640  -0.801  49.035  0.00  0.00    -0.646 OA
ATOM     24  C5  IDS d 303       4.176  -1.261  50.802  0.00  0.00     0.152 C 
ATOM     25  C1  IDS d 303       2.863  -1.342  52.764  0.00  0.00     0.161 C 
ATOM     26  O3  IDS d 303       1.671  -2.591  50.285  0.00  0.00    -0.390 OA
ATOM     27  O2S IDS d 303       1.341  -4.924  54.170  0.00  0.00    -0.572 OA
ATOM     28  O5  IDS d 303       4.147  -1.022  52.214  0.00  0.00    -0.340 OA
ATOM     29  C3  IDS d 303       2.679  -3.195  51.022  0.00  0.00     0.094 C 
ATOM     30  S   IDS d 303       2.382  -4.097  54.652  0.00  0.00     0.252 S 
ATOM     31  C4  IDS d 303       4.074  -2.757  50.533  0.00  0.00     0.103 C 
ATOM     32  O1S IDS d 303       3.291  -4.792  55.476  0.00  0.00    -0.572 OA
ATOM     33  C2  IDS d 303       2.505  -2.797  52.458  0.00  0.00     0.134 C 
ATOM     34  O3S IDS d 303       1.736  -3.040  55.336  0.00  0.00    -0.572 OA
ATOM     35  O2  IDS d 303       3.244  -3.605  53.258  0.00  0.00    -0.244 OA
ATOM     36  O62 IDS d 303       5.960   0.180  50.920  0.00  0.00    -0.646 OA
ATOM     37  H   IDS d 303       3.335  -0.810  50.320  0.00  0.00     0.104 H 
ATOM     38  H   IDS d 303       2.926  -1.223  53.826  0.00  0.00     0.133 H 
ATOM     39  H   IDS d 303       0.808  -2.885  50.615  0.00  0.00     0.210 HD
ATOM     40  H   IDS d 303       2.611  -4.256  50.905  0.00  0.00     0.091 H 
ATOM     41  H   IDS d 303       4.195  -3.017  49.502  0.00  0.00     0.092 H 
ATOM     42  H   IDS d 303       1.459  -2.903  52.653  0.00  0.00     0.097 H 
ATOM     43  C6  SGN d 306      -5.988   7.158  52.856  0.00  0.00     0.067 C 
ATOM     44  S1  SGN d 306     -10.157   1.890  54.477  0.00  0.00     0.156 S 
ATOM     45  C5  SGN d 306      -6.704   6.198  53.791  0.00  0.00     0.091 C 
ATOM     46  C3  SGN d 306      -6.682   3.843  54.620  0.00  0.00     0.083 C 
ATOM     47  C1  SGN d 306      -8.821   5.066  54.060  0.00  0.00     0.147 C 
ATOM     48  O1S SGN d 306     -10.697   1.187  55.612  0.00  0.00    -0.296 OA
ATOM     49  O6  SGN d 306      -5.583   6.451  51.686  0.00  0.00    -0.254 OA
ATOM     50  S2  SGN d 306      -5.165   7.344  50.215  0.00  0.00     0.251 S 
ATOM     51  O4S SGN d 306      -3.740   7.424  50.061  0.00  0.00    -0.572 OA
ATOM     52  O1  SGN d 306      -9.003   5.541  55.386  0.00  0.00    -0.369 OA
ATOM     53  O4  SGN d 306      -4.675   5.138  54.444  0.00  0.00    -0.348 OA
ATOM     54  C4  SGN d 306      -5.930   4.890  53.814  0.00  0.00     0.095 C 
ATOM     55  N   SGN d 306      -8.816   2.882  55.045  0.00  0.00    -0.210 NA
ATOM     56  O2S SGN d 306      -9.637   0.960  53.516  0.00  0.00    -0.296 OA
ATOM     57  O5  SGN d 306      -8.041   5.971  53.288  0.00  0.00    -0.350 OA
ATOM     58  O6S SGN d 306      -5.720   6.627  49.098  0.00  0.00    -0.572 OA
ATOM     59  C2  SGN d 306      -8.108   3.717  54.097  0.00  0.00     0.081 C 
ATOM     60  O3S SGN d 306     -11.177   2.719  53.888  0.00  0.00    -0.296 OA
ATOM     61  O5S SGN d 306      -5.757   8.657  50.289  0.00  0.00    -0.572 OA
ATOM     62  O3  SGN d 306      -6.064   2.589  54.363  0.00  0.00    -0.391 OA
ATOM     63  H   SGN d 306      -5.128   7.562  53.347  0.00  0.00     0.080 H 
ATOM     64  H   SGN d 306      -6.646   7.959  52.587  0.00  0.00     0.080 H 
ATOM     65  H   SGN d 306      -6.763   6.601  54.781  0.00  0.00     0.090 H 
ATOM     66  H   SGN d 306      -6.675   4.113  55.655  0.00  0.00     0.089 H 
ATOM     67  H   SGN d 306      -9.786   4.972  53.608  0.00  0.00     0.131 H 
ATOM     68  H   SGN d 306     -10.006   0.631  56.006  0.00  0.00     0.231 HD
ATOM     69  H   SGN d 306      -8.139   5.635  55.818  0.00  0.00     0.212 HD
ATOM     70  H   SGN d 306      -5.801   4.530  52.815  0.00  0.00     0.091 H 
ATOM     71  H   SGN d 306      -8.130   2.250  55.456  0.00  0.00     0.140 HD
ATOM     72  H   SGN d 306      -8.953   0.414  53.931  0.00  0.00     0.231 HD
ATOM     73  H   SGN d 306      -8.087   3.320  53.104  0.00  0.00     0.076 H 
ATOM     74  H   SGN d 306     -11.514   3.339  54.553  0.00  0.00     0.231 HD
ATOM     75  H   SGN d 306      -6.100   2.399  53.412  0.00  0.00     0.210 HD
ATOM     76  C1  SGN d 302       6.013  -4.226  50.620  0.00  0.00     0.150 C 
ATOM     77  O4  SGN d 302       9.026  -3.480  53.376  0.00  0.00    -0.348 OA
ATOM     78  O6  SGN d 302      10.095  -3.139  50.494  0.00  0.00    -0.254 OA
ATOM     79  O3S SGN d 302       3.714  -6.319  50.217  0.00  0.00    -0.296 OA
ATOM     80  S2  SGN d 302      11.144  -2.710  49.209  0.00  0.00     0.251 S 
ATOM     81  O5  SGN d 302       7.195  -3.534  50.213  0.00  0.00    -0.349 OA
ATOM     82  O1S SGN d 302       3.217  -7.388  52.243  0.00  0.00    -0.296 OA
ATOM     83  O6S SGN d 302      10.355  -2.036  48.212  0.00  0.00    -0.572 OA
ATOM     84  N   SGN d 302       5.244  -5.793  52.215  0.00  0.00    -0.210 NA
ATOM     85  O5S SGN d 302      12.102  -1.803  49.732  0.00  0.00    -0.572 OA
ATOM     86  C4  SGN d 302       8.480  -4.088  52.204  0.00  0.00     0.095 C 
ATOM     87  O3  SGN d 302       7.741  -5.912  53.497  0.00  0.00    -0.391 OA
ATOM     88  C2  SGN d 302       6.439  -5.351  51.562  0.00  0.00     0.081 C 
ATOM     89  O2S SGN d 302       5.061  -8.000  50.964  0.00  0.00    -0.296 OA
ATOM     90  O1  SGN d 302       5.096  -3.378  51.309  0.00  0.00    -0.348 OA
ATOM     91  C5  SGN d 302       7.943  -2.986  51.292  0.00  0.00     0.091 C 
ATOM     92  S1  SGN d 302       4.249  -6.938  51.371  0.00  0.00     0.156 S 
ATOM     93  C6  SGN d 302       9.067  -2.218  50.699  0.00  0.00     0.067 C 
ATOM     94  O4S SGN d 302      11.797  -3.875  48.736  0.00  0.00    -0.572 OA
ATOM     95  C3  SGN d 302       7.283  -4.837  52.710  0.00  0.00     0.083 C 
ATOM     96  H   SGN d 302       5.516  -4.593  49.746  0.00  0.00     0.131 H 
ATOM     97  H   SGN d 302       3.146  -5.578  50.481  0.00  0.00     0.231 HD
ATOM     98  H   SGN d 302       2.669  -6.635  52.511  0.00  0.00     0.231 HD
ATOM     99  H   SGN d 302       4.673  -4.969  52.399  0.00  0.00     0.140 HD
ATOM    100  H   SGN d 302       9.195  -4.691  51.683  0.00  0.00     0.091 H 
ATOM    101  H   SGN d 302       8.279  -5.572  54.228  0.00  0.00     0.210 HD
ATOM    102  H   SGN d 302       6.971  -6.083  50.990  0.00  0.00     0.076 H 
ATOM    103  H   SGN d 302       4.524  -8.653  50.489  0.00  0.00     0.231 HD
ATOM    104  H   SGN d 302       7.320  -2.355  51.892  0.00  0.00     0.090 H 
ATOM    105  H   SGN d 302       8.768  -1.781  49.770  0.00  0.00     0.080 H 
ATOM    106  H   SGN d 302       9.378  -1.420  51.341  0.00  0.00     0.080 H 
ATOM    107  H   SGN d 302       6.668  -4.184  53.292  0.00  0.00     0.089 H 
ATOM    108  O2S SGN d 304       1.954   6.138  49.656  0.00  0.00    -0.296 OA
ATOM    109  C1  SGN d 304       1.096   3.457  53.413  0.00  0.00     0.150 C 
ATOM    110  S2  SGN d 304       3.668   1.022  56.536  0.00  0.00     0.251 S 
ATOM    111  O4  SGN d 304       1.849  -0.453  52.326  0.00  0.00    -0.348 OA
ATOM    112  C6  SGN d 304       1.459   0.152  55.088  0.00  0.00     0.067 C 
ATOM    113  O4S SGN d 304       4.270  -0.274  56.570  0.00  0.00    -0.572 OA
ATOM    114  O1  SGN d 304      -0.263   3.309  53.054  0.00  0.00    -0.348 OA
ATOM    115  O5  SGN d 304       1.461   2.482  54.378  0.00  0.00    -0.349 OA
ATOM    116  S1  SGN d 304       2.266   5.687  50.976  0.00  0.00     0.156 S 
ATOM    117  O5S SGN d 304       3.881   1.692  57.782  0.00  0.00    -0.572 OA
ATOM    118  C3  SGN d 304       1.673   1.847  51.640  0.00  0.00     0.083 C 
ATOM    119  N   SGN d 304       1.408   4.150  51.170  0.00  0.00    -0.210 NA
ATOM    120  O1S SGN d 304       1.845   6.649  51.956  0.00  0.00    -0.296 OA
ATOM    121  O6  SGN d 304       1.922   0.820  56.264  0.00  0.00    -0.254 OA
ATOM    122  C4  SGN d 304       2.064   0.879  52.749  0.00  0.00     0.095 C 
ATOM    123  C5  SGN d 304       1.210   1.147  53.965  0.00  0.00     0.091 C 
ATOM    124  C2  SGN d 304       1.900   3.236  52.159  0.00  0.00     0.081 C 
ATOM    125  O6S SGN d 304       4.245   1.802  55.472  0.00  0.00    -0.572 OA
ATOM    126  O3  SGN d 304       2.472   1.670  50.490  0.00  0.00    -0.391 OA
ATOM    127  O3S SGN d 304       3.684   5.464  51.103  0.00  0.00    -0.296 OA
ATOM    128  H   SGN d 304       0.997   6.286  49.583  0.00  0.00     0.231 HD
ATOM    129  H   SGN d 304       1.272   4.426  53.833  0.00  0.00     0.131 H 
ATOM    130  H   SGN d 304       2.198  -0.556  54.773  0.00  0.00     0.080 H 
ATOM    131  H   SGN d 304       0.540  -0.347  55.316  0.00  0.00     0.080 H 
ATOM    132  H   SGN d 304       0.653   1.673  51.368  0.00  0.00     0.089 H 
ATOM    133  H   SGN d 304       1.435   3.670  50.270  0.00  0.00     0.140 HD
ATOM    134  H   SGN d 304       0.891   6.801  51.871  0.00  0.00     0.231 HD
ATOM    135  H   SGN d 304       3.099   1.017  52.984  0.00  0.00     0.091 H 
ATOM    136  H   SGN d 304       0.178   1.023  53.710  0.00  0.00     0.090 H 
ATOM    137  H   SGN d 304       2.940   3.379  52.365  0.00  0.00     0.076 H 
ATOM    138  H   SGN d 304       3.402   1.824  50.716  0.00  0.00     0.210 HD
ATOM    139  H   SGN d 304       3.968   4.815  50.441  0.00  0.00     0.231 HD
ATOM    140  O1S UAP d 301      12.942  -1.100  53.431  0.00  0.00    -0.572 OA
ATOM    141  C3  UAP d 301      10.155  -3.310  56.061  0.00  0.00     0.086 C 
ATOM    142  O62 UAP d 301      11.475  -7.449  54.370  0.00  0.00    -0.642 OA
ATOM    143  C2  UAP d 301      10.811  -2.795  54.804  0.00  0.00     0.135 C 
ATOM    144  O61 UAP d 301      10.796  -7.314  56.414  0.00  0.00    -0.642 OA
ATOM    145  C1  UAP d 301      10.426  -3.625  53.598  0.00  0.00     0.167 C 
ATOM    146  C5  UAP d 301      10.536  -5.513  55.087  0.00  0.00     0.147 C 
ATOM    147  C4  UAP d 301      10.146  -4.760  56.136  0.00  0.00    -0.034 C 
ATOM    148  O3S UAP d 301      12.889  -0.653  55.754  0.00  0.00    -0.572 OA
ATOM    149  C6  UAP d 301      10.899  -6.815  55.285  0.00  0.00     0.233 C 
ATOM    150  O5  UAP d 301      10.820  -4.963  53.865  0.00  0.00    -0.311 OA
ATOM    151  O2S UAP d 301      14.582  -2.013  54.784  0.00  0.00    -0.572 OA
ATOM    152  O2  UAP d 301      12.187  -2.985  54.962  0.00  0.00    -0.244 OA
ATOM    153  O3  UAP d 301       8.904  -2.736  56.180  0.00  0.00    -0.389 OA
ATOM    154  S   UAP d 301      13.222  -1.601  54.730  0.00  0.00     0.252 S 
ATOM    155  H   UAP d 301      10.737  -3.014  56.909  0.00  0.00     0.093 H 
ATOM    156  H   UAP d 301      10.519  -1.776  54.656  0.00  0.00     0.097 H 
ATOM    157  H   UAP d 301      10.914  -3.308  52.701  0.00  0.00     0.134 H 
ATOM    158  H   UAP d 301       9.836  -5.221  57.006  0.00  0.00     0.085 H 
ATOM    159  H   UAP d 301       8.357  -2.991  55.420  0.00  0.00     0.210 HD
ENDROOT
TORSDOF 50
ENDMDL
MODEL 35
REMARK VINA RESULT:      -7.2      3.221     15.818
REMARK  0 active torsions:
REMARK  status: ('A' for Active; 'I' for Inactive)
REMARK       I    between atoms: C3_1  and  O3_85 
REMARK       I    between atoms: C6_2  and  C5_22 
REMARK       I    between atoms: C6_3  and  C5_14 
REMARK       I    between atoms: C6_3  and  O6_30 
REMARK       I    between atoms: C1_4  and  O1_84 
REMARK       I    between atoms: O2S_6  and  S1_45 
REMARK       I    between atoms: C1_7  and  O1_36 
REMARK       I    between atoms: S1_10  and  N_69 
REMARK       I    between atoms: S1_10  and  O1S_27 
REMARK       I    between atoms: S1_10  and  O2S_71 
REMARK       I    between atoms: S1_10  and  O3S_88 
REMARK       I    between atoms: O4_11  and  C1_42 
REMARK       I    between atoms: O4_11  and  C4_63 
REMARK       I    between atoms: O6_12  and  C6_94 
REMARK       I    between atoms: O6_12  and  S2_28 
REMARK       I    between atoms: C1_13  and  O4_51 
REMARK       I    between atoms: S2_16  and  O6_76 
REMARK       I    between atoms: C3_18  and  O3_103 
REMARK       I    between atoms: C1_19  and  O1_37 
REMARK       I    between atoms: O4_20  and  C1_23 
REMARK       I    between atoms: O4_20  and  C4_77 
REMARK       I    between atoms: O3S_21  and  S1_92 
REMARK       I    between atoms: C3_24  and  O3_87 
REMARK       I    between atoms: O3_25  and  C3_46 
REMARK       I    between atoms: C6_29  and  C5_79 
REMARK       I    between atoms: C6_29  and  O6_76 
REMARK       I    between atoms: O6_30  and  S2_31 
REMARK       I    between atoms: O1_36  and  C4_81 
REMARK       I    between atoms: C2_38  and  O2_72 
REMARK       I    between atoms: S1_45  and  N_74 
REMARK       I    between atoms: S1_45  and  O1S_75 
REMARK       I    between atoms: S1_45  and  O3S_101 
REMARK       I    between atoms: O1S_47  and  S1_92 
REMARK       I    between atoms: S_48  and  O2_91 
REMARK       I    between atoms: C5_49  and  C6_67 
REMARK       I    between atoms: O4_51  and  C4_57 
REMARK       I    between atoms: N_52  and  C2_73 
REMARK       I    between atoms: N_52  and  S1_92 
REMARK       I    between atoms: C5_53  and  C6_61 
REMARK       I    between atoms: C4_56  and  O1_84 
REMARK       I    between atoms: C2_62  and  O2_91 
REMARK       I    between atoms: S_66  and  O2_105 
REMARK       I    between atoms: O3_68  and  C3_102 
REMARK       I    between atoms: N_69  and  C2_83 
REMARK       I    between atoms: C3_70  and  O3_98 
REMARK       I    between atoms: O2_72  and  S_96 
REMARK       I    between atoms: N_74  and  C2_86 
REMARK       I    between atoms: O2S_80  and  S1_92 
REMARK       I    between atoms: C5_89  and  C6_94 
REMARK       I    between atoms: C2_104  and  O2_105 
ROOT
ATOM      1  C3  IDS d 305       3.823   1.335  51.038  0.00  0.00     0.094 C 
ATOM      2  O3S IDS d 305       7.639   0.821  48.144  0.00  0.00    -0.572 OA
ATOM      3  C1  IDS d 305       5.806  -0.094  51.287  0.00  0.00     0.161 C 
ATOM      4  O62 IDS d 305       3.647  -1.351  54.383  0.00  0.00    -0.646 OA
ATOM      5  O5  IDS d 305       5.047  -0.480  52.412  0.00  0.00    -0.340 OA
ATOM      6  O61 IDS d 305       2.140  -2.304  53.061  0.00  0.00    -0.646 OA
ATOM      7  O1S IDS d 305       6.198   2.493  47.228  0.00  0.00    -0.572 OA
ATOM      8  C5  IDS d 305       3.777  -0.973  52.022  0.00  0.00     0.152 C 
ATOM      9  S   IDS d 305       6.273   1.314  48.064  0.00  0.00     0.252 S 
ATOM     10  C6  IDS d 305       3.151  -1.608  53.256  0.00  0.00     0.206 C 
ATOM     11  C4  IDS d 305       2.926   0.222  51.546  0.00  0.00     0.103 C 
ATOM     12  O3  IDS d 305       3.103   2.131  50.153  0.00  0.00    -0.390 OA
ATOM     13  O2S IDS d 305       5.408   0.296  47.541  0.00  0.00    -0.572 OA
ATOM     14  C2  IDS d 305       4.918   0.664  50.288  0.00  0.00     0.134 C 
ATOM     15  O2  IDS d 305       5.649   1.692  49.666  0.00  0.00    -0.244 OA
ATOM     16  H   IDS d 305       4.193   1.943  51.836  0.00  0.00     0.091 H 
ATOM     17  H   IDS d 305       6.616   0.554  51.552  0.00  0.00     0.133 H 
ATOM     18  H   IDS d 305       3.846  -1.690  51.231  0.00  0.00     0.104 H 
ATOM     19  H   IDS d 305       2.287  -0.137  50.767  0.00  0.00     0.092 H 
ATOM     20  H   IDS d 305       2.766   1.583  49.427  0.00  0.00     0.210 HD
ATOM     21  H   IDS d 305       4.551  -0.035  49.566  0.00  0.00     0.097 H 
ATOM     22  C6  IDS d 303      -3.684   2.818  56.768  0.00  0.00     0.206 C 
ATOM     23  O61 IDS d 303      -3.640   3.408  57.838  0.00  0.00    -0.646 OA
ATOM     24  C5  IDS d 303      -3.197   1.414  56.695  0.00  0.00     0.152 C 
ATOM     25  C1  IDS d 303      -2.731  -0.332  55.173  0.00  0.00     0.161 C 
ATOM     26  O3  IDS d 303      -1.730  -0.697  58.000  0.00  0.00    -0.390 OA
ATOM     27  O2S IDS d 303      -3.772  -4.244  56.026  0.00  0.00    -0.572 OA
ATOM     28  O5  IDS d 303      -3.443   0.894  55.382  0.00  0.00    -0.340 OA
ATOM     29  C3  IDS d 303      -3.064  -0.845  57.648  0.00  0.00     0.094 C 
ATOM     30  S   IDS d 303      -4.312  -3.311  55.111  0.00  0.00     0.252 S 
ATOM     31  C4  IDS d 303      -3.822   0.496  57.736  0.00  0.00     0.103 C 
ATOM     32  O1S IDS d 303      -5.638  -3.618  54.742  0.00  0.00    -0.572 OA
ATOM     33  C2  IDS d 303      -3.118  -1.357  56.239  0.00  0.00     0.134 C 
ATOM     34  O3S IDS d 303      -3.430  -3.317  54.004  0.00  0.00    -0.572 OA
ATOM     35  O2  IDS d 303      -4.359  -1.827  55.961  0.00  0.00    -0.244 OA
ATOM     36  O62 IDS d 303      -3.912   3.360  55.707  0.00  0.00    -0.646 OA
ATOM     37  H   IDS d 303      -2.148   1.441  56.905  0.00  0.00     0.104 H 
ATOM     38  H   IDS d 303      -3.016  -0.712  54.214  0.00  0.00     0.133 H 
ATOM     39  H   IDS d 303      -1.281  -1.554  57.935  0.00  0.00     0.210 HD
ATOM     40  H   IDS d 303      -3.532  -1.529  58.325  0.00  0.00     0.091 H 
ATOM     41  H   IDS d 303      -3.766   0.878  58.734  0.00  0.00     0.092 H 
ATOM     42  H   IDS d 303      -2.385  -2.135  56.196  0.00  0.00     0.097 H 
ATOM     43  C6  SGN d 306       8.817  -0.003  51.029  0.00  0.00     0.067 C 
ATOM     44  S1  SGN d 306       8.964  -6.687  52.776  0.00  0.00     0.156 S 
ATOM     45  C5  SGN d 306       8.629  -1.494  50.809  0.00  0.00     0.091 C 
ATOM     46  C3  SGN d 306       7.147  -3.419  51.388  0.00  0.00     0.083 C 
ATOM     47  C1  SGN d 306       9.667  -3.614  51.325  0.00  0.00     0.147 C 
ATOM     48  O1S SGN d 306       8.714  -8.000  52.238  0.00  0.00    -0.296 OA
ATOM     49  O6  SGN d 306       8.448   0.318  52.369  0.00  0.00    -0.254 OA
ATOM     50  S2  SGN d 306       8.990   1.840  53.093  0.00  0.00     0.251 S 
ATOM     51  O4S SGN d 306       7.927   2.806  53.093  0.00  0.00    -0.572 OA
ATOM     52  O1  SGN d 306       9.691  -4.029  49.967  0.00  0.00    -0.369 OA
ATOM     53  O4  SGN d 306       6.258  -1.300  50.712  0.00  0.00    -0.348 OA
ATOM     54  C4  SGN d 306       7.315  -1.909  51.451  0.00  0.00     0.095 C 
ATOM     55  N   SGN d 306       8.245  -5.509  51.682  0.00  0.00    -0.210 NA
ATOM     56  O2S SGN d 306       8.328  -6.543  54.054  0.00  0.00    -0.296 OA
ATOM     57  O5  SGN d 306       9.728  -2.198  51.435  0.00  0.00    -0.350 OA
ATOM     58  O6S SGN d 306       9.374   1.563  54.452  0.00  0.00    -0.572 OA
ATOM     59  C2  SGN d 306       8.377  -4.099  51.981  0.00  0.00     0.081 C 
ATOM     60  O3S SGN d 306      10.384  -6.469  52.884  0.00  0.00    -0.296 OA
ATOM     61  O5S SGN d 306      10.133   2.321  52.356  0.00  0.00    -0.572 OA
ATOM     62  O3  SGN d 306       6.066  -3.760  52.245  0.00  0.00    -0.391 OA
ATOM     63  H   SGN d 306       8.198   0.541  50.347  0.00  0.00     0.080 H 
ATOM     64  H   SGN d 306       9.840   0.262  50.862  0.00  0.00     0.080 H 
ATOM     65  H   SGN d 306       8.611  -1.727  49.764  0.00  0.00     0.090 H 
ATOM     66  H   SGN d 306       6.994  -3.722  50.373  0.00  0.00     0.089 H 
ATOM     67  H   SGN d 306      10.521  -4.034  51.813  0.00  0.00     0.131 H 
ATOM     68  H   SGN d 306       7.757  -8.142  52.167  0.00  0.00     0.231 HD
ATOM     69  H   SGN d 306       8.924  -3.660  49.502  0.00  0.00     0.212 HD
ATOM     70  H   SGN d 306       7.302  -1.603  52.476  0.00  0.00     0.091 H 
ATOM     71  H   SGN d 306       7.246  -5.713  51.637  0.00  0.00     0.140 HD
ATOM     72  H   SGN d 306       7.375  -6.694  53.960  0.00  0.00     0.231 HD
ATOM     73  H   SGN d 306       8.429  -3.883  53.028  0.00  0.00     0.076 H 
ATOM     74  H   SGN d 306      10.793  -6.571  52.010  0.00  0.00     0.231 HD
ATOM     75  H   SGN d 306       6.262  -3.461  53.147  0.00  0.00     0.210 HD
ATOM     76  C1  SGN d 302      -6.175   0.632  58.342  0.00  0.00     0.150 C 
ATOM     77  O4  SGN d 302      -8.981   1.612  55.444  0.00  0.00    -0.348 OA
ATOM     78  O6  SGN d 302      -8.858   3.815  57.610  0.00  0.00    -0.254 OA
ATOM     79  O3S SGN d 302      -5.307  -1.913  59.952  0.00  0.00    -0.296 OA
ATOM     80  S2  SGN d 302      -9.119   5.318  58.392  0.00  0.00     0.251 S 
ATOM     81  O5  SGN d 302      -6.651   1.975  58.236  0.00  0.00    -0.349 OA
ATOM     82  O1S SGN d 302      -6.033  -3.858  58.862  0.00  0.00    -0.296 OA
ATOM     83  O6S SGN d 302      -7.853   5.762  58.910  0.00  0.00    -0.572 OA
ATOM     84  N   SGN d 302      -6.822  -1.599  57.899  0.00  0.00    -0.210 NA
ATOM     85  O5S SGN d 302      -9.562   6.234  57.404  0.00  0.00    -0.572 OA
ATOM     86  C4  SGN d 302      -8.533   1.437  56.788  0.00  0.00     0.095 C 
ATOM     87  O3  SGN d 302      -9.253  -0.804  56.737  0.00  0.00    -0.391 OA
ATOM     88  C2  SGN d 302      -7.370  -0.297  58.135  0.00  0.00     0.081 C 
ATOM     89  O2S SGN d 302      -7.479  -2.574  60.154  0.00  0.00    -0.296 OA
ATOM     90  O1  SGN d 302      -5.187   0.327  57.360  0.00  0.00    -0.348 OA
ATOM     91  C5  SGN d 302      -7.269   2.273  56.989  0.00  0.00     0.091 C 
ATOM     92  S1  SGN d 302      -6.384  -2.545  59.287  0.00  0.00     0.156 S 
ATOM     93  C6  SGN d 302      -7.606   3.718  57.002  0.00  0.00     0.067 C 
ATOM     94  O4S SGN d 302     -10.122   5.157  59.380  0.00  0.00    -0.572 OA
ATOM     95  C3  SGN d 302      -8.102   0.002  56.843  0.00  0.00     0.083 C 
ATOM     96  H   SGN d 302      -5.723   0.506  59.303  0.00  0.00     0.131 H 
ATOM     97  H   SGN d 302      -4.536  -1.884  59.364  0.00  0.00     0.231 HD
ATOM     98  H   SGN d 302      -5.272  -3.811  58.263  0.00  0.00     0.231 HD
ATOM     99  H   SGN d 302      -5.982  -1.479  57.333  0.00  0.00     0.140 HD
ATOM    100  H   SGN d 302      -9.277   1.706  57.508  0.00  0.00     0.091 H 
ATOM    101  H   SGN d 302      -9.713  -0.604  55.907  0.00  0.00     0.210 HD
ATOM    102  H   SGN d 302      -8.021  -0.198  58.978  0.00  0.00     0.076 H 
ATOM    103  H   SGN d 302      -7.256  -3.098  60.939  0.00  0.00     0.231 HD
ATOM    104  H   SGN d 302      -6.605   2.040  56.182  0.00  0.00     0.090 H 
ATOM    105  H   SGN d 302      -6.877   4.265  57.563  0.00  0.00     0.080 H 
ATOM    106  H   SGN d 302      -7.619   4.127  56.013  0.00  0.00     0.080 H 
ATOM    107  H   SGN d 302      -7.428  -0.203  56.038  0.00  0.00     0.089 H 
ATOM    108  O2S SGN d 304       2.784   5.508  53.783  0.00  0.00    -0.296 OA
ATOM    109  C1  SGN d 304       1.022   1.481  52.137  0.00  0.00     0.150 C 
ATOM    110  S2  SGN d 304      -3.196  -0.065  50.681  0.00  0.00     0.251 S 
ATOM    111  O4  SGN d 304      -1.326  -0.140  55.120  0.00  0.00    -0.348 OA
ATOM    112  C6  SGN d 304      -1.468  -1.264  52.500  0.00  0.00     0.067 C 
ATOM    113  O4S SGN d 304      -4.368  -0.579  51.318  0.00  0.00    -0.572 OA
ATOM    114  O1  SGN d 304       2.139   0.749  52.600  0.00  0.00    -0.348 OA
ATOM    115  O5  SGN d 304      -0.052   0.603  51.834  0.00  0.00    -0.349 OA
ATOM    116  S1  SGN d 304       1.927   4.779  52.901  0.00  0.00     0.156 S 
ATOM    117  O5S SGN d 304      -3.366  -0.081  49.260  0.00  0.00    -0.572 OA
ATOM    118  C3  SGN d 304       0.210   1.591  54.461  0.00  0.00     0.083 C 
ATOM    119  N   SGN d 304       1.760   3.170  53.624  0.00  0.00    -0.210 NA
ATOM    120  O1S SGN d 304       2.496   4.705  51.584  0.00  0.00    -0.296 OA
ATOM    121  O6  SGN d 304      -1.820  -1.101  51.124  0.00  0.00    -0.254 OA
ATOM    122  C4  SGN d 304      -0.921   0.666  54.031  0.00  0.00     0.095 C 
ATOM    123  C5  SGN d 304      -0.433  -0.231  52.919  0.00  0.00     0.091 C 
ATOM    124  C2  SGN d 304       0.609   2.396  53.259  0.00  0.00     0.081 C 
ATOM    125  O6S SGN d 304      -2.955   1.286  51.115  0.00  0.00    -0.572 OA
ATOM    126  O3  SGN d 304      -0.204   2.484  55.472  0.00  0.00    -0.391 OA
ATOM    127  O3S SGN d 304       0.634   5.409  52.830  0.00  0.00    -0.296 OA
ATOM    128  H   SGN d 304       3.651   5.076  53.823  0.00  0.00     0.231 HD
ATOM    129  H   SGN d 304       1.269   2.025  51.249  0.00  0.00     0.131 H 
ATOM    130  H   SGN d 304      -2.345  -1.146  53.103  0.00  0.00     0.080 H 
ATOM    131  H   SGN d 304      -1.053  -2.241  52.635  0.00  0.00     0.080 H 
ATOM    132  H   SGN d 304       1.017   1.002  54.845  0.00  0.00     0.089 H 
ATOM    133  H   SGN d 304       1.738   3.291  54.636  0.00  0.00     0.140 HD
ATOM    134  H   SGN d 304       3.367   4.281  51.632  0.00  0.00     0.231 HD
ATOM    135  H   SGN d 304      -1.748   1.258  53.696  0.00  0.00     0.091 H 
ATOM    136  H   SGN d 304       0.404  -0.802  53.262  0.00  0.00     0.090 H 
ATOM    137  H   SGN d 304      -0.211   3.007  52.946  0.00  0.00     0.076 H 
ATOM    138  H   SGN d 304      -0.936   3.028  55.143  0.00  0.00     0.210 HD
ATOM    139  H   SGN d 304       0.250   5.459  53.720  0.00  0.00     0.231 HD
ATOM    140  O1S UAP d 301     -10.904   5.463  53.871  0.00  0.00    -0.572 OA
ATOM    141  C3  UAP d 301     -10.552   1.134  53.032  0.00  0.00     0.086 C 
ATOM    142  O62 UAP d 301     -13.307  -0.021  56.610  0.00  0.00    -0.642 OA
ATOM    143  C2  UAP d 301     -10.460   2.448  53.766  0.00  0.00     0.135 C 
ATOM    144  O61 UAP d 301     -13.262  -1.288  54.865  0.00  0.00    -0.642 OA
ATOM    145  C1  UAP d 301     -10.247   2.238  55.251  0.00  0.00     0.167 C 
ATOM    146  C5  UAP d 301     -11.739   0.365  55.018  0.00  0.00     0.147 C 
ATOM    147  C4  UAP d 301     -11.324   0.139  53.754  0.00  0.00    -0.034 C 
ATOM    148  O3S UAP d 301     -11.277   4.639  51.684  0.00  0.00    -0.572 OA
ATOM    149  C6  UAP d 301     -12.768  -0.371  55.535  0.00  0.00     0.233 C 
ATOM    150  O5  UAP d 301     -11.339   1.465  55.727  0.00  0.00    -0.311 OA
ATOM    151  O2S UAP d 301     -13.080   5.197  53.131  0.00  0.00    -0.572 OA
ATOM    152  O2  UAP d 301     -11.711   3.061  53.653  0.00  0.00    -0.244 OA
ATOM    153  O3  UAP d 301      -9.278   0.717  52.697  0.00  0.00    -0.389 OA
ATOM    154  S   UAP d 301     -11.755   4.691  53.036  0.00  0.00     0.252 S 
ATOM    155  H   UAP d 301     -11.103   1.276  52.125  0.00  0.00     0.093 H 
ATOM    156  H   UAP d 301      -9.650   3.015  53.357  0.00  0.00     0.097 H 
ATOM    157  H   UAP d 301     -10.223   3.155  55.802  0.00  0.00     0.134 H 
ATOM    158  H   UAP d 301     -11.559  -0.754  53.293  0.00  0.00     0.085 H 
ATOM    159  H   UAP d 301      -8.759   0.583  53.505  0.00  0.00     0.210 HD
ENDROOT
TORSDOF 50
ENDMDL
MODEL 36
REMARK VINA RESULT:      -7.1      3.351      4.815
REMARK  0 active torsions:
REMARK  status: ('A' for Active; 'I' for Inactive)
REMARK       I    between atoms: C3_1  and  O3_85 
REMARK       I    between atoms: C6_2  and  C5_22 
REMARK       I    between atoms: C6_3  and  C5_14 
REMARK       I    between atoms: C6_3  and  O6_30 
REMARK       I    between atoms: C1_4  and  O1_84 
REMARK       I    between atoms: O2S_6  and  S1_45 
REMARK       I    between atoms: C1_7  and  O1_36 
REMARK       I    between atoms: S1_10  and  N_69 
REMARK       I    between atoms: S1_10  and  O1S_27 
REMARK       I    between atoms: S1_10  and  O2S_71 
REMARK       I    between atoms: S1_10  and  O3S_88 
REMARK       I    between atoms: O4_11  and  C1_42 
REMARK       I    between atoms: O4_11  and  C4_63 
REMARK       I    between atoms: O6_12  and  C6_94 
REMARK       I    between atoms: O6_12  and  S2_28 
REMARK       I    between atoms: C1_13  and  O4_51 
REMARK       I    between atoms: S2_16  and  O6_76 
REMARK       I    between atoms: C3_18  and  O3_103 
REMARK       I    between atoms: C1_19  and  O1_37 
REMARK       I    between atoms: O4_20  and  C1_23 
REMARK       I    between atoms: O4_20  and  C4_77 
REMARK       I    between atoms: O3S_21  and  S1_92 
REMARK       I    between atoms: C3_24  and  O3_87 
REMARK       I    between atoms: O3_25  and  C3_46 
REMARK       I    between atoms: C6_29  and  C5_79 
REMARK       I    between atoms: C6_29  and  O6_76 
REMARK       I    between atoms: O6_30  and  S2_31 
REMARK       I    between atoms: O1_36  and  C4_81 
REMARK       I    between atoms: C2_38  and  O2_72 
REMARK       I    between atoms: S1_45  and  N_74 
REMARK       I    between atoms: S1_45  and  O1S_75 
REMARK       I    between atoms: S1_45  and  O3S_101 
REMARK       I    between atoms: O1S_47  and  S1_92 
REMARK       I    between atoms: S_48  and  O2_91 
REMARK       I    between atoms: C5_49  and  C6_67 
REMARK       I    between atoms: O4_51  and  C4_57 
REMARK       I    between atoms: N_52  and  C2_73 
REMARK       I    between atoms: N_52  and  S1_92 
REMARK       I    between atoms: C5_53  and  C6_61 
REMARK       I    between atoms: C4_56  and  O1_84 
REMARK       I    between atoms: C2_62  and  O2_91 
REMARK       I    between atoms: S_66  and  O2_105 
REMARK       I    between atoms: O3_68  and  C3_102 
REMARK       I    between atoms: N_69  and  C2_83 
REMARK       I    between atoms: C3_70  and  O3_98 
REMARK       I    between atoms: O2_72  and  S_96 
REMARK       I    between atoms: N_74  and  C2_86 
REMARK       I    between atoms: O2S_80  and  S1_92 
REMARK       I    between atoms: C5_89  and  C6_94 
REMARK       I    between atoms: C2_104  and  O2_105 
ROOT
ATOM      1  C3  IDS d 305      -2.385  -3.129  55.056  0.00  0.00     0.094 C 
ATOM      2  O3S IDS d 305      -6.920  -4.747  55.192  0.00  0.00    -0.572 OA
ATOM      3  C1  IDS d 305      -4.495  -1.935  54.656  0.00  0.00     0.161 C 
ATOM      4  O62 IDS d 305      -1.889   0.909  53.683  0.00  0.00    -0.646 OA
ATOM      5  O5  IDS d 305      -3.551  -0.925  54.374  0.00  0.00    -0.340 OA
ATOM      6  O61 IDS d 305      -1.237  -0.185  51.864  0.00  0.00    -0.646 OA
ATOM      7  O1S IDS d 305      -5.448  -6.527  55.806  0.00  0.00    -0.572 OA
ATOM      8  C5  IDS d 305      -2.675  -1.326  53.335  0.00  0.00     0.152 C 
ATOM      9  S   IDS d 305      -5.576  -5.289  55.068  0.00  0.00     0.252 S 
ATOM     10  C6  IDS d 305      -1.885  -0.092  52.920  0.00  0.00     0.206 C 
ATOM     11  C4  IDS d 305      -1.726  -2.403  53.898  0.00  0.00     0.103 C 
ATOM     12  O3  IDS d 305      -1.802  -4.383  55.197  0.00  0.00    -0.390 OA
ATOM     13  O2S IDS d 305      -5.257  -5.516  53.688  0.00  0.00    -0.572 OA
ATOM     14  C2  IDS d 305      -3.808  -3.309  54.665  0.00  0.00     0.134 C 
ATOM     15  O2  IDS d 305      -4.380  -4.135  55.650  0.00  0.00    -0.244 OA
ATOM     16  H   IDS d 305      -2.283  -2.588  55.974  0.00  0.00     0.091 H 
ATOM     17  H   IDS d 305      -4.953  -1.799  55.614  0.00  0.00     0.133 H 
ATOM     18  H   IDS d 305      -3.201  -1.728  52.493  0.00  0.00     0.104 H 
ATOM     19  H   IDS d 305      -1.508  -3.080  53.099  0.00  0.00     0.092 H 
ATOM     20  H   IDS d 305      -1.893  -4.877  54.367  0.00  0.00     0.210 HD
ATOM     21  H   IDS d 305      -3.914  -3.744  53.692  0.00  0.00     0.097 H 
ATOM     22  C6  IDS d 303       6.682  -0.103  55.208  0.00  0.00     0.206 C 
ATOM     23  O61 IDS d 303       7.161   0.623  56.068  0.00  0.00    -0.646 OA
ATOM     24  C5  IDS d 303       5.820   0.496  54.154  0.00  0.00     0.152 C 
ATOM     25  C1  IDS d 303       4.404  -0.064  52.347  0.00  0.00     0.161 C 
ATOM     26  O3  IDS d 303       4.330   2.807  53.287  0.00  0.00    -0.390 OA
ATOM     27  O2S IDS d 303       4.512   2.073  48.806  0.00  0.00    -0.572 OA
ATOM     28  O5  IDS d 303       5.463  -0.514  53.202  0.00  0.00    -0.340 OA
ATOM     29  C3  IDS d 303       5.373   2.287  52.535  0.00  0.00     0.094 C 
ATOM     30  S   IDS d 303       4.963   0.771  49.128  0.00  0.00     0.252 S 
ATOM     31  C4  IDS d 303       6.465   1.673  53.435  0.00  0.00     0.103 C 
ATOM     32  O1S IDS d 303       5.949   0.303  48.234  0.00  0.00    -0.572 OA
ATOM     33  C2  IDS d 303       4.813   1.226  51.635  0.00  0.00     0.134 C 
ATOM     34  O3S IDS d 303       3.803  -0.039  49.122  0.00  0.00    -0.572 OA
ATOM     35  O2  IDS d 303       5.706   0.921  50.661  0.00  0.00    -0.244 OA
ATOM     36  O62 IDS d 303       6.692  -1.314  55.265  0.00  0.00    -0.646 OA
ATOM     37  H   IDS d 303       4.953   0.882  54.647  0.00  0.00     0.104 H 
ATOM     38  H   IDS d 303       4.238  -0.822  51.611  0.00  0.00     0.133 H 
ATOM     39  H   IDS d 303       3.661   3.184  52.695  0.00  0.00     0.210 HD
ATOM     40  H   IDS d 303       5.823   3.075  51.968  0.00  0.00     0.091 H 
ATOM     41  H   IDS d 303       6.852   2.421  54.096  0.00  0.00     0.092 H 
ATOM     42  H   IDS d 303       3.918   1.648  51.228  0.00  0.00     0.097 H 
ATOM     43  C6  SGN d 306      -7.266  -1.604  55.819  0.00  0.00     0.067 C 
ATOM     44  S1  SGN d 306      -8.721   2.688  50.602  0.00  0.00     0.156 S 
ATOM     45  C5  SGN d 306      -7.593  -1.235  54.382  0.00  0.00     0.091 C 
ATOM     46  C3  SGN d 306      -6.614  -0.234  52.314  0.00  0.00     0.083 C 
ATOM     47  C1  SGN d 306      -8.959   0.289  53.099  0.00  0.00     0.147 C 
ATOM     48  O1S SGN d 306      -9.045   2.688  49.199  0.00  0.00    -0.296 OA
ATOM     49  O6  SGN d 306      -6.402  -0.611  56.368  0.00  0.00    -0.254 OA
ATOM     50  S2  SGN d 306      -6.220  -0.472  58.124  0.00  0.00     0.251 S 
ATOM     51  O4S SGN d 306      -4.989  -1.074  58.553  0.00  0.00    -0.572 OA
ATOM     52  O1  SGN d 306      -9.545  -0.751  52.329  0.00  0.00    -0.369 OA
ATOM     53  O4  SGN d 306      -5.434  -1.871  53.605  0.00  0.00    -0.348 OA
ATOM     54  C4  SGN d 306      -6.316  -0.755  53.711  0.00  0.00     0.095 C 
ATOM     55  N   SGN d 306      -8.099   1.091  51.011  0.00  0.00    -0.210 NA
ATOM     56  O2S SGN d 306      -7.687   3.644  50.875  0.00  0.00    -0.296 OA
ATOM     57  O5  SGN d 306      -8.576  -0.173  54.387  0.00  0.00    -0.350 OA
ATOM     58  O6S SGN d 306      -6.198   0.929  58.450  0.00  0.00    -0.572 OA
ATOM     59  C2  SGN d 306      -7.719   0.815  52.381  0.00  0.00     0.081 C 
ATOM     60  O3S SGN d 306      -9.902   2.977  51.374  0.00  0.00    -0.296 OA
ATOM     61  O5S SGN d 306      -7.355  -1.098  58.756  0.00  0.00    -0.572 OA
ATOM     62  O3  SGN d 306      -5.455   0.454  51.864  0.00  0.00    -0.391 OA
ATOM     63  H   SGN d 306      -6.779  -2.556  55.843  0.00  0.00     0.080 H 
ATOM     64  H   SGN d 306      -8.168  -1.657  56.393  0.00  0.00     0.080 H 
ATOM     65  H   SGN d 306      -7.985  -2.077  53.851  0.00  0.00     0.090 H 
ATOM     66  H   SGN d 306      -6.895  -1.048  51.679  0.00  0.00     0.089 H 
ATOM     67  H   SGN d 306      -9.687   1.064  53.214  0.00  0.00     0.131 H 
ATOM     68  H   SGN d 306      -8.247   2.493  48.683  0.00  0.00     0.231 HD
ATOM     69  H   SGN d 306      -8.902  -1.468  52.210  0.00  0.00     0.212 HD
ATOM     70  H   SGN d 306      -5.880   0.034  54.288  0.00  0.00     0.091 H 
ATOM     71  H   SGN d 306      -7.272   0.936  50.435  0.00  0.00     0.140 HD
ATOM     72  H   SGN d 306      -6.902   3.432  50.347  0.00  0.00     0.231 HD
ATOM     73  H   SGN d 306      -7.361   1.672  52.911  0.00  0.00     0.076 H 
ATOM     74  H   SGN d 306     -10.588   2.319  51.174  0.00  0.00     0.231 HD
ATOM     75  H   SGN d 306      -5.249   1.178  52.477  0.00  0.00     0.210 HD
ATOM     76  C1  SGN d 302       8.823   1.692  52.830  0.00  0.00     0.150 C 
ATOM     77  O4  SGN d 302      10.676  -1.849  51.706  0.00  0.00    -0.348 OA
ATOM     78  O6  SGN d 302      11.902  -0.781  54.336  0.00  0.00    -0.254 OA
ATOM     79  O3S SGN d 302       7.848   4.331  51.449  0.00  0.00    -0.296 OA
ATOM     80  S2  SGN d 302      12.821  -0.742  55.782  0.00  0.00     0.251 S 
ATOM     81  O5  SGN d 302       9.597   0.960  53.782  0.00  0.00    -0.349 OA
ATOM     82  O1S SGN d 302       7.591   4.000  49.142  0.00  0.00    -0.296 OA
ATOM     83  O6S SGN d 302      11.976  -0.208  56.817  0.00  0.00    -0.572 OA
ATOM     84  N   SGN d 302       8.626   2.070  50.504  0.00  0.00    -0.210 NA
ATOM     85  O5S SGN d 302      13.155  -2.083  56.104  0.00  0.00    -0.572 OA
ATOM     86  C4  SGN d 302      10.664  -0.489  52.141  0.00  0.00     0.095 C 
ATOM     87  O3  SGN d 302      10.660   0.229  49.899  0.00  0.00    -0.391 OA
ATOM     88  C2  SGN d 302       9.567   1.645  51.497  0.00  0.00     0.081 C 
ATOM     89  O2S SGN d 302       9.683   4.347  50.097  0.00  0.00    -0.296 OA
ATOM     90  O1  SGN d 302       7.523   1.135  52.645  0.00  0.00    -0.348 OA
ATOM     91  C5  SGN d 302       9.829  -0.396  53.418  0.00  0.00     0.091 C 
ATOM     92  S1  SGN d 302       8.420   3.779  50.279  0.00  0.00     0.156 S 
ATOM     93  C6  SGN d 302      10.547  -1.036  54.548  0.00  0.00     0.067 C 
ATOM     94  O4S SGN d 302      14.004   0.006  55.560  0.00  0.00    -0.572 OA
ATOM     95  C3  SGN d 302       9.886   0.226  51.076  0.00  0.00     0.083 C 
ATOM     96  H   SGN d 302       8.696   2.691  53.191  0.00  0.00     0.131 H 
ATOM     97  H   SGN d 302       6.968   3.947  51.591  0.00  0.00     0.231 HD
ATOM     98  H   SGN d 302       6.722   3.597  49.292  0.00  0.00     0.231 HD
ATOM     99  H   SGN d 302       7.718   1.683  50.759  0.00  0.00     0.140 HD
ATOM    100  H   SGN d 302      11.648  -0.102  52.309  0.00  0.00     0.091 H 
ATOM    101  H   SGN d 302      10.858  -0.685  49.639  0.00  0.00     0.210 HD
ATOM    102  H   SGN d 302      10.459   2.229  51.591  0.00  0.00     0.076 H 
ATOM    103  H   SGN d 302       9.592   5.304  49.969  0.00  0.00     0.231 HD
ATOM    104  H   SGN d 302       8.899  -0.890  53.223  0.00  0.00     0.090 H 
ATOM    105  H   SGN d 302      10.229  -0.612  55.478  0.00  0.00     0.080 H 
ATOM    106  H   SGN d 302      10.349  -2.087  54.594  0.00  0.00     0.080 H 
ATOM    107  H   SGN d 302       8.957  -0.276  50.911  0.00  0.00     0.089 H 
ATOM    108  O2S SGN d 304       0.638  -2.571  59.128  0.00  0.00    -0.296 OA
ATOM    109  C1  SGN d 304       0.541  -2.762  54.438  0.00  0.00     0.150 C 
ATOM    110  S2  SGN d 304       3.423  -4.274  51.017  0.00  0.00     0.251 S 
ATOM    111  O4  SGN d 304       3.176   0.090  53.041  0.00  0.00    -0.348 OA
ATOM    112  C6  SGN d 304       2.124  -1.822  51.202  0.00  0.00     0.067 C 
ATOM    113  O4S SGN d 304       4.542  -3.731  50.313  0.00  0.00    -0.572 OA
ATOM    114  O1  SGN d 304      -0.521  -1.831  54.377  0.00  0.00    -0.348 OA
ATOM    115  O5  SGN d 304       1.159  -2.891  53.167  0.00  0.00    -0.349 OA
ATOM    116  S1  SGN d 304       0.913  -3.234  57.891  0.00  0.00     0.156 S 
ATOM    117  O5S SGN d 304       3.104  -5.570  50.500  0.00  0.00    -0.572 OA
ATOM    118  C3  SGN d 304       2.067  -0.893  54.936  0.00  0.00     0.083 C 
ATOM    119  N   SGN d 304       0.844  -1.972  56.650  0.00  0.00    -0.210 NA
ATOM    120  O1S SGN d 304      -0.054  -4.267  57.641  0.00  0.00    -0.296 OA
ATOM    121  O6  SGN d 304       2.035  -3.187  50.784  0.00  0.00    -0.254 OA
ATOM    122  C4  SGN d 304       2.682  -1.128  53.563  0.00  0.00     0.095 C 
ATOM    123  C5  SGN d 304       1.622  -1.661  52.629  0.00  0.00     0.091 C 
ATOM    124  C2  SGN d 304       1.541  -2.212  55.420  0.00  0.00     0.081 C 
ATOM    125  O6S SGN d 304       3.732  -4.385  52.419  0.00  0.00    -0.572 OA
ATOM    126  O3  SGN d 304       3.026  -0.433  55.864  0.00  0.00    -0.391 OA
ATOM    127  O3S SGN d 304       2.233  -3.808  57.917  0.00  0.00    -0.296 OA
ATOM    128  H   SGN d 304      -0.253  -2.189  59.099  0.00  0.00     0.231 HD
ATOM    129  H   SGN d 304       0.181  -3.726  54.734  0.00  0.00     0.131 H 
ATOM    130  H   SGN d 304       3.145  -1.506  51.151  0.00  0.00     0.080 H 
ATOM    131  H   SGN d 304       1.517  -1.225  50.554  0.00  0.00     0.080 H 
ATOM    132  H   SGN d 304       1.300  -0.152  54.854  0.00  0.00     0.089 H 
ATOM    133  H   SGN d 304       1.231  -1.121  57.059  0.00  0.00     0.140 HD
ATOM    134  H   SGN d 304      -0.943  -3.880  57.624  0.00  0.00     0.231 HD
ATOM    135  H   SGN d 304       3.485  -1.830  53.655  0.00  0.00     0.091 H 
ATOM    136  H   SGN d 304       0.819  -0.957  52.561  0.00  0.00     0.090 H 
ATOM    137  H   SGN d 304       2.350  -2.902  55.538  0.00  0.00     0.076 H 
ATOM    138  H   SGN d 304       3.732  -1.093  55.953  0.00  0.00     0.210 HD
ATOM    139  H   SGN d 304       2.885  -3.111  58.087  0.00  0.00     0.231 HD
ATOM    140  O1S UAP d 301      12.983  -5.192  53.827  0.00  0.00    -0.572 OA
ATOM    141  C3  UAP d 301      11.162  -4.121  49.941  0.00  0.00     0.086 C 
ATOM    142  O62 UAP d 301      14.492  -1.006  48.974  0.00  0.00    -0.642 OA
ATOM    143  C2  UAP d 301      11.693  -3.978  51.345  0.00  0.00     0.135 C 
ATOM    144  O61 UAP d 301      13.518  -2.042  47.353  0.00  0.00    -0.642 OA
ATOM    145  C1  UAP d 301      11.930  -2.526  51.702  0.00  0.00     0.167 C 
ATOM    146  C5  UAP d 301      12.666  -2.272  49.425  0.00  0.00     0.147 C 
ATOM    147  C4  UAP d 301      11.812  -3.227  49.000  0.00  0.00    -0.034 C 
ATOM    148  O3S UAP d 301      12.366  -6.885  52.293  0.00  0.00    -0.572 OA
ATOM    149  C6  UAP d 301      13.553  -1.717  48.547  0.00  0.00     0.233 C 
ATOM    150  O5  UAP d 301      12.851  -2.004  50.755  0.00  0.00    -0.311 OA
ATOM    151  O2S UAP d 301      14.625  -6.176  52.527  0.00  0.00    -0.572 OA
ATOM    152  O2  UAP d 301      12.957  -4.575  51.360  0.00  0.00    -0.244 OA
ATOM    153  O3  UAP d 301       9.785  -3.999  49.968  0.00  0.00    -0.389 OA
ATOM    154  S   UAP d 301      13.256  -5.794  52.570  0.00  0.00     0.252 S 
ATOM    155  H   UAP d 301      11.400  -5.097  49.572  0.00  0.00     0.093 H 
ATOM    156  H   UAP d 301      10.990  -4.412  52.025  0.00  0.00     0.097 H 
ATOM    157  H   UAP d 301      12.350  -2.399  52.678  0.00  0.00     0.134 H 
ATOM    158  H   UAP d 301      11.619  -3.324  47.991  0.00  0.00     0.085 H 
ATOM    159  H   UAP d 301       9.545  -3.120  50.300  0.00  0.00     0.210 HD
ENDROOT
TORSDOF 50
ENDMDL
MODEL 37
REMARK VINA RESULT:      -7.1      4.648     15.510
REMARK  0 active torsions:
REMARK  status: ('A' for Active; 'I' for Inactive)
REMARK       I    between atoms: C3_1  and  O3_85 
REMARK       I    between atoms: C6_2  and  C5_22 
REMARK       I    between atoms: C6_3  and  C5_14 
REMARK       I    between atoms: C6_3  and  O6_30 
REMARK       I    between atoms: C1_4  and  O1_84 
REMARK       I    between atoms: O2S_6  and  S1_45 
REMARK       I    between atoms: C1_7  and  O1_36 
REMARK       I    between atoms: S1_10  and  N_69 
REMARK       I    between atoms: S1_10  and  O1S_27 
REMARK       I    between atoms: S1_10  and  O2S_71 
REMARK       I    between atoms: S1_10  and  O3S_88 
REMARK       I    between atoms: O4_11  and  C1_42 
REMARK       I    between atoms: O4_11  and  C4_63 
REMARK       I    between atoms: O6_12  and  C6_94 
REMARK       I    between atoms: O6_12  and  S2_28 
REMARK       I    between atoms: C1_13  and  O4_51 
REMARK       I    between atoms: S2_16  and  O6_76 
REMARK       I    between atoms: C3_18  and  O3_103 
REMARK       I    between atoms: C1_19  and  O1_37 
REMARK       I    between atoms: O4_20  and  C1_23 
REMARK       I    between atoms: O4_20  and  C4_77 
REMARK       I    between atoms: O3S_21  and  S1_92 
REMARK       I    between atoms: C3_24  and  O3_87 
REMARK       I    between atoms: O3_25  and  C3_46 
REMARK       I    between atoms: C6_29  and  C5_79 
REMARK       I    between atoms: C6_29  and  O6_76 
REMARK       I    between atoms: O6_30  and  S2_31 
REMARK       I    between atoms: O1_36  and  C4_81 
REMARK       I    between atoms: C2_38  and  O2_72 
REMARK       I    between atoms: S1_45  and  N_74 
REMARK       I    between atoms: S1_45  and  O1S_75 
REMARK       I    between atoms: S1_45  and  O3S_101 
REMARK       I    between atoms: O1S_47  and  S1_92 
REMARK       I    between atoms: S_48  and  O2_91 
REMARK       I    between atoms: C5_49  and  C6_67 
REMARK       I    between atoms: O4_51  and  C4_57 
REMARK       I    between atoms: N_52  and  C2_73 
REMARK       I    between atoms: N_52  and  S1_92 
REMARK       I    between atoms: C5_53  and  C6_61 
REMARK       I    between atoms: C4_56  and  O1_84 
REMARK       I    between atoms: C2_62  and  O2_91 
REMARK       I    between atoms: S_66  and  O2_105 
REMARK       I    between atoms: O3_68  and  C3_102 
REMARK       I    between atoms: N_69  and  C2_83 
REMARK       I    between atoms: C3_70  and  O3_98 
REMARK       I    between atoms: O2_72  and  S_96 
REMARK       I    between atoms: N_74  and  C2_86 
REMARK       I    between atoms: O2S_80  and  S1_92 
REMARK       I    between atoms: C5_89  and  C6_94 
REMARK       I    between atoms: C2_104  and  O2_105 
ROOT
ATOM      1  C3  IDS d 305       6.716  -0.605  52.054  0.00  0.00     0.094 C 
ATOM      2  O3S IDS d 305      11.472  -1.156  51.531  0.00  0.00    -0.572 OA
ATOM      3  C1  IDS d 305       8.507  -0.493  53.732  0.00  0.00     0.161 C 
ATOM      4  O62 IDS d 305       5.319  -0.217  56.096  0.00  0.00    -0.646 OA
ATOM      5  O5  IDS d 305       7.363  -0.337  54.543  0.00  0.00    -0.340 OA
ATOM      6  O61 IDS d 305       4.730  -2.321  55.700  0.00  0.00    -0.646 OA
ATOM      7  O1S IDS d 305      10.438  -1.312  49.383  0.00  0.00    -0.572 OA
ATOM      8  C5  IDS d 305       6.491  -1.446  54.408  0.00  0.00     0.152 C 
ATOM      9  S   IDS d 305      10.254  -1.484  50.807  0.00  0.00     0.252 S 
ATOM     10  C6  IDS d 305       5.442  -1.321  55.504  0.00  0.00     0.206 C 
ATOM     11  C4  IDS d 305       5.825  -1.366  53.019  0.00  0.00     0.103 C 
ATOM     12  O3  IDS d 305       6.404  -0.984  50.753  0.00  0.00    -0.390 OA
ATOM     13  O2S IDS d 305       9.862  -2.836  51.084  0.00  0.00    -0.572 OA
ATOM     14  C2  IDS d 305       8.106  -1.042  52.355  0.00  0.00     0.134 C 
ATOM     15  O2  IDS d 305       8.914  -0.480  51.350  0.00  0.00    -0.244 OA
ATOM     16  H   IDS d 305       6.594   0.453  52.152  0.00  0.00     0.091 H 
ATOM     17  H   IDS d 305       9.015   0.435  53.573  0.00  0.00     0.133 H 
ATOM     18  H   IDS d 305       7.007  -2.380  54.495  0.00  0.00     0.104 H 
ATOM     19  H   IDS d 305       5.672  -2.370  52.685  0.00  0.00     0.092 H 
ATOM     20  H   IDS d 305       6.513  -1.943  50.661  0.00  0.00     0.210 HD
ATOM     21  H   IDS d 305       8.205  -2.107  52.374  0.00  0.00     0.097 H 
ATOM     22  C6  IDS d 303      -2.715   0.798  52.745  0.00  0.00     0.206 C 
ATOM     23  O61 IDS d 303      -3.247   1.880  52.949  0.00  0.00    -0.646 OA
ATOM     24  C5  IDS d 303      -2.086   0.075  53.883  0.00  0.00     0.152 C 
ATOM     25  C1  IDS d 303      -0.758  -1.809  54.403  0.00  0.00     0.161 C 
ATOM     26  O3  IDS d 303      -1.160   0.216  56.609  0.00  0.00    -0.390 OA
ATOM     27  O2S IDS d 303      -1.602  -4.175  57.691  0.00  0.00    -0.572 OA
ATOM     28  O5  IDS d 303      -1.627  -1.206  53.435  0.00  0.00    -0.340 OA
ATOM     29  C3  IDS d 303      -2.146  -0.678  56.219  0.00  0.00     0.094 C 
ATOM     30  S   IDS d 303      -1.759  -4.409  56.304  0.00  0.00     0.252 S 
ATOM     31  C4  IDS d 303      -3.011  -0.101  55.080  0.00  0.00     0.103 C 
ATOM     32  O1S IDS d 303      -2.711  -5.412  56.028  0.00  0.00    -0.572 OA
ATOM     33  C2  IDS d 303      -1.473  -1.934  55.749  0.00  0.00     0.134 C 
ATOM     34  O3S IDS d 303      -0.469  -4.748  55.832  0.00  0.00    -0.572 OA
ATOM     35  O2  IDS d 303      -2.375  -2.944  55.670  0.00  0.00    -0.244 OA
ATOM     36  O62 IDS d 303      -2.484   0.358  51.639  0.00  0.00    -0.646 OA
ATOM     37  H   IDS d 303      -1.269   0.679  54.218  0.00  0.00     0.104 H 
ATOM     38  H   IDS d 303      -0.515  -2.790  54.054  0.00  0.00     0.133 H 
ATOM     39  H   IDS d 303      -0.634  -0.173  57.324  0.00  0.00     0.210 HD
ATOM     40  H   IDS d 303      -2.790  -0.874  57.050  0.00  0.00     0.091 H 
ATOM     41  H   IDS d 303      -3.474   0.808  55.402  0.00  0.00     0.092 H 
ATOM     42  H   IDS d 303      -0.718  -2.137  56.479  0.00  0.00     0.097 H 
ATOM     43  C6  SGN d 306      11.254   0.693  54.163  0.00  0.00     0.067 C 
ATOM     44  S1  SGN d 306      11.365  -2.334  60.374  0.00  0.00     0.156 S 
ATOM     45  C5  SGN d 306      11.371  -0.471  55.132  0.00  0.00     0.091 C 
ATOM     46  C3  SGN d 306      10.032  -1.950  56.634  0.00  0.00     0.083 C 
ATOM     47  C1  SGN d 306      12.292  -1.029  57.295  0.00  0.00     0.147 C 
ATOM     48  O1S SGN d 306      11.554  -3.618  61.000  0.00  0.00    -0.296 OA
ATOM     49  O6  SGN d 306      10.267   1.601  54.646  0.00  0.00    -0.254 OA
ATOM     50  S2  SGN d 306      10.221   3.263  54.035  0.00  0.00     0.251 S 
ATOM     51  O4S SGN d 306       9.175   3.415  53.063  0.00  0.00    -0.572 OA
ATOM     52  O1  SGN d 306      12.997  -2.158  56.798  0.00  0.00    -0.369 OA
ATOM     53  O4  SGN d 306       9.316  -1.431  54.408  0.00  0.00    -0.348 OA
ATOM     54  C4  SGN d 306       9.970  -0.884  55.552  0.00  0.00     0.095 C 
ATOM     55  N   SGN d 306      11.106  -2.607  58.653  0.00  0.00    -0.210 NA
ATOM     56  O2S SGN d 306      10.193  -1.692  60.897  0.00  0.00    -0.296 OA
ATOM     57  O5  SGN d 306      12.124  -0.038  56.289  0.00  0.00    -0.350 OA
ATOM     58  O6S SGN d 306       9.956   4.131  55.152  0.00  0.00    -0.572 OA
ATOM     59  C2  SGN d 306      10.913  -1.466  57.781  0.00  0.00     0.081 C 
ATOM     60  O3S SGN d 306      12.532  -1.516  60.580  0.00  0.00    -0.296 OA
ATOM     61  O5S SGN d 306      11.509   3.582  53.470  0.00  0.00    -0.572 OA
ATOM     62  O3  SGN d 306       8.725  -2.077  57.177  0.00  0.00    -0.391 OA
ATOM     63  H   SGN d 306      10.966   0.330  53.199  0.00  0.00     0.080 H 
ATOM     64  H   SGN d 306      12.197   1.193  54.082  0.00  0.00     0.080 H 
ATOM     65  H   SGN d 306      11.870  -1.300  54.675  0.00  0.00     0.090 H 
ATOM     66  H   SGN d 306      10.408  -2.861  56.220  0.00  0.00     0.089 H 
ATOM     67  H   SGN d 306      12.862  -0.612  58.098  0.00  0.00     0.131 H 
ATOM     68  H   SGN d 306      10.765  -4.165  60.858  0.00  0.00     0.231 HD
ATOM     69  H   SGN d 306      12.498  -2.554  56.066  0.00  0.00     0.212 HD
ATOM     70  H   SGN d 306       9.443  -0.035  55.933  0.00  0.00     0.091 H 
ATOM     71  H   SGN d 306      10.276  -3.194  58.565  0.00  0.00     0.140 HD
ATOM     72  H   SGN d 306       9.420  -2.258  60.748  0.00  0.00     0.231 HD
ATOM     73  H   SGN d 306      10.444  -0.633  58.260  0.00  0.00     0.076 H 
ATOM     74  H   SGN d 306      13.312  -1.968  60.220  0.00  0.00     0.231 HD
ATOM     75  H   SGN d 306       8.439  -1.221  57.536  0.00  0.00     0.210 HD
ATOM     76  C1  SGN d 302      -5.372  -0.637  54.829  0.00  0.00     0.150 C 
ATOM     77  O4  SGN d 302      -6.593  -3.097  51.716  0.00  0.00    -0.348 OA
ATOM     78  O6  SGN d 302      -7.760  -0.255  51.363  0.00  0.00    -0.254 OA
ATOM     79  O3S SGN d 302      -5.060  -0.830  57.941  0.00  0.00    -0.296 OA
ATOM     80  S2  SGN d 302      -8.533   1.086  50.626  0.00  0.00     0.251 S 
ATOM     81  O5  SGN d 302      -5.899  -0.062  53.631  0.00  0.00    -0.349 OA
ATOM     82  O1S SGN d 302      -4.954  -3.074  58.615  0.00  0.00    -0.296 OA
ATOM     83  O6S SGN d 302      -7.719   2.245  50.875  0.00  0.00    -0.572 OA
ATOM     84  N   SGN d 302      -5.465  -2.609  56.130  0.00  0.00    -0.210 NA
ATOM     85  O5S SGN d 302      -8.569   0.836  49.230  0.00  0.00    -0.572 OA
ATOM     86  C4  SGN d 302      -6.807  -2.146  52.759  0.00  0.00     0.095 C 
ATOM     87  O3  SGN d 302      -7.147  -3.903  54.289  0.00  0.00    -0.391 OA
ATOM     88  C2  SGN d 302      -6.211  -1.871  55.155  0.00  0.00     0.081 C 
ATOM     89  O2S SGN d 302      -6.978  -2.052  58.097  0.00  0.00    -0.296 OA
ATOM     90  O1  SGN d 302      -4.011  -1.038  54.685  0.00  0.00    -0.348 OA
ATOM     91  C5  SGN d 302      -5.893  -0.945  52.515  0.00  0.00     0.091 C 
ATOM     92  S1  SGN d 302      -5.617  -2.121  57.789  0.00  0.00     0.156 S 
ATOM     93  C6  SGN d 302      -6.368  -0.170  51.342  0.00  0.00     0.067 C 
ATOM     94  O4S SGN d 302      -9.855   1.190  51.128  0.00  0.00    -0.572 OA
ATOM     95  C3  SGN d 302      -6.284  -2.832  53.987  0.00  0.00     0.083 C 
ATOM     96  H   SGN d 302      -5.410   0.098  55.605  0.00  0.00     0.131 H 
ATOM     97  H   SGN d 302      -4.113  -0.860  57.732  0.00  0.00     0.231 HD
ATOM     98  H   SGN d 302      -4.013  -3.103  58.383  0.00  0.00     0.231 HD
ATOM     99  H   SGN d 302      -4.479  -2.538  55.879  0.00  0.00     0.140 HD
ATOM    100  H   SGN d 302      -7.828  -1.832  52.826  0.00  0.00     0.091 H 
ATOM    101  H   SGN d 302      -7.185  -4.511  53.534  0.00  0.00     0.210 HD
ATOM    102  H   SGN d 302      -7.187  -1.545  55.447  0.00  0.00     0.076 H 
ATOM    103  H   SGN d 302      -7.087  -1.780  59.022  0.00  0.00     0.231 HD
ATOM    104  H   SGN d 302      -4.907  -1.328  52.352  0.00  0.00     0.090 H 
ATOM    105  H   SGN d 302      -6.056   0.851  51.421  0.00  0.00     0.080 H 
ATOM    106  H   SGN d 302      -5.965  -0.556  50.429  0.00  0.00     0.080 H 
ATOM    107  H   SGN d 302      -5.293  -3.190  53.804  0.00  0.00     0.089 H 
ATOM    108  O2S SGN d 304       4.025   3.353  50.288  0.00  0.00    -0.296 OA
ATOM    109  C1  SGN d 304       3.731  -1.010  51.997  0.00  0.00     0.150 C 
ATOM    110  S2  SGN d 304       0.901  -4.740  51.384  0.00  0.00     0.251 S 
ATOM    111  O4  SGN d 304       0.474  -1.117  54.530  0.00  0.00    -0.348 OA
ATOM    112  C6  SGN d 304       1.707  -3.579  53.778  0.00  0.00     0.067 C 
ATOM    113  O4S SGN d 304      -0.362  -5.158  51.907  0.00  0.00    -0.572 OA
ATOM    114  O1  SGN d 304       4.580  -0.691  53.081  0.00  0.00    -0.348 OA
ATOM    115  O5  SGN d 304       3.037  -2.221  52.252  0.00  0.00    -0.349 OA
ATOM    116  S1  SGN d 304       3.773   1.955  50.128  0.00  0.00     0.156 S 
ATOM    117  O5S SGN d 304       1.418  -5.740  50.500  0.00  0.00    -0.572 OA
ATOM    118  C3  SGN d 304       1.921   0.211  53.140  0.00  0.00     0.083 C 
ATOM    119  N   SGN d 304       3.481   1.334  51.761  0.00  0.00    -0.210 NA
ATOM    120  O1S SGN d 304       4.895   1.302  49.513  0.00  0.00    -0.296 OA
ATOM    121  O6  SGN d 304       2.023  -4.515  52.745  0.00  0.00    -0.254 OA
ATOM    122  C4  SGN d 304       1.241  -1.137  53.342  0.00  0.00     0.095 C 
ATOM    123  C5  SGN d 304       2.296  -2.211  53.464  0.00  0.00     0.091 C 
ATOM    124  C2  SGN d 304       2.736   0.115  51.884  0.00  0.00     0.081 C 
ATOM    125  O6S SGN d 304       0.748  -3.503  50.662  0.00  0.00    -0.572 OA
ATOM    126  O3  SGN d 304       0.979   1.249  52.977  0.00  0.00    -0.391 OA
ATOM    127  O3S SGN d 304       2.598   1.750  49.321  0.00  0.00    -0.296 OA
ATOM    128  H   SGN d 304       4.818   3.479  50.833  0.00  0.00     0.231 HD
ATOM    129  H   SGN d 304       4.297  -1.132  51.097  0.00  0.00     0.131 H 
ATOM    130  H   SGN d 304       0.644  -3.493  53.861  0.00  0.00     0.080 H 
ATOM    131  H   SGN d 304       2.125  -3.929  54.699  0.00  0.00     0.080 H 
ATOM    132  H   SGN d 304       2.518   0.434  53.999  0.00  0.00     0.089 H 
ATOM    133  H   SGN d 304       2.974   2.054  52.275  0.00  0.00     0.140 HD
ATOM    134  H   SGN d 304       5.687   1.441  50.056  0.00  0.00     0.231 HD
ATOM    135  H   SGN d 304       0.603  -1.336  52.507  0.00  0.00     0.091 H 
ATOM    136  H   SGN d 304       2.937  -1.990  54.292  0.00  0.00     0.090 H 
ATOM    137  H   SGN d 304       2.091  -0.055  51.047  0.00  0.00     0.076 H 
ATOM    138  H   SGN d 304       0.427   1.065  52.201  0.00  0.00     0.210 HD
ATOM    139  H   SGN d 304       1.840   2.191  49.736  0.00  0.00     0.231 HD
ATOM    140  O1S UAP d 301      -8.002  -2.509  47.394  0.00  0.00    -0.572 OA
ATOM    141  C3  UAP d 301      -6.785  -5.631  50.282  0.00  0.00     0.086 C 
ATOM    142  O62 UAP d 301     -10.733  -5.236  52.729  0.00  0.00    -0.642 OA
ATOM    143  C2  UAP d 301      -7.204  -4.288  49.739  0.00  0.00     0.135 C 
ATOM    144  O61 UAP d 301      -9.726  -7.142  52.656  0.00  0.00    -0.642 OA
ATOM    145  C1  UAP d 301      -7.686  -3.371  50.843  0.00  0.00     0.167 C 
ATOM    146  C5  UAP d 301      -8.661  -5.345  51.813  0.00  0.00     0.147 C 
ATOM    147  C4  UAP d 301      -7.679  -6.125  51.313  0.00  0.00    -0.034 C 
ATOM    148  O3S UAP d 301      -7.209  -4.601  46.623  0.00  0.00    -0.572 OA
ATOM    149  C6  UAP d 301      -9.716  -5.919  52.466  0.00  0.00     0.233 C 
ATOM    150  O5  UAP d 301      -8.773  -4.021  51.485  0.00  0.00    -0.311 OA
ATOM    151  O2S UAP d 301      -9.531  -4.091  46.678  0.00  0.00    -0.572 OA
ATOM    152  O2  UAP d 301      -8.320  -4.512  48.928  0.00  0.00    -0.244 OA
ATOM    153  O3  UAP d 301      -5.462  -5.562  50.677  0.00  0.00    -0.389 OA
ATOM    154  S   UAP d 301      -8.265  -3.901  47.296  0.00  0.00     0.252 S 
ATOM    155  H   UAP d 301      -6.861  -6.364  49.506  0.00  0.00     0.093 H 
ATOM    156  H   UAP d 301      -6.371  -3.846  49.233  0.00  0.00     0.097 H 
ATOM    157  H   UAP d 301      -8.032  -2.426  50.479  0.00  0.00     0.134 H 
ATOM    158  H   UAP d 301      -7.563  -7.087  51.668  0.00  0.00     0.085 H 
ATOM    159  H   UAP d 301      -5.369  -4.902  51.381  0.00  0.00     0.210 HD
ENDROOT
TORSDOF 50
ENDMDL
MODEL 38
REMARK VINA RESULT:      -7.1      3.020      5.225
REMARK  0 active torsions:
REMARK  status: ('A' for Active; 'I' for Inactive)
REMARK       I    between atoms: C3_1  and  O3_85 
REMARK       I    between atoms: C6_2  and  C5_22 
REMARK       I    between atoms: C6_3  and  C5_14 
REMARK       I    between atoms: C6_3  and  O6_30 
REMARK       I    between atoms: C1_4  and  O1_84 
REMARK       I    between atoms: O2S_6  and  S1_45 
REMARK       I    between atoms: C1_7  and  O1_36 
REMARK       I    between atoms: S1_10  and  N_69 
REMARK       I    between atoms: S1_10  and  O1S_27 
REMARK       I    between atoms: S1_10  and  O2S_71 
REMARK       I    between atoms: S1_10  and  O3S_88 
REMARK       I    between atoms: O4_11  and  C1_42 
REMARK       I    between atoms: O4_11  and  C4_63 
REMARK       I    between atoms: O6_12  and  C6_94 
REMARK       I    between atoms: O6_12  and  S2_28 
REMARK       I    between atoms: C1_13  and  O4_51 
REMARK       I    between atoms: S2_16  and  O6_76 
REMARK       I    between atoms: C3_18  and  O3_103 
REMARK       I    between atoms: C1_19  and  O1_37 
REMARK       I    between atoms: O4_20  and  C1_23 
REMARK       I    between atoms: O4_20  and  C4_77 
REMARK       I    between atoms: O3S_21  and  S1_92 
REMARK       I    between atoms: C3_24  and  O3_87 
REMARK       I    between atoms: O3_25  and  C3_46 
REMARK       I    between atoms: C6_29  and  C5_79 
REMARK       I    between atoms: C6_29  and  O6_76 
REMARK       I    between atoms: O6_30  and  S2_31 
REMARK       I    between atoms: O1_36  and  C4_81 
REMARK       I    between atoms: C2_38  and  O2_72 
REMARK       I    between atoms: S1_45  and  N_74 
REMARK       I    between atoms: S1_45  and  O1S_75 
REMARK       I    between atoms: S1_45  and  O3S_101 
REMARK       I    between atoms: O1S_47  and  S1_92 
REMARK       I    between atoms: S_48  and  O2_91 
REMARK       I    between atoms: C5_49  and  C6_67 
REMARK       I    between atoms: O4_51  and  C4_57 
REMARK       I    between atoms: N_52  and  C2_73 
REMARK       I    between atoms: N_52  and  S1_92 
REMARK       I    between atoms: C5_53  and  C6_61 
REMARK       I    between atoms: C4_56  and  O1_84 
REMARK       I    between atoms: C2_62  and  O2_91 
REMARK       I    between atoms: S_66  and  O2_105 
REMARK       I    between atoms: O3_68  and  C3_102 
REMARK       I    between atoms: N_69  and  C2_83 
REMARK       I    between atoms: C3_70  and  O3_98 
REMARK       I    between atoms: O2_72  and  S_96 
REMARK       I    between atoms: N_74  and  C2_86 
REMARK       I    between atoms: O2S_80  and  S1_92 
REMARK       I    between atoms: C5_89  and  C6_94 
REMARK       I    between atoms: C2_104  and  O2_105 
ROOT
ATOM      1  C3  IDS d 305      -2.282   5.928  56.402  0.00  0.00     0.094 C 
ATOM      2  O3S IDS d 305      -5.692   7.530  59.403  0.00  0.00    -0.572 OA
ATOM      3  C1  IDS d 305      -4.576   5.121  56.753  0.00  0.00     0.161 C 
ATOM      4  O62 IDS d 305      -3.228   2.328  54.260  0.00  0.00    -0.646 OA
ATOM      5  O5  IDS d 305      -4.093   4.176  55.822  0.00  0.00    -0.340 OA
ATOM      6  O61 IDS d 305      -1.849   1.499  55.791  0.00  0.00    -0.646 OA
ATOM      7  O1S IDS d 305      -3.769   8.935  59.602  0.00  0.00    -0.572 OA
ATOM      8  C5  IDS d 305      -2.948   3.510  56.325  0.00  0.00     0.152 C 
ATOM      9  S   IDS d 305      -4.247   7.614  59.256  0.00  0.00     0.252 S 
ATOM     10  C6  IDS d 305      -2.669   2.343  55.388  0.00  0.00     0.206 C 
ATOM     11  C4  IDS d 305      -1.769   4.503  56.306  0.00  0.00     0.103 C 
ATOM     12  O3  IDS d 305      -1.276   6.740  56.914  0.00  0.00    -0.390 OA
ATOM     13  O2S IDS d 305      -3.606   6.636  60.086  0.00  0.00    -0.572 OA
ATOM     14  C2  IDS d 305      -3.403   5.891  57.379  0.00  0.00     0.134 C 
ATOM     15  O2  IDS d 305      -3.764   7.231  57.607  0.00  0.00    -0.244 OA
ATOM     16  H   IDS d 305      -2.589   6.305  55.449  0.00  0.00     0.091 H 
ATOM     17  H   IDS d 305      -5.224   5.839  56.296  0.00  0.00     0.133 H 
ATOM     18  H   IDS d 305      -3.091   3.155  57.325  0.00  0.00     0.104 H 
ATOM     19  H   IDS d 305      -1.144   4.267  57.142  0.00  0.00     0.092 H 
ATOM     20  H   IDS d 305      -0.996   6.402  57.778  0.00  0.00     0.210 HD
ATOM     21  H   IDS d 305      -3.133   5.406  58.294  0.00  0.00     0.097 H 
ATOM     22  C6  IDS d 303       4.540   3.185  50.293  0.00  0.00     0.206 C 
ATOM     23  O61 IDS d 303       4.506   3.362  49.083  0.00  0.00    -0.646 OA
ATOM     24  C5  IDS d 303       3.729   2.089  50.887  0.00  0.00     0.152 C 
ATOM     25  C1  IDS d 303       3.041   1.174  52.954  0.00  0.00     0.161 C 
ATOM     26  O3  IDS d 303       1.620   0.164  50.487  0.00  0.00    -0.390 OA
ATOM     27  O2S IDS d 303       2.943  -2.919  53.551  0.00  0.00    -0.572 OA
ATOM     28  O5  IDS d 303       4.005   2.001  52.290  0.00  0.00    -0.340 OA
ATOM     29  C3  IDS d 303       2.908  -0.224  50.827  0.00  0.00     0.094 C 
ATOM     30  S   IDS d 303       3.816  -1.922  54.046  0.00  0.00     0.252 S 
ATOM     31  C4  IDS d 303       3.961   0.734  50.233  0.00  0.00     0.103 C 
ATOM     32  O1S IDS d 303       5.058  -2.445  54.460  0.00  0.00    -0.572 OA
ATOM     33  C2  IDS d 303       3.015  -0.218  52.322  0.00  0.00     0.134 C 
ATOM     34  O3S IDS d 303       3.114  -1.301  55.107  0.00  0.00    -0.572 OA
ATOM     35  O2  IDS d 303       4.124  -0.894  52.714  0.00  0.00    -0.244 OA
ATOM     36  O62 IDS d 303       5.033   3.969  51.076  0.00  0.00    -0.646 OA
ATOM     37  H   IDS d 303       2.702   2.337  50.714  0.00  0.00     0.104 H 
ATOM     38  H   IDS d 303       3.344   1.080  53.976  0.00  0.00     0.133 H 
ATOM     39  H   IDS d 303       0.983  -0.455  50.873  0.00  0.00     0.210 HD
ATOM     40  H   IDS d 303       3.096  -1.200  50.431  0.00  0.00     0.091 H 
ATOM     41  H   IDS d 303       3.873   0.752  49.166  0.00  0.00     0.092 H 
ATOM     42  H   IDS d 303       2.122  -0.694  52.669  0.00  0.00     0.097 H 
ATOM     43  C6  SGN d 306      -7.406   6.139  57.055  0.00  0.00     0.067 C 
ATOM     44  S1  SGN d 306      -9.459  -0.410  57.866  0.00  0.00     0.156 S 
ATOM     45  C5  SGN d 306      -7.574   4.824  57.797  0.00  0.00     0.091 C 
ATOM     46  C3  SGN d 306      -6.713   2.482  57.912  0.00  0.00     0.083 C 
ATOM     47  C1  SGN d 306      -9.169   3.040  58.121  0.00  0.00     0.147 C 
ATOM     48  O1S SGN d 306      -9.479  -1.473  58.837  0.00  0.00    -0.296 OA
ATOM     49  O6  SGN d 306      -7.148   5.865  55.679  0.00  0.00    -0.254 OA
ATOM     50  S2  SGN d 306      -7.379   7.136  54.468  0.00  0.00     0.251 S 
ATOM     51  O4S SGN d 306      -6.117   7.703  54.083  0.00  0.00    -0.572 OA
ATOM     52  O1  SGN d 306      -9.119   3.137  59.537  0.00  0.00    -0.369 OA
ATOM     53  O4  SGN d 306      -5.238   4.362  57.742  0.00  0.00    -0.348 OA
ATOM     54  C4  SGN d 306      -6.502   3.863  57.309  0.00  0.00     0.095 C 
ATOM     55  N   SGN d 306      -8.330   0.817  58.434  0.00  0.00    -0.210 NA
ATOM     56  O2S SGN d 306      -8.980  -0.896  56.604  0.00  0.00    -0.296 OA
ATOM     57  O5  SGN d 306      -8.886   4.289  57.505  0.00  0.00    -0.350 OA
ATOM     58  O6S SGN d 306      -7.994   6.533  53.316  0.00  0.00    -0.572 OA
ATOM     59  C2  SGN d 306      -8.140   2.017  57.646  0.00  0.00     0.081 C 
ATOM     60  O3S SGN d 306     -10.779   0.150  57.732  0.00  0.00    -0.296 OA
ATOM     61  O5S SGN d 306      -8.257   8.141  55.015  0.00  0.00    -0.572 OA
ATOM     62  O3  SGN d 306      -5.874   1.580  57.204  0.00  0.00    -0.391 OA
ATOM     63  H   SGN d 306      -6.587   6.685  57.472  0.00  0.00     0.080 H 
ATOM     64  H   SGN d 306      -8.299   6.722  57.146  0.00  0.00     0.080 H 
ATOM     65  H   SGN d 306      -7.477   4.966  58.853  0.00  0.00     0.090 H 
ATOM     66  H   SGN d 306      -6.509   2.514  58.962  0.00  0.00     0.089 H 
ATOM     67  H   SGN d 306     -10.158   2.737  57.846  0.00  0.00     0.131 H 
ATOM     68  H   SGN d 306      -8.588  -1.847  58.925  0.00  0.00     0.231 HD
ATOM     69  H   SGN d 306      -8.230   3.411  59.811  0.00  0.00     0.212 HD
ATOM     70  H   SGN d 306      -6.546   3.784  56.243  0.00  0.00     0.091 H 
ATOM     71  H   SGN d 306      -7.418   0.368  58.518  0.00  0.00     0.140 HD
ATOM     72  H   SGN d 306      -8.092  -1.267  56.717  0.00  0.00     0.231 HD
ATOM     73  H   SGN d 306      -8.273   1.868  56.595  0.00  0.00     0.076 H 
ATOM     74  H   SGN d 306     -11.084   0.472  58.595  0.00  0.00     0.231 HD
ATOM     75  H   SGN d 306      -6.104   1.595  56.262  0.00  0.00     0.210 HD
ATOM     76  C1  SGN d 302       6.172  -0.014  49.545  0.00  0.00     0.150 C 
ATOM     77  O4  SGN d 302       9.489   1.062  51.798  0.00  0.00    -0.348 OA
ATOM     78  O6  SGN d 302       9.642   2.333  48.983  0.00  0.00    -0.254 OA
ATOM     79  O3S SGN d 302       4.489  -2.600  49.000  0.00  0.00    -0.296 OA
ATOM     80  S2  SGN d 302      10.168   3.341  47.700  0.00  0.00     0.251 S 
ATOM     81  O5  SGN d 302       6.980   1.093  49.140  0.00  0.00    -0.349 OA
ATOM     82  O1S SGN d 302       4.838  -4.177  50.700  0.00  0.00    -0.296 OA
ATOM     83  O6S SGN d 302       8.998   3.919  47.096  0.00  0.00    -0.572 OA
ATOM     84  N   SGN d 302       6.289  -2.045  50.749  0.00  0.00    -0.210 NA
ATOM     85  O5S SGN d 302      10.953   4.375  48.272  0.00  0.00    -0.572 OA
ATOM     86  C4  SGN d 302       8.839   0.574  50.624  0.00  0.00     0.095 C 
ATOM     87  O3  SGN d 302       8.972  -1.622  51.464  0.00  0.00    -0.391 OA
ATOM     88  C2  SGN d 302       7.111  -1.113  50.039  0.00  0.00     0.081 C 
ATOM     89  O2S SGN d 302       6.378  -3.875  48.984  0.00  0.00    -0.296 OA
ATOM     90  O1  SGN d 302       5.276   0.326  50.601  0.00  0.00    -0.348 OA
ATOM     91  C5  SGN d 302       7.811   1.611  50.173  0.00  0.00     0.091 C 
ATOM     92  S1  SGN d 302       5.449  -3.244  49.815  0.00  0.00     0.156 S 
ATOM     93  C6  SGN d 302       8.497   2.807  49.624  0.00  0.00     0.067 C 
ATOM     94  O4S SGN d 302      10.961   2.577  46.807  0.00  0.00    -0.572 OA
ATOM     95  C3  SGN d 302       8.057  -0.611  51.109  0.00  0.00     0.083 C 
ATOM     96  H   SGN d 302       5.581  -0.327  48.711  0.00  0.00     0.131 H 
ATOM     97  H   SGN d 302       3.833  -2.156  49.561  0.00  0.00     0.231 HD
ATOM     98  H   SGN d 302       4.198  -3.716  51.264  0.00  0.00     0.231 HD
ATOM     99  H   SGN d 302       5.588  -1.508  51.259  0.00  0.00     0.140 HD
ATOM    100  H   SGN d 302       9.526   0.359  49.832  0.00  0.00     0.091 H 
ATOM    101  H   SGN d 302       9.572  -1.289  52.150  0.00  0.00     0.210 HD
ATOM    102  H   SGN d 302       7.650  -1.496  49.197  0.00  0.00     0.076 H 
ATOM    103  H   SGN d 302       5.930  -4.550  48.452  0.00  0.00     0.231 HD
ATOM    104  H   SGN d 302       7.221   1.864  51.029  0.00  0.00     0.090 H 
ATOM    105  H   SGN d 302       7.861   3.312  48.926  0.00  0.00     0.080 H 
ATOM    106  H   SGN d 302       8.741   3.508  50.395  0.00  0.00     0.080 H 
ATOM    107  H   SGN d 302       7.465  -0.330  51.954  0.00  0.00     0.089 H 
ATOM    108  O2S SGN d 304      -0.595   8.440  52.295  0.00  0.00    -0.296 OA
ATOM    109  C1  SGN d 304       0.297   4.893  55.238  0.00  0.00     0.150 C 
ATOM    110  S2  SGN d 304       4.142   2.814  57.023  0.00  0.00     0.251 S 
ATOM    111  O4  SGN d 304       1.750   1.761  52.978  0.00  0.00    -0.348 OA
ATOM    112  C6  SGN d 304       1.946   1.606  55.821  0.00  0.00     0.067 C 
ATOM    113  O4S SGN d 304       5.054   1.806  56.581  0.00  0.00    -0.572 OA
ATOM    114  O1  SGN d 304      -1.019   4.395  55.108  0.00  0.00    -0.348 OA
ATOM    115  O5  SGN d 304       1.145   3.907  55.806  0.00  0.00    -0.349 OA
ATOM    116  S1  SGN d 304       0.159   7.845  53.354  0.00  0.00     0.156 S 
ATOM    117  O5S SGN d 304       4.487   3.237  58.346  0.00  0.00    -0.572 OA
ATOM    118  C3  SGN d 304       0.799   3.970  53.009  0.00  0.00     0.083 C 
ATOM    119  N   SGN d 304      -0.180   6.110  53.262  0.00  0.00    -0.210 NA
ATOM    120  O1S SGN d 304      -0.233   8.389  54.625  0.00  0.00    -0.296 OA
ATOM    121  O6  SGN d 304       2.504   2.123  57.031  0.00  0.00    -0.254 OA
ATOM    122  C4  SGN d 304       1.707   2.969  53.710  0.00  0.00     0.095 C 
ATOM    123  C5  SGN d 304       1.159   2.682  55.088  0.00  0.00     0.091 C 
ATOM    124  C2  SGN d 304       0.776   5.215  53.848  0.00  0.00     0.081 C 
ATOM    125  O6S SGN d 304       4.195   3.946  56.135  0.00  0.00    -0.572 OA
ATOM    126  O3  SGN d 304       1.288   4.309  51.730  0.00  0.00    -0.391 OA
ATOM    127  O3S SGN d 304       1.567   8.070  53.151  0.00  0.00    -0.296 OA
ATOM    128  H   SGN d 304      -1.541   8.283  52.443  0.00  0.00     0.231 HD
ATOM    129  H   SGN d 304       0.313   5.755  55.874  0.00  0.00     0.131 H 
ATOM    130  H   SGN d 304       2.737   1.259  55.190  0.00  0.00     0.080 H 
ATOM    131  H   SGN d 304       1.284   0.801  56.064  0.00  0.00     0.080 H 
ATOM    132  H   SGN d 304      -0.173   3.539  52.892  0.00  0.00     0.089 H 
ATOM    133  H   SGN d 304      -0.262   5.866  52.275  0.00  0.00     0.140 HD
ATOM    134  H   SGN d 304      -1.181   8.238  54.763  0.00  0.00     0.231 HD
ATOM    135  H   SGN d 304       2.692   3.380  53.781  0.00  0.00     0.091 H 
ATOM    136  H   SGN d 304       0.167   2.288  55.002  0.00  0.00     0.090 H 
ATOM    137  H   SGN d 304       1.757   5.638  53.891  0.00  0.00     0.076 H 
ATOM    138  H   SGN d 304       2.170   4.703  51.815  0.00  0.00     0.210 HD
ATOM    139  H   SGN d 304       1.831   7.703  52.292  0.00  0.00     0.231 HD
ATOM    140  O1S UAP d 301      12.508   4.510  51.800  0.00  0.00    -0.572 OA
ATOM    141  C3  UAP d 301      11.191   1.014  54.167  0.00  0.00     0.086 C 
ATOM    142  O62 UAP d 301      13.074  -2.020  51.170  0.00  0.00    -0.642 OA
ATOM    143  C2  UAP d 301      11.337   1.967  53.008  0.00  0.00     0.135 C 
ATOM    144  O61 UAP d 301      12.939  -2.548  53.257  0.00  0.00    -0.642 OA
ATOM    145  C1  UAP d 301      10.885   1.333  51.710  0.00  0.00     0.167 C 
ATOM    146  C5  UAP d 301      11.876  -0.688  52.561  0.00  0.00     0.147 C 
ATOM    147  C4  UAP d 301      11.586  -0.342  53.833  0.00  0.00    -0.034 C 
ATOM    148  O3S UAP d 301      12.945   4.412  54.123  0.00  0.00    -0.572 OA
ATOM    149  C6  UAP d 301      12.609  -1.815  52.316  0.00  0.00     0.233 C 
ATOM    150  O5  UAP d 301      11.676   0.169  51.513  0.00  0.00    -0.311 OA
ATOM    151  O2S UAP d 301      14.625   3.910  52.516  0.00  0.00    -0.572 OA
ATOM    152  O2  UAP d 301      12.706   2.203  52.851  0.00  0.00    -0.244 OA
ATOM    153  O3  UAP d 301       9.908   1.114  54.671  0.00  0.00    -0.389 OA
ATOM    154  S   UAP d 301      13.239   3.862  52.831  0.00  0.00     0.252 S 
ATOM    155  H   UAP d 301      11.874   1.294  54.943  0.00  0.00     0.093 H 
ATOM    156  H   UAP d 301      10.757   2.844  53.208  0.00  0.00     0.097 H 
ATOM    157  H   UAP d 301      11.021   1.973  50.863  0.00  0.00     0.134 H 
ATOM    158  H   UAP d 301      11.646  -1.052  54.580  0.00  0.00     0.085 H 
ATOM    159  H   UAP d 301       9.270   0.864  53.984  0.00  0.00     0.210 HD
ENDROOT
TORSDOF 50
ENDMDL
MODEL 39
REMARK VINA RESULT:      -7.0      4.589     15.124
REMARK  0 active torsions:
REMARK  status: ('A' for Active; 'I' for Inactive)
REMARK       I    between atoms: C3_1  and  O3_85 
REMARK       I    between atoms: C6_2  and  C5_22 
REMARK       I    between atoms: C6_3  and  C5_14 
REMARK       I    between atoms: C6_3  and  O6_30 
REMARK       I    between atoms: C1_4  and  O1_84 
REMARK       I    between atoms: O2S_6  and  S1_45 
REMARK       I    between atoms: C1_7  and  O1_36 
REMARK       I    between atoms: S1_10  and  N_69 
REMARK       I    between atoms: S1_10  and  O1S_27 
REMARK       I    between atoms: S1_10  and  O2S_71 
REMARK       I    between atoms: S1_10  and  O3S_88 
REMARK       I    between atoms: O4_11  and  C1_42 
REMARK       I    between atoms: O4_11  and  C4_63 
REMARK       I    between atoms: O6_12  and  C6_94 
REMARK       I    between atoms: O6_12  and  S2_28 
REMARK       I    between atoms: C1_13  and  O4_51 
REMARK       I    between atoms: S2_16  and  O6_76 
REMARK       I    between atoms: C3_18  and  O3_103 
REMARK       I    between atoms: C1_19  and  O1_37 
REMARK       I    between atoms: O4_20  and  C1_23 
REMARK       I    between atoms: O4_20  and  C4_77 
REMARK       I    between atoms: O3S_21  and  S1_92 
REMARK       I    between atoms: C3_24  and  O3_87 
REMARK       I    between atoms: O3_25  and  C3_46 
REMARK       I    between atoms: C6_29  and  C5_79 
REMARK       I    between atoms: C6_29  and  O6_76 
REMARK       I    between atoms: O6_30  and  S2_31 
REMARK       I    between atoms: O1_36  and  C4_81 
REMARK       I    between atoms: C2_38  and  O2_72 
REMARK       I    between atoms: S1_45  and  N_74 
REMARK       I    between atoms: S1_45  and  O1S_75 
REMARK       I    between atoms: S1_45  and  O3S_101 
REMARK       I    between atoms: O1S_47  and  S1_92 
REMARK       I    between atoms: S_48  and  O2_91 
REMARK       I    between atoms: C5_49  and  C6_67 
REMARK       I    between atoms: O4_51  and  C4_57 
REMARK       I    between atoms: N_52  and  C2_73 
REMARK       I    between atoms: N_52  and  S1_92 
REMARK       I    between atoms: C5_53  and  C6_61 
REMARK       I    between atoms: C4_56  and  O1_84 
REMARK       I    between atoms: C2_62  and  O2_91 
REMARK       I    between atoms: S_66  and  O2_105 
REMARK       I    between atoms: O3_68  and  C3_102 
REMARK       I    between atoms: N_69  and  C2_83 
REMARK       I    between atoms: C3_70  and  O3_98 
REMARK       I    between atoms: O2_72  and  S_96 
REMARK       I    between atoms: N_74  and  C2_86 
REMARK       I    between atoms: O2S_80  and  S1_92 
REMARK       I    between atoms: C5_89  and  C6_94 
REMARK       I    between atoms: C2_104  and  O2_105 
ROOT
ATOM      1  C3  IDS d 305       7.290  -0.315  51.627  0.00  0.00     0.094 C 
ATOM      2  O3S IDS d 305      12.094  -0.656  51.583  0.00  0.00    -0.572 OA
ATOM      3  C1  IDS d 305       8.970   0.963  52.884  0.00  0.00     0.161 C 
ATOM      4  O62 IDS d 305       5.640   2.362  54.551  0.00  0.00    -0.646 OA
ATOM      5  O5  IDS d 305       7.773   1.486  53.417  0.00  0.00    -0.340 OA
ATOM      6  O61 IDS d 305       5.212   0.421  55.541  0.00  0.00    -0.646 OA
ATOM      7  O1S IDS d 305      11.199  -2.194  49.989  0.00  0.00    -0.572 OA
ATOM      8  C5  IDS d 305       6.985   0.460  53.994  0.00  0.00     0.152 C 
ATOM      9  S   IDS d 305      10.944  -1.466  51.212  0.00  0.00     0.252 S 
ATOM     10  C6  IDS d 305       5.867   1.144  54.771  0.00  0.00     0.206 C 
ATOM     11  C4  IDS d 305       6.396  -0.392  52.851  0.00  0.00     0.103 C 
ATOM     12  O3  IDS d 305       7.079  -1.442  50.839  0.00  0.00    -0.390 OA
ATOM     13  O2S IDS d 305      10.625  -2.386  52.265  0.00  0.00    -0.572 OA
ATOM     14  C2  IDS d 305       8.685  -0.351  52.141  0.00  0.00     0.134 C 
ATOM     15  O2  IDS d 305       9.512  -0.461  51.008  0.00  0.00    -0.244 OA
ATOM     16  H   IDS d 305       7.095   0.562  51.047  0.00  0.00     0.091 H 
ATOM     17  H   IDS d 305       9.425   1.635  52.186  0.00  0.00     0.133 H 
ATOM     18  H   IDS d 305       7.554  -0.172  54.645  0.00  0.00     0.104 H 
ATOM     19  H   IDS d 305       6.328  -1.397  53.211  0.00  0.00     0.092 H 
ATOM     20  H   IDS d 305       7.255  -2.239  51.362  0.00  0.00     0.210 HD
ATOM     21  H   IDS d 305       8.852  -1.163  52.817  0.00  0.00     0.097 H 
ATOM     22  C6  IDS d 303      -2.237   0.390  51.250  0.00  0.00     0.206 C 
ATOM     23  O61 IDS d 303      -2.848   1.316  50.737  0.00  0.00    -0.646 OA
ATOM     24  C5  IDS d 303      -1.629   0.581  52.594  0.00  0.00     0.152 C 
ATOM     25  C1  IDS d 303      -0.214  -0.456  54.177  0.00  0.00     0.161 C 
ATOM     26  O3  IDS d 303      -0.873   2.455  54.651  0.00  0.00    -0.390 OA
ATOM     27  O2S IDS d 303      -1.091  -0.350  58.219  0.00  0.00    -0.572 OA
ATOM     28  O5  IDS d 303      -1.062  -0.657  53.040  0.00  0.00    -0.340 OA
ATOM     29  C3  IDS d 303      -1.774   1.429  54.894  0.00  0.00     0.094 C 
ATOM     30  S   IDS d 303      -1.152  -1.402  57.276  0.00  0.00     0.252 S 
ATOM     31  C4  IDS d 303      -2.608   1.102  53.638  0.00  0.00     0.103 C 
ATOM     32  O1S IDS d 303      -2.020  -2.440  57.675  0.00  0.00    -0.572 OA
ATOM     33  C2  IDS d 303      -0.996   0.215  55.307  0.00  0.00     0.134 C 
ATOM     34  O3S IDS d 303       0.183  -1.847  57.122  0.00  0.00    -0.572 OA
ATOM     35  O2  IDS d 303      -1.824  -0.702  55.867  0.00  0.00    -0.244 OA
ATOM     36  O62 IDS d 303      -1.913  -0.617  50.656  0.00  0.00    -0.646 OA
ATOM     37  H   IDS d 303      -0.874   1.331  52.487  0.00  0.00     0.104 H 
ATOM     38  H   IDS d 303       0.113  -1.418  54.512  0.00  0.00     0.133 H 
ATOM     39  H   IDS d 303      -0.365   2.637  55.457  0.00  0.00     0.210 HD
ATOM     40  H   IDS d 303      -2.452   1.733  55.665  0.00  0.00     0.091 H 
ATOM     41  H   IDS d 303      -3.147   1.972  53.325  0.00  0.00     0.092 H 
ATOM     42  H   IDS d 303      -0.273   0.572  56.010  0.00  0.00     0.097 H 
ATOM     43  C6  SGN d 306      11.605   2.395  52.501  0.00  0.00     0.067 C 
ATOM     44  S1  SGN d 306      11.552   3.870  59.252  0.00  0.00     0.156 S 
ATOM     45  C5  SGN d 306      11.741   2.093  53.983  0.00  0.00     0.091 C 
ATOM     46  C3  SGN d 306      10.416   1.748  56.072  0.00  0.00     0.083 C 
ATOM     47  C1  SGN d 306      12.569   3.071  56.031  0.00  0.00     0.147 C 
ATOM     48  O1S SGN d 306      11.787   3.270  60.539  0.00  0.00    -0.296 OA
ATOM     49  O6  SGN d 306      10.534   3.318  52.312  0.00  0.00    -0.254 OA
ATOM     50  S2  SGN d 306      10.417   4.236  50.802  0.00  0.00     0.251 S 
ATOM     51  O4S SGN d 306       9.421   3.664  49.939  0.00  0.00    -0.572 OA
ATOM     52  O1  SGN d 306      13.373   1.943  56.344  0.00  0.00    -0.369 OA
ATOM     53  O4  SGN d 306       9.798   0.717  54.000  0.00  0.00    -0.348 OA
ATOM     54  C4  SGN d 306      10.347   1.908  54.561  0.00  0.00     0.095 C 
ATOM     55  N   SGN d 306      11.411   2.573  58.069  0.00  0.00    -0.210 NA
ATOM     56  O2S SGN d 306      10.313   4.594  59.258  0.00  0.00    -0.296 OA
ATOM     57  O5  SGN d 306      12.396   3.211  54.627  0.00  0.00    -0.350 OA
ATOM     58  O6S SGN d 306      10.031   5.581  51.139  0.00  0.00    -0.572 OA
ATOM     59  C2  SGN d 306      11.195   2.910  56.677  0.00  0.00     0.081 C 
ATOM     60  O3S SGN d 306      12.650   4.739  58.913  0.00  0.00    -0.296 OA
ATOM     61  O5S SGN d 306      11.712   4.249  50.168  0.00  0.00    -0.572 OA
ATOM     62  O3  SGN d 306       9.090   1.870  56.570  0.00  0.00    -0.391 OA
ATOM     63  H   SGN d 306      11.397   1.491  51.968  0.00  0.00     0.080 H 
ATOM     64  H   SGN d 306      12.517   2.817  52.132  0.00  0.00     0.080 H 
ATOM     65  H   SGN d 306      12.318   1.206  54.141  0.00  0.00     0.090 H 
ATOM     66  H   SGN d 306      10.873   0.811  56.314  0.00  0.00     0.089 H 
ATOM     67  H   SGN d 306      13.063   3.943  56.406  0.00  0.00     0.131 H 
ATOM     68  H   SGN d 306      11.046   2.685  60.763  0.00  0.00     0.231 HD
ATOM     69  H   SGN d 306      12.944   1.138  56.014  0.00  0.00     0.212 HD
ATOM     70  H   SGN d 306       9.745   2.761  54.331  0.00  0.00     0.091 H 
ATOM     71  H   SGN d 306      10.628   1.987  58.359  0.00  0.00     0.140 HD
ATOM     72  H   SGN d 306       9.588   3.992  59.488  0.00  0.00     0.231 HD
ATOM     73  H   SGN d 306      10.646   3.817  56.533  0.00  0.00     0.076 H 
ATOM     74  H   SGN d 306      13.477   4.230  58.914  0.00  0.00     0.231 HD
ATOM     75  H   SGN d 306       8.730   2.735  56.320  0.00  0.00     0.210 HD
ATOM     76  C1  SGN d 302      -4.910   0.323  53.761  0.00  0.00     0.150 C 
ATOM     77  O4  SGN d 302      -5.787  -3.628  52.836  0.00  0.00    -0.348 OA
ATOM     78  O6  SGN d 302      -7.114  -1.724  50.792  0.00  0.00    -0.254 OA
ATOM     79  O3S SGN d 302      -4.767   2.120  56.325  0.00  0.00    -0.296 OA
ATOM     80  S2  SGN d 302      -7.928  -1.197  49.379  0.00  0.00     0.251 S 
ATOM     81  O5  SGN d 302      -5.404  -0.012  52.462  0.00  0.00    -0.349 OA
ATOM     82  O1S SGN d 302      -4.556   0.791  58.245  0.00  0.00    -0.296 OA
ATOM     83  O6S SGN d 302      -7.207  -0.067  48.860  0.00  0.00    -0.572 OA
ATOM     84  N   SGN d 302      -4.951  -0.424  56.004  0.00  0.00    -0.210 NA
ATOM     85  O5S SGN d 302      -7.867  -2.258  48.438  0.00  0.00    -0.572 OA
ATOM     86  C4  SGN d 302      -6.123  -2.259  53.065  0.00  0.00     0.095 C 
ATOM     87  O3  SGN d 302      -6.436  -2.718  55.353  0.00  0.00    -0.391 OA
ATOM     88  C2  SGN d 302      -5.685  -0.513  54.778  0.00  0.00     0.081 C 
ATOM     89  O2S SGN d 302      -6.608   1.094  57.194  0.00  0.00    -0.296 OA
ATOM     90  O1  SGN d 302      -3.520   0.039  53.903  0.00  0.00    -0.348 OA
ATOM     91  C5  SGN d 302      -5.276  -1.391  52.134  0.00  0.00     0.091 C 
ATOM     92  S1  SGN d 302      -5.230   0.968  57.003  0.00  0.00     0.156 S 
ATOM     93  C6  SGN d 302      -5.731  -1.550  50.730  0.00  0.00     0.067 C 
ATOM     94  O4S SGN d 302      -9.281  -0.921  49.700  0.00  0.00    -0.572 OA
ATOM     95  C3  SGN d 302      -5.628  -1.992  54.455  0.00  0.00     0.083 C 
ATOM     96  H   SGN d 302      -5.041   1.374  53.914  0.00  0.00     0.131 H 
ATOM     97  H   SGN d 302      -3.810   2.050  56.183  0.00  0.00     0.231 HD
ATOM     98  H   SGN d 302      -3.603   0.706  58.085  0.00  0.00     0.231 HD
ATOM     99  H   SGN d 302      -3.959  -0.437  55.768  0.00  0.00     0.140 HD
ATOM    100  H   SGN d 302      -7.164  -2.060  52.917  0.00  0.00     0.091 H 
ATOM    101  H   SGN d 302      -6.391  -3.663  55.136  0.00  0.00     0.210 HD
ATOM    102  H   SGN d 302      -6.696  -0.163  54.799  0.00  0.00     0.076 H 
ATOM    103  H   SGN d 302      -6.788   1.868  57.751  0.00  0.00     0.231 HD
ATOM    104  H   SGN d 302      -4.259  -1.705  52.247  0.00  0.00     0.090 H 
ATOM    105  H   SGN d 302      -5.491  -0.676  50.161  0.00  0.00     0.080 H 
ATOM    106  H   SGN d 302      -5.252  -2.380  50.254  0.00  0.00     0.080 H 
ATOM    107  H   SGN d 302      -4.607  -2.299  54.540  0.00  0.00     0.089 H 
ATOM    108  O2S SGN d 304       4.454   1.457  47.774  0.00  0.00    -0.296 OA
ATOM    109  C1  SGN d 304       4.346  -0.926  51.817  0.00  0.00     0.150 C 
ATOM    110  S2  SGN d 304       1.804  -4.467  53.633  0.00  0.00     0.251 S 
ATOM    111  O4  SGN d 304       0.962   0.270  53.855  0.00  0.00    -0.348 OA
ATOM    112  C6  SGN d 304       2.394  -2.012  54.796  0.00  0.00     0.067 C 
ATOM    113  O4S SGN d 304       0.542  -4.581  54.296  0.00  0.00    -0.572 OA
ATOM    114  O1  SGN d 304       5.109   0.066  52.475  0.00  0.00    -0.348 OA
ATOM    115  O5  SGN d 304       3.718  -1.776  52.765  0.00  0.00    -0.349 OA
ATOM    116  S1  SGN d 304       4.304   0.243  48.513  0.00  0.00     0.156 S 
ATOM    117  O5S SGN d 304       2.435  -5.750  53.562  0.00  0.00    -0.572 OA
ATOM    118  C3  SGN d 304       2.397   0.577  51.948  0.00  0.00     0.083 C 
ATOM    119  N   SGN d 304       3.959   0.739  50.178  0.00  0.00    -0.210 NA
ATOM    120  O1S SGN d 304       5.500  -0.550  48.441  0.00  0.00    -0.296 OA
ATOM    121  O6  SGN d 304       2.829  -3.354  54.568  0.00  0.00    -0.254 OA
ATOM    122  C4  SGN d 304       1.796  -0.411  52.939  0.00  0.00     0.095 C 
ATOM    123  C5  SGN d 304       2.909  -1.085  53.706  0.00  0.00     0.091 C 
ATOM    124  C2  SGN d 304       3.288  -0.203  51.026  0.00  0.00     0.081 C 
ATOM    125  O6S SGN d 304       1.613  -3.958  52.300  0.00  0.00    -0.572 OA
ATOM    126  O3  SGN d 304       1.401   1.206  51.172  0.00  0.00    -0.391 OA
ATOM    127  O3S SGN d 304       3.193  -0.518  48.001  0.00  0.00    -0.296 OA
ATOM    128  H   SGN d 304       5.205   1.960  48.127  0.00  0.00     0.231 HD
ATOM    129  H   SGN d 304       4.970  -1.528  51.190  0.00  0.00     0.131 H 
ATOM    130  H   SGN d 304       1.324  -1.986  54.803  0.00  0.00     0.080 H 
ATOM    131  H   SGN d 304       2.779  -1.682  55.739  0.00  0.00     0.080 H 
ATOM    132  H   SGN d 304       2.929   1.333  52.487  0.00  0.00     0.089 H 
ATOM    133  H   SGN d 304       3.377   1.576  50.133  0.00  0.00     0.140 HD
ATOM    134  H   SGN d 304       6.248  -0.038  48.786  0.00  0.00     0.231 HD
ATOM    135  H   SGN d 304       1.221  -1.138  52.403  0.00  0.00     0.091 H 
ATOM    136  H   SGN d 304       3.485  -0.345  54.221  0.00  0.00     0.090 H 
ATOM    137  H   SGN d 304       2.705  -0.908  50.472  0.00  0.00     0.076 H 
ATOM    138  H   SGN d 304       0.908   0.535  50.674  0.00  0.00     0.210 HD
ATOM    139  H   SGN d 304       2.386   0.017  48.049  0.00  0.00     0.231 HD
ATOM    140  O1S UAP d 301      -6.979  -5.957  49.074  0.00  0.00    -0.572 OA
ATOM    141  C3  UAP d 301      -5.731  -6.511  53.281  0.00  0.00     0.086 C 
ATOM    142  O62 UAP d 301      -9.831  -5.034  54.936  0.00  0.00    -0.642 OA
ATOM    143  C2  UAP d 301      -6.204  -5.832  52.020  0.00  0.00     0.135 C 
ATOM    144  O61 UAP d 301      -8.701  -6.483  56.065  0.00  0.00    -0.642 OA
ATOM    145  C1  UAP d 301      -6.808  -4.475  52.315  0.00  0.00     0.167 C 
ATOM    146  C5  UAP d 301      -7.707  -5.505  54.296  0.00  0.00     0.147 C 
ATOM    147  C4  UAP d 301      -6.650  -6.339  54.391  0.00  0.00    -0.034 C 
ATOM    148  O3S UAP d 301      -6.008  -8.000  49.769  0.00  0.00    -0.572 OA
ATOM    149  C6  UAP d 301      -8.759  -5.642  55.158  0.00  0.00     0.233 C 
ATOM    150  O5  UAP d 301      -7.886  -4.681  53.217  0.00  0.00    -0.311 OA
ATOM    151  O2S UAP d 301      -8.358  -7.769  49.484  0.00  0.00    -0.572 OA
ATOM    152  O2  UAP d 301      -7.255  -6.605  51.517  0.00  0.00    -0.244 OA
ATOM    153  O3  UAP d 301      -4.441  -6.099  53.555  0.00  0.00    -0.389 OA
ATOM    154  S   UAP d 301      -7.145  -7.129  49.858  0.00  0.00     0.252 S 
ATOM    155  H   UAP d 301      -5.714  -7.570  53.126  0.00  0.00     0.093 H 
ATOM    156  H   UAP d 301      -5.374  -5.726  51.354  0.00  0.00     0.097 H 
ATOM    157  H   UAP d 301      -7.193  -3.991  51.442  0.00  0.00     0.134 H 
ATOM    158  H   UAP d 301      -6.493  -6.861  55.267  0.00  0.00     0.085 H 
ATOM    159  H   UAP d 301      -4.431  -5.139  53.699  0.00  0.00     0.210 HD
ENDROOT
TORSDOF 50
ENDMDL
MODEL 40
REMARK VINA RESULT:      -7.0      3.934      5.175
REMARK  0 active torsions:
REMARK  status: ('A' for Active; 'I' for Inactive)
REMARK       I    between atoms: C3_1  and  O3_85 
REMARK       I    between atoms: C6_2  and  C5_22 
REMARK       I    between atoms: C6_3  and  C5_14 
REMARK       I    between atoms: C6_3  and  O6_30 
REMARK       I    between atoms: C1_4  and  O1_84 
REMARK       I    between atoms: O2S_6  and  S1_45 
REMARK       I    between atoms: C1_7  and  O1_36 
REMARK       I    between atoms: S1_10  and  N_69 
REMARK       I    between atoms: S1_10  and  O1S_27 
REMARK       I    between atoms: S1_10  and  O2S_71 
REMARK       I    between atoms: S1_10  and  O3S_88 
REMARK       I    between atoms: O4_11  and  C1_42 
REMARK       I    between atoms: O4_11  and  C4_63 
REMARK       I    between atoms: O6_12  and  C6_94 
REMARK       I    between atoms: O6_12  and  S2_28 
REMARK       I    between atoms: C1_13  and  O4_51 
REMARK       I    between atoms: S2_16  and  O6_76 
REMARK       I    between atoms: C3_18  and  O3_103 
REMARK       I    between atoms: C1_19  and  O1_37 
REMARK       I    between atoms: O4_20  and  C1_23 
REMARK       I    between atoms: O4_20  and  C4_77 
REMARK       I    between atoms: O3S_21  and  S1_92 
REMARK       I    between atoms: C3_24  and  O3_87 
REMARK       I    between atoms: O3_25  and  C3_46 
REMARK       I    between atoms: C6_29  and  C5_79 
REMARK       I    between atoms: C6_29  and  O6_76 
REMARK       I    between atoms: O6_30  and  S2_31 
REMARK       I    between atoms: O1_36  and  C4_81 
REMARK       I    between atoms: C2_38  and  O2_72 
REMARK       I    between atoms: S1_45  and  N_74 
REMARK       I    between atoms: S1_45  and  O1S_75 
REMARK       I    between atoms: S1_45  and  O3S_101 
REMARK       I    between atoms: O1S_47  and  S1_92 
REMARK       I    between atoms: S_48  and  O2_91 
REMARK       I    between atoms: C5_49  and  C6_67 
REMARK       I    between atoms: O4_51  and  C4_57 
REMARK       I    between atoms: N_52  and  C2_73 
REMARK       I    between atoms: N_52  and  S1_92 
REMARK       I    between atoms: C5_53  and  C6_61 
REMARK       I    between atoms: C4_56  and  O1_84 
REMARK       I    between atoms: C2_62  and  O2_91 
REMARK       I    between atoms: S_66  and  O2_105 
REMARK       I    between atoms: O3_68  and  C3_102 
REMARK       I    between atoms: N_69  and  C2_83 
REMARK       I    between atoms: C3_70  and  O3_98 
REMARK       I    between atoms: O2_72  and  S_96 
REMARK       I    between atoms: N_74  and  C2_86 
REMARK       I    between atoms: O2S_80  and  S1_92 
REMARK       I    between atoms: C5_89  and  C6_94 
REMARK       I    between atoms: C2_104  and  O2_105 
ROOT
ATOM      1  C3  IDS d 305      -5.141  -0.516  55.137  0.00  0.00     0.094 C 
ATOM      2  O3S IDS d 305      -9.436  -2.655  55.549  0.00  0.00    -0.572 OA
ATOM      3  C1  IDS d 305      -6.810  -1.039  53.413  0.00  0.00     0.161 C 
ATOM      4  O62 IDS d 305      -3.837   0.288  51.126  0.00  0.00    -0.646 OA
ATOM      5  O5  IDS d 305      -5.763  -0.509  52.628  0.00  0.00    -0.340 OA
ATOM      6  O61 IDS d 305      -2.577  -1.483  51.578  0.00  0.00    -0.646 OA
ATOM      7  O1S IDS d 305      -8.477  -2.428  57.726  0.00  0.00    -0.572 OA
ATOM      8  C5  IDS d 305      -4.570  -1.252  52.807  0.00  0.00     0.152 C 
ATOM      9  S   IDS d 305      -8.202  -2.540  56.310  0.00  0.00     0.252 S 
ATOM     10  C6  IDS d 305      -3.593  -0.785  51.736  0.00  0.00     0.206 C 
ATOM     11  C4  IDS d 305      -4.014  -0.935  54.211  0.00  0.00     0.103 C 
ATOM     12  O3  IDS d 305      -4.758  -0.752  56.453  0.00  0.00    -0.390 OA
ATOM     13  O2S IDS d 305      -7.363  -3.679  56.071  0.00  0.00    -0.572 OA
ATOM     14  C2  IDS d 305      -6.287  -1.404  54.810  0.00  0.00     0.134 C 
ATOM     15  O2  IDS d 305      -7.270  -1.143  55.783  0.00  0.00    -0.244 OA
ATOM     16  H   IDS d 305      -5.385   0.519  55.023  0.00  0.00     0.091 H 
ATOM     17  H   IDS d 305      -7.609  -0.339  53.541  0.00  0.00     0.133 H 
ATOM     18  H   IDS d 305      -4.732  -2.307  52.725  0.00  0.00     0.104 H 
ATOM     19  H   IDS d 305      -3.537  -1.823  54.568  0.00  0.00     0.092 H 
ATOM     20  H   IDS d 305      -4.536  -1.690  56.561  0.00  0.00     0.210 HD
ATOM     21  H   IDS d 305      -6.016  -2.439  54.809  0.00  0.00     0.097 H 
ATOM     22  C6  IDS d 303       3.260   4.023  54.661  0.00  0.00     0.206 C 
ATOM     23  O61 IDS d 303       3.396   5.219  54.450  0.00  0.00    -0.646 OA
ATOM     24  C5  IDS d 303       2.951   3.117  53.522  0.00  0.00     0.152 C 
ATOM     25  C1  IDS d 303       2.364   0.888  53.005  0.00  0.00     0.161 C 
ATOM     26  O3  IDS d 303       2.116   2.907  50.771  0.00  0.00    -0.390 OA
ATOM     27  O2S IDS d 303       4.066  -1.078  49.787  0.00  0.00    -0.572 OA
ATOM     28  O5  IDS d 303       2.944   1.760  53.982  0.00  0.00    -0.340 OA
ATOM     29  C3  IDS d 303       3.336   2.407  51.203  0.00  0.00     0.094 C 
ATOM     30  S   IDS d 303       4.251  -1.231  51.181  0.00  0.00     0.252 S 
ATOM     31  C4  IDS d 303       3.917   3.256  52.353  0.00  0.00     0.103 C 
ATOM     32  O1S IDS d 303       5.479  -1.845  51.501  0.00  0.00    -0.572 OA
ATOM     33  C2  IDS d 303       3.119   1.002  51.681  0.00  0.00     0.134 C 
ATOM     34  O3S IDS d 303       3.140  -1.987  51.626  0.00  0.00    -0.572 OA
ATOM     35  O2  IDS d 303       4.309   0.362  51.802  0.00  0.00    -0.244 OA
ATOM     36  O62 IDS d 303       3.159   3.541  55.769  0.00  0.00    -0.646 OA
ATOM     37  H   IDS d 303       1.988   3.402  53.154  0.00  0.00     0.104 H 
ATOM     38  H   IDS d 303       2.459  -0.114  53.367  0.00  0.00     0.133 H 
ATOM     39  H   IDS d 303       1.778   2.354  50.050  0.00  0.00     0.210 HD
ATOM     40  H   IDS d 303       4.034   2.436  50.393  0.00  0.00     0.091 H 
ATOM     41  H   IDS d 303       4.051   4.266  52.025  0.00  0.00     0.092 H 
ATOM     42  H   IDS d 303       2.502   0.546  50.935  0.00  0.00     0.097 H 
ATOM     43  C6  SGN d 306      -9.782  -0.869  52.889  0.00  0.00     0.067 C 
ATOM     44  S1  SGN d 306      -8.661  -3.811  46.737  0.00  0.00     0.156 S 
ATOM     45  C5  SGN d 306      -9.465  -2.012  51.940  0.00  0.00     0.091 C 
ATOM     46  C3  SGN d 306      -7.655  -2.957  50.501  0.00  0.00     0.083 C 
ATOM     47  C1  SGN d 306     -10.072  -2.872  49.766  0.00  0.00     0.147 C 
ATOM     48  O1S SGN d 306      -8.381  -5.087  46.132  0.00  0.00    -0.296 OA
ATOM     49  O6  SGN d 306      -9.150   0.318  52.413  0.00  0.00    -0.254 OA
ATOM     50  S2  SGN d 306      -9.694   1.901  52.993  0.00  0.00     0.251 S 
ATOM     51  O4S SGN d 306      -8.794   2.411  53.988  0.00  0.00    -0.572 OA
ATOM     52  O1  SGN d 306     -10.364  -4.168  50.266  0.00  0.00    -0.369 OA
ATOM     53  O4  SGN d 306      -7.228  -2.204  52.735  0.00  0.00    -0.348 OA
ATOM     54  C4  SGN d 306      -7.994  -1.924  51.564  0.00  0.00     0.095 C 
ATOM     55  N   SGN d 306      -8.377  -3.961  48.469  0.00  0.00    -0.210 NA
ATOM     56  O2S SGN d 306      -7.764  -2.811  46.231  0.00  0.00    -0.296 OA
ATOM     57  O5  SGN d 306     -10.284  -1.874  50.756  0.00  0.00    -0.350 OA
ATOM     58  O6S SGN d 306      -9.707   2.796  51.866  0.00  0.00    -0.572 OA
ATOM     59  C2  SGN d 306      -8.612  -2.816  49.323  0.00  0.00     0.081 C 
ATOM     60  O3S SGN d 306     -10.030  -3.443  46.485  0.00  0.00    -0.296 OA
ATOM     61  O5S SGN d 306     -11.030   1.766  53.518  0.00  0.00    -0.572 OA
ATOM     62  O3  SGN d 306      -6.367  -2.635  49.994  0.00  0.00    -0.391 OA
ATOM     63  H   SGN d 306      -9.417  -1.102  53.867  0.00  0.00     0.080 H 
ATOM     64  H   SGN d 306     -10.841  -0.721  52.936  0.00  0.00     0.080 H 
ATOM     65  H   SGN d 306      -9.664  -2.957  52.400  0.00  0.00     0.090 H 
ATOM     66  H   SGN d 306      -7.710  -3.939  50.924  0.00  0.00     0.089 H 
ATOM     67  H   SGN d 306     -10.726  -2.682  48.940  0.00  0.00     0.131 H 
ATOM     68  H   SGN d 306      -7.457  -5.330  46.304  0.00  0.00     0.231 HD
ATOM     69  H   SGN d 306      -9.782  -4.364  51.018  0.00  0.00     0.212 HD
ATOM     70  H   SGN d 306      -7.778  -0.949  51.180  0.00  0.00     0.091 H 
ATOM     71  H   SGN d 306      -7.400  -4.228  48.590  0.00  0.00     0.140 HD
ATOM     72  H   SGN d 306      -6.849  -3.077  46.412  0.00  0.00     0.231 HD
ATOM     73  H   SGN d 306      -8.442  -1.876  48.840  0.00  0.00     0.076 H 
ATOM     74  H   SGN d 306     -10.619  -4.131  46.834  0.00  0.00     0.231 HD
ATOM     75  H   SGN d 306      -6.380  -1.737  49.626  0.00  0.00     0.210 HD
ATOM     76  C1  SGN d 302       6.310   3.563  52.675  0.00  0.00     0.150 C 
ATOM     77  O4  SGN d 302       8.202   1.699  55.865  0.00  0.00    -0.348 OA
ATOM     78  O6  SGN d 302       8.316   4.773  56.192  0.00  0.00    -0.254 OA
ATOM     79  O3S SGN d 302       6.178   3.245  49.559  0.00  0.00    -0.296 OA
ATOM     80  S2  SGN d 302       8.562   6.304  56.922  0.00  0.00     0.251 S 
ATOM     81  O5  SGN d 302       6.572   4.295  53.874  0.00  0.00    -0.349 OA
ATOM     82  O1S SGN d 302       6.866   1.095  48.927  0.00  0.00    -0.296 OA
ATOM     83  O6S SGN d 302       7.408   7.112  56.630  0.00  0.00    -0.572 OA
ATOM     84  N   SGN d 302       7.111   1.729  51.415  0.00  0.00    -0.210 NA
ATOM     85  O5S SGN d 302       8.638   6.095  58.323  0.00  0.00    -0.572 OA
ATOM     86  C4  SGN d 302       8.110   2.656  54.809  0.00  0.00     0.095 C 
ATOM     87  O3  SGN d 302       9.077   1.107  53.323  0.00  0.00    -0.391 OA
ATOM     88  C2  SGN d 302       7.530   2.687  52.394  0.00  0.00     0.081 C 
ATOM     89  O2S SGN d 302       8.402   2.752  49.477  0.00  0.00    -0.296 OA
ATOM     90  O1  SGN d 302       5.164   2.722  52.792  0.00  0.00    -0.348 OA
ATOM     91  C5  SGN d 302       6.834   3.474  55.006  0.00  0.00     0.091 C 
ATOM     92  S1  SGN d 302       7.138   2.224  49.751  0.00  0.00     0.156 S 
ATOM     93  C6  SGN d 302       6.979   4.376  56.176  0.00  0.00     0.067 C 
ATOM     94  O4S SGN d 302       9.783   6.850  56.453  0.00  0.00    -0.572 OA
ATOM     95  C3  SGN d 302       7.891   1.821  53.582  0.00  0.00     0.083 C 
ATOM     96  H   SGN d 302       6.118   4.259  51.886  0.00  0.00     0.131 H 
ATOM     97  H   SGN d 302       5.293   2.896  49.745  0.00  0.00     0.231 HD
ATOM     98  H   SGN d 302       5.986   0.747  49.136  0.00  0.00     0.231 HD
ATOM     99  H   SGN d 302       6.153   1.462  51.639  0.00  0.00     0.140 HD
ATOM    100  H   SGN d 302       8.964   3.300  54.762  0.00  0.00     0.091 H 
ATOM    101  H   SGN d 302       9.297   0.556  54.091  0.00  0.00     0.210 HD
ATOM    102  H   SGN d 302       8.344   3.325  52.121  0.00  0.00     0.076 H 
ATOM    103  H   SGN d 302       8.440   3.036  48.550  0.00  0.00     0.231 HD
ATOM    104  H   SGN d 302       6.033   2.779  55.152  0.00  0.00     0.090 H 
ATOM    105  H   SGN d 302       6.339   5.228  56.069  0.00  0.00     0.080 H 
ATOM    106  H   SGN d 302       6.704   3.885  57.086  0.00  0.00     0.080 H 
ATOM    107  H   SGN d 302       7.077   1.147  53.746  0.00  0.00     0.089 H 
ATOM    108  O2S SGN d 304      -4.019   4.141  56.894  0.00  0.00    -0.296 OA
ATOM    109  C1  SGN d 304      -2.200   0.126  55.279  0.00  0.00     0.150 C 
ATOM    110  S2  SGN d 304       1.714  -2.404  56.037  0.00  0.00     0.251 S 
ATOM    111  O4  SGN d 304       0.974   1.115  52.833  0.00  0.00    -0.348 OA
ATOM    112  C6  SGN d 304       0.633  -1.612  53.601  0.00  0.00     0.067 C 
ATOM    113  O4S SGN d 304       3.059  -2.370  55.555  0.00  0.00    -0.572 OA
ATOM    114  O1  SGN d 304      -3.074   0.124  54.168  0.00  0.00    -0.348 OA
ATOM    115  O5  SGN d 304      -1.127  -0.777  55.065  0.00  0.00    -0.349 OA
ATOM    116  S1  SGN d 304      -3.310   2.915  57.088  0.00  0.00     0.156 S 
ATOM    117  O5S SGN d 304       1.542  -3.513  56.927  0.00  0.00    -0.572 OA
ATOM    118  C3  SGN d 304      -0.882   1.881  54.159  0.00  0.00     0.083 C 
ATOM    119  N   SGN d 304      -2.773   2.416  55.476  0.00  0.00    -0.210 NA
ATOM    120  O1S SGN d 304      -4.160   1.924  57.687  0.00  0.00    -0.296 OA
ATOM    121  O6  SGN d 304       0.625  -2.590  54.644  0.00  0.00    -0.254 OA
ATOM    122  C4  SGN d 304       0.223   0.845  54.001  0.00  0.00     0.095 C 
ATOM    123  C5  SGN d 304      -0.396  -0.526  53.873  0.00  0.00     0.091 C 
ATOM    124  C2  SGN d 304      -1.653   1.524  55.396  0.00  0.00     0.081 C 
ATOM    125  O6S SGN d 304       1.413  -1.183  56.738  0.00  0.00    -0.572 OA
ATOM    126  O3  SGN d 304      -0.357   3.180  54.326  0.00  0.00    -0.391 OA
ATOM    127  O3S SGN d 304      -2.161   3.132  57.929  0.00  0.00    -0.296 OA
ATOM    128  H   SGN d 304      -4.790   3.983  56.327  0.00  0.00     0.231 HD
ATOM    129  H   SGN d 304      -2.718  -0.174  56.166  0.00  0.00     0.131 H 
ATOM    130  H   SGN d 304       1.605  -1.169  53.544  0.00  0.00     0.080 H 
ATOM    131  H   SGN d 304       0.389  -2.094  52.677  0.00  0.00     0.080 H 
ATOM    132  H   SGN d 304      -1.493   1.878  53.281  0.00  0.00     0.089 H 
ATOM    133  H   SGN d 304      -2.528   3.261  54.960  0.00  0.00     0.140 HD
ATOM    134  H   SGN d 304      -4.934   1.778  57.121  0.00  0.00     0.231 HD
ATOM    135  H   SGN d 304       0.865   0.885  54.856  0.00  0.00     0.091 H 
ATOM    136  H   SGN d 304      -1.049  -0.545  53.025  0.00  0.00     0.090 H 
ATOM    137  H   SGN d 304      -1.015   1.594  56.252  0.00  0.00     0.076 H 
ATOM    138  H   SGN d 304       0.201   3.204  55.119  0.00  0.00     0.210 HD
ATOM    139  H   SGN d 304      -1.587   3.802  57.525  0.00  0.00     0.231 HD
ATOM    140  O1S UAP d 301       9.192   2.775  60.209  0.00  0.00    -0.572 OA
ATOM    141  C3  UAP d 301       9.204  -0.602  57.352  0.00  0.00     0.086 C 
ATOM    142  O62 UAP d 301      12.852   1.097  55.000  0.00  0.00    -0.642 OA
ATOM    143  C2  UAP d 301       9.122   0.808  57.880  0.00  0.00     0.135 C 
ATOM    144  O61 UAP d 301      12.556  -1.038  55.085  0.00  0.00    -0.642 OA
ATOM    145  C1  UAP d 301       9.295   1.825  56.771  0.00  0.00     0.167 C 
ATOM    146  C5  UAP d 301      10.915   0.294  55.865  0.00  0.00     0.147 C 
ATOM    147  C4  UAP d 301      10.245  -0.770  56.355  0.00  0.00    -0.034 C 
ATOM    148  O3S UAP d 301       9.137   0.546  61.000  0.00  0.00    -0.572 OA
ATOM    149  C6  UAP d 301      12.122   0.110  55.251  0.00  0.00     0.233 C 
ATOM    150  O5  UAP d 301      10.558   1.580  56.169  0.00  0.00    -0.311 OA
ATOM    151  O2S UAP d 301      11.146   1.819  60.995  0.00  0.00    -0.572 OA
ATOM    152  O2  UAP d 301      10.222   0.987  58.723  0.00  0.00    -0.244 OA
ATOM    153  O3  UAP d 301       7.950  -0.994  56.923  0.00  0.00    -0.389 OA
ATOM    154  S   UAP d 301       9.911   1.558  60.341  0.00  0.00     0.252 S 
ATOM    155  H   UAP d 301       9.502  -1.257  58.145  0.00  0.00     0.093 H 
ATOM    156  H   UAP d 301       8.173   0.944  58.355  0.00  0.00     0.097 H 
ATOM    157  H   UAP d 301       9.287   2.834  57.125  0.00  0.00     0.134 H 
ATOM    158  H   UAP d 301      10.475  -1.717  56.016  0.00  0.00     0.085 H 
ATOM    159  H   UAP d 301       7.658  -0.412  56.204  0.00  0.00     0.210 HD
ENDROOT
TORSDOF 50
ENDMDL
MODEL 41
REMARK VINA RESULT:      -7.0      4.153      6.611
REMARK  0 active torsions:
REMARK  status: ('A' for Active; 'I' for Inactive)
REMARK       I    between atoms: C3_1  and  O3_85 
REMARK       I    between atoms: C6_2  and  C5_22 
REMARK       I    between atoms: C6_3  and  C5_14 
REMARK       I    between atoms: C6_3  and  O6_30 
REMARK       I    between atoms: C1_4  and  O1_84 
REMARK       I    between atoms: O2S_6  and  S1_45 
REMARK       I    between atoms: C1_7  and  O1_36 
REMARK       I    between atoms: S1_10  and  N_69 
REMARK       I    between atoms: S1_10  and  O1S_27 
REMARK       I    between atoms: S1_10  and  O2S_71 
REMARK       I    between atoms: S1_10  and  O3S_88 
REMARK       I    between atoms: O4_11  and  C1_42 
REMARK       I    between atoms: O4_11  and  C4_63 
REMARK       I    between atoms: O6_12  and  C6_94 
REMARK       I    between atoms: O6_12  and  S2_28 
REMARK       I    between atoms: C1_13  and  O4_51 
REMARK       I    between atoms: S2_16  and  O6_76 
REMARK       I    between atoms: C3_18  and  O3_103 
REMARK       I    between atoms: C1_19  and  O1_37 
REMARK       I    between atoms: O4_20  and  C1_23 
REMARK       I    between atoms: O4_20  and  C4_77 
REMARK       I    between atoms: O3S_21  and  S1_92 
REMARK       I    between atoms: C3_24  and  O3_87 
REMARK       I    between atoms: O3_25  and  C3_46 
REMARK       I    between atoms: C6_29  and  C5_79 
REMARK       I    between atoms: C6_29  and  O6_76 
REMARK       I    between atoms: O6_30  and  S2_31 
REMARK       I    between atoms: O1_36  and  C4_81 
REMARK       I    between atoms: C2_38  and  O2_72 
REMARK       I    between atoms: S1_45  and  N_74 
REMARK       I    between atoms: S1_45  and  O1S_75 
REMARK       I    between atoms: S1_45  and  O3S_101 
REMARK       I    between atoms: O1S_47  and  S1_92 
REMARK       I    between atoms: S_48  and  O2_91 
REMARK       I    between atoms: C5_49  and  C6_67 
REMARK       I    between atoms: O4_51  and  C4_57 
REMARK       I    between atoms: N_52  and  C2_73 
REMARK       I    between atoms: N_52  and  S1_92 
REMARK       I    between atoms: C5_53  and  C6_61 
REMARK       I    between atoms: C4_56  and  O1_84 
REMARK       I    between atoms: C2_62  and  O2_91 
REMARK       I    between atoms: S_66  and  O2_105 
REMARK       I    between atoms: O3_68  and  C3_102 
REMARK       I    between atoms: N_69  and  C2_83 
REMARK       I    between atoms: C3_70  and  O3_98 
REMARK       I    between atoms: O2_72  and  S_96 
REMARK       I    between atoms: N_74  and  C2_86 
REMARK       I    between atoms: O2S_80  and  S1_92 
REMARK       I    between atoms: C5_89  and  C6_94 
REMARK       I    between atoms: C2_104  and  O2_105 
ROOT
ATOM      1  C3  IDS d 305      -6.784   1.420  54.512  0.00  0.00     0.094 C 
ATOM      2  O3S IDS d 305     -11.268   1.779  56.234  0.00  0.00    -0.572 OA
ATOM      3  C1  IDS d 305      -8.702  -0.091  54.236  0.00  0.00     0.161 C 
ATOM      4  O62 IDS d 305      -5.855  -2.251  52.488  0.00  0.00    -0.646 OA
ATOM      5  O5  IDS d 305      -7.688  -0.811  53.569  0.00  0.00    -0.340 OA
ATOM      6  O61 IDS d 305      -4.822  -2.619  54.420  0.00  0.00    -0.646 OA
ATOM      7  O1S IDS d 305     -10.039   3.725  56.875  0.00  0.00    -0.572 OA
ATOM      8  C5  IDS d 305      -6.603  -1.082  54.440  0.00  0.00     0.152 C 
ATOM      9  S   IDS d 305      -9.950   2.328  56.512  0.00  0.00     0.252 S 
ATOM     10  C6  IDS d 305      -5.700  -2.079  53.725  0.00  0.00     0.206 C 
ATOM     11  C4  IDS d 305      -5.847   0.240  54.688  0.00  0.00     0.103 C 
ATOM     12  O3  IDS d 305      -6.289   2.504  55.229  0.00  0.00    -0.390 OA
ATOM     13  O2S IDS d 305      -9.320   1.593  57.571  0.00  0.00    -0.572 OA
ATOM     14  C2  IDS d 305      -8.079   1.004  55.115  0.00  0.00     0.134 C 
ATOM     15  O2  IDS d 305      -8.892   2.152  55.116  0.00  0.00    -0.244 OA
ATOM     16  H   IDS d 305      -6.887   1.696  53.484  0.00  0.00     0.091 H 
ATOM     17  H   IDS d 305      -9.370   0.388  53.551  0.00  0.00     0.133 H 
ATOM     18  H   IDS d 305      -6.926  -1.482  55.378  0.00  0.00     0.104 H 
ATOM     19  H   IDS d 305      -5.466   0.201  55.687  0.00  0.00     0.092 H 
ATOM     20  H   IDS d 305      -6.195   2.258  56.162  0.00  0.00     0.210 HD
ATOM     21  H   IDS d 305      -7.963   0.616  56.105  0.00  0.00     0.097 H 
ATOM     22  C6  IDS d 303       2.075   1.142  50.929  0.00  0.00     0.206 C 
ATOM     23  O61 IDS d 303       2.358   1.320  49.753  0.00  0.00    -0.646 OA
ATOM     24  C5  IDS d 303       1.506  -0.169  51.345  0.00  0.00     0.152 C 
ATOM     25  C1  IDS d 303       0.544  -1.295  53.186  0.00  0.00     0.161 C 
ATOM     26  O3  IDS d 303       0.335  -2.663  50.500  0.00  0.00    -0.390 OA
ATOM     27  O2S IDS d 303       1.554  -5.211  54.059  0.00  0.00    -0.572 OA
ATOM     28  O5  IDS d 303       1.355  -0.189  52.770  0.00  0.00    -0.340 OA
ATOM     29  C3  IDS d 303       1.510  -2.622  51.235  0.00  0.00     0.094 C 
ATOM     30  S   IDS d 303       1.876  -3.995  54.707  0.00  0.00     0.252 S 
ATOM     31  C4  IDS d 303       2.339  -1.364  50.901  0.00  0.00     0.103 C 
ATOM     32  O1S IDS d 303       3.030  -4.097  55.509  0.00  0.00    -0.572 OA
ATOM     33  C2  IDS d 303       1.148  -2.609  52.690  0.00  0.00     0.134 C 
ATOM     34  O3S IDS d 303       0.726  -3.655  55.459  0.00  0.00    -0.572 OA
ATOM     35  O2  IDS d 303       2.238  -2.899  53.444  0.00  0.00    -0.244 OA
ATOM     36  O62 IDS d 303       2.034   2.028  51.756  0.00  0.00    -0.646 OA
ATOM     37  H   IDS d 303       0.559  -0.262  50.858  0.00  0.00     0.104 H 
ATOM     38  H   IDS d 303       0.534  -1.306  54.256  0.00  0.00     0.133 H 
ATOM     39  H   IDS d 303      -0.163  -3.463  50.731  0.00  0.00     0.210 HD
ATOM     40  H   IDS d 303       2.106  -3.477  50.993  0.00  0.00     0.091 H 
ATOM     41  H   IDS d 303       2.580  -1.355  49.858  0.00  0.00     0.092 H 
ATOM     42  H   IDS d 303       0.388  -3.355  52.796  0.00  0.00     0.097 H 
ATOM     43  C6  SGN d 306     -11.658  -0.047  53.606  0.00  0.00     0.067 C 
ATOM     44  S1  SGN d 306     -11.703  -6.922  54.309  0.00  0.00     0.156 S 
ATOM     45  C5  SGN d 306     -11.623  -1.359  54.371  0.00  0.00     0.091 C 
ATOM     46  C3  SGN d 306     -10.152  -3.299  54.926  0.00  0.00     0.083 C 
ATOM     47  C1  SGN d 306     -12.599  -3.569  54.355  0.00  0.00     0.147 C 
ATOM     48  O1S SGN d 306     -11.684  -7.953  55.315  0.00  0.00    -0.296 OA
ATOM     49  O6  SGN d 306     -10.920  -0.196  52.395  0.00  0.00    -0.254 OA
ATOM     50  S2  SGN d 306     -11.156   0.954  51.070  0.00  0.00     0.251 S 
ATOM     51  O4S SGN d 306     -10.081   1.905  51.029  0.00  0.00    -0.572 OA
ATOM     52  O1  SGN d 306     -13.017  -3.487  55.710  0.00  0.00    -0.369 OA
ATOM     53  O4  SGN d 306      -9.362  -1.041  55.044  0.00  0.00    -0.348 OA
ATOM     54  C4  SGN d 306     -10.210  -1.914  54.301  0.00  0.00     0.095 C 
ATOM     55  N   SGN d 306     -11.244  -5.406  55.082  0.00  0.00    -0.210 NA
ATOM     56  O2S SGN d 306     -10.735  -7.203  53.288  0.00  0.00    -0.296 OA
ATOM     57  O5  SGN d 306     -12.547  -2.283  53.750  0.00  0.00    -0.350 OA
ATOM     58  O6S SGN d 306     -11.169   0.206  49.841  0.00  0.00    -0.572 OA
ATOM     59  C2  SGN d 306     -11.209  -4.195  54.289  0.00  0.00     0.081 C 
ATOM     60  O3S SGN d 306     -13.024  -6.815  53.746  0.00  0.00    -0.296 OA
ATOM     61  O5S SGN d 306     -12.427   1.611  51.250  0.00  0.00    -0.572 OA
ATOM     62  O3  SGN d 306      -8.898  -3.869  54.573  0.00  0.00    -0.391 OA
ATOM     63  H   SGN d 306     -11.220   0.727  54.201  0.00  0.00     0.080 H 
ATOM     64  H   SGN d 306     -12.672   0.215  53.383  0.00  0.00     0.080 H 
ATOM     65  H   SGN d 306     -11.904  -1.213  55.393  0.00  0.00     0.090 H 
ATOM     66  H   SGN d 306     -10.299  -3.223  55.983  0.00  0.00     0.089 H 
ATOM     67  H   SGN d 306     -13.310  -4.169  53.827  0.00  0.00     0.131 H 
ATOM     68  H   SGN d 306     -10.793  -8.020  55.691  0.00  0.00     0.231 HD
ATOM     69  H   SGN d 306     -12.386  -2.946  56.211  0.00  0.00     0.212 HD
ATOM     70  H   SGN d 306      -9.900  -1.983  53.279  0.00  0.00     0.091 H 
ATOM     71  H   SGN d 306     -10.309  -5.539  55.468  0.00  0.00     0.140 HD
ATOM     72  H   SGN d 306      -9.854  -7.270  53.688  0.00  0.00     0.231 HD
ATOM     73  H   SGN d 306     -10.961  -4.359  53.262  0.00  0.00     0.076 H 
ATOM     74  H   SGN d 306     -13.662  -6.625  54.452  0.00  0.00     0.231 HD
ATOM     75  H   SGN d 306      -8.823  -3.911  53.606  0.00  0.00     0.210 HD
ATOM     76  C1  SGN d 302       4.772  -1.345  50.960  0.00  0.00     0.150 C 
ATOM     77  O4  SGN d 302       6.731   0.702  53.994  0.00  0.00    -0.348 OA
ATOM     78  O6  SGN d 302       7.330   2.007  51.254  0.00  0.00    -0.254 OA
ATOM     79  O3S SGN d 302       4.233  -4.326  50.156  0.00  0.00    -0.296 OA
ATOM     80  S2  SGN d 302       7.879   3.154  50.106  0.00  0.00     0.251 S 
ATOM     81  O5  SGN d 302       5.276  -0.029  50.721  0.00  0.00    -0.349 OA
ATOM     82  O1S SGN d 302       4.522  -5.737  52.006  0.00  0.00    -0.296 OA
ATOM     83  O6S SGN d 302       6.830   3.335  49.139  0.00  0.00    -0.572 OA
ATOM     84  N   SGN d 302       5.145  -3.252  52.306  0.00  0.00    -0.210 NA
ATOM     85  O5S SGN d 302       8.087   4.375  50.797  0.00  0.00    -0.572 OA
ATOM     86  C4  SGN d 302       6.657   0.052  52.724  0.00  0.00     0.095 C 
ATOM     87  O3  SGN d 302       7.208  -1.998  53.743  0.00  0.00    -0.391 OA
ATOM     88  C2  SGN d 302       5.810  -2.091  51.796  0.00  0.00     0.081 C 
ATOM     89  O2S SGN d 302       6.336  -4.921  50.801  0.00  0.00    -0.296 OA
ATOM     90  O1  SGN d 302       3.537  -1.332  51.673  0.00  0.00    -0.348 OA
ATOM     91  C5  SGN d 302       5.546   0.710  51.907  0.00  0.00     0.091 C 
ATOM     92  S1  SGN d 302       5.050  -4.640  51.267  0.00  0.00     0.156 S 
ATOM     93  C6  SGN d 302       5.956   2.073  51.489  0.00  0.00     0.067 C 
ATOM     94  O4S SGN d 302       9.104   2.704  49.552  0.00  0.00    -0.572 OA
ATOM     95  C3  SGN d 302       6.177  -1.331  53.053  0.00  0.00     0.083 C 
ATOM     96  H   SGN d 302       4.593  -1.817  50.016  0.00  0.00     0.131 H 
ATOM     97  H   SGN d 302       3.333  -4.128  50.460  0.00  0.00     0.231 HD
ATOM     98  H   SGN d 302       3.630  -5.518  52.317  0.00  0.00     0.231 HD
ATOM     99  H   SGN d 302       4.191  -2.980  52.541  0.00  0.00     0.140 HD
ATOM    100  H   SGN d 302       7.584   0.085  52.190  0.00  0.00     0.091 H 
ATOM    101  H   SGN d 302       7.434  -1.503  54.546  0.00  0.00     0.210 HD
ATOM    102  H   SGN d 302       6.671  -2.263  51.185  0.00  0.00     0.076 H 
ATOM    103  H   SGN d 302       6.307  -5.695  50.217  0.00  0.00     0.231 HD
ATOM    104  H   SGN d 302       4.675   0.743  52.528  0.00  0.00     0.090 H 
ATOM    105  H   SGN d 302       5.440   2.359  50.596  0.00  0.00     0.080 H 
ATOM    106  H   SGN d 302       5.721   2.801  52.238  0.00  0.00     0.080 H 
ATOM    107  H   SGN d 302       5.298  -1.272  53.660  0.00  0.00     0.089 H 
ATOM    108  O2S SGN d 304      -4.799   4.419  50.894  0.00  0.00    -0.296 OA
ATOM    109  C1  SGN d 304      -3.786   1.295  54.248  0.00  0.00     0.150 C 
ATOM    110  S2  SGN d 304      -0.221   0.536  57.250  0.00  0.00     0.251 S 
ATOM    111  O4  SGN d 304      -0.809  -1.158  52.780  0.00  0.00    -0.348 OA
ATOM    112  C6  SGN d 304      -1.451  -1.294  55.557  0.00  0.00     0.067 C 
ATOM    113  O4S SGN d 304       1.050  -0.116  57.181  0.00  0.00    -0.572 OA
ATOM    114  O1  SGN d 304      -4.774   0.401  53.777  0.00  0.00    -0.348 OA
ATOM    115  O5  SGN d 304      -2.887   0.625  55.119  0.00  0.00    -0.349 OA
ATOM    116  S1  SGN d 304      -4.258   4.079  52.173  0.00  0.00     0.156 S 
ATOM    117  O5S SGN d 304      -0.447   1.023  58.577  0.00  0.00    -0.572 OA
ATOM    118  C3  SGN d 304      -2.365   0.626  52.349  0.00  0.00     0.083 C 
ATOM    119  N   SGN d 304      -3.992   2.329  52.127  0.00  0.00    -0.210 NA
ATOM    120  O1S SGN d 304      -5.168   4.443  53.223  0.00  0.00    -0.296 OA
ATOM    121  O6  SGN d 304      -1.480  -0.647  56.832  0.00  0.00    -0.254 OA
ATOM    122  C4  SGN d 304      -1.449  -0.042  53.366  0.00  0.00     0.095 C 
ATOM    123  C5  SGN d 304      -2.273  -0.516  54.539  0.00  0.00     0.091 C 
ATOM    124  C2  SGN d 304      -3.031   1.780  53.039  0.00  0.00     0.081 C 
ATOM    125  O6S SGN d 304      -0.257   1.641  56.327  0.00  0.00    -0.572 OA
ATOM    126  O3  SGN d 304      -1.641   1.128  51.247  0.00  0.00    -0.391 OA
ATOM    127  O3S SGN d 304      -3.000   4.750  52.375  0.00  0.00    -0.296 OA
ATOM    128  H   SGN d 304      -5.646   3.962  50.768  0.00  0.00     0.231 HD
ATOM    129  H   SGN d 304      -4.235   2.103  54.788  0.00  0.00     0.131 H 
ATOM    130  H   SGN d 304      -0.438  -1.355  55.218  0.00  0.00     0.080 H 
ATOM    131  H   SGN d 304      -1.869  -2.274  55.659  0.00  0.00     0.080 H 
ATOM    132  H   SGN d 304      -3.069  -0.094  51.986  0.00  0.00     0.089 H 
ATOM    133  H   SGN d 304      -3.688   2.091  51.183  0.00  0.00     0.140 HD
ATOM    134  H   SGN d 304      -6.016   3.992  53.087  0.00  0.00     0.231 HD
ATOM    135  H   SGN d 304      -0.713   0.664  53.690  0.00  0.00     0.091 H 
ATOM    136  H   SGN d 304      -3.015  -1.207  54.198  0.00  0.00     0.090 H 
ATOM    137  H   SGN d 304      -2.294   2.497  53.335  0.00  0.00     0.076 H 
ATOM    138  H   SGN d 304      -0.997   1.784  51.556  0.00  0.00     0.210 HD
ATOM    139  H   SGN d 304      -2.386   4.505  51.666  0.00  0.00     0.231 HD
ATOM    140  O1S UAP d 301       8.367   4.939  54.603  0.00  0.00    -0.572 OA
ATOM    141  C3  UAP d 301       7.553   1.161  56.755  0.00  0.00     0.086 C 
ATOM    142  O62 UAP d 301      11.111  -1.046  54.704  0.00  0.00    -0.642 OA
ATOM    143  C2  UAP d 301       7.740   2.132  55.617  0.00  0.00     0.135 C 
ATOM    144  O61 UAP d 301      10.518  -1.627  56.695  0.00  0.00    -0.642 OA
ATOM    145  C1  UAP d 301       7.929   1.411  54.299  0.00  0.00     0.167 C 
ATOM    146  C5  UAP d 301       9.192  -0.198  55.567  0.00  0.00     0.147 C 
ATOM    147  C4  UAP d 301       8.435   0.012  56.664  0.00  0.00    -0.034 C 
ATOM    148  O3S UAP d 301       8.081   4.944  56.952  0.00  0.00    -0.572 OA
ATOM    149  C6  UAP d 301      10.279  -1.023  55.640  0.00  0.00     0.233 C 
ATOM    150  O5  UAP d 301       9.064   0.568  54.439  0.00  0.00    -0.311 OA
ATOM    151  O2S UAP d 301      10.240   5.041  55.958  0.00  0.00    -0.572 OA
ATOM    152  O2  UAP d 301       8.946   2.800  55.851  0.00  0.00    -0.244 OA
ATOM    153  O3  UAP d 301       6.215   0.832  56.849  0.00  0.00    -0.389 OA
ATOM    154  S   UAP d 301       8.912   4.543  55.853  0.00  0.00     0.252 S 
ATOM    155  H   UAP d 301       7.843   1.633  57.671  0.00  0.00     0.093 H 
ATOM    156  H   UAP d 301       6.884   2.771  55.564  0.00  0.00     0.097 H 
ATOM    157  H   UAP d 301       8.109   2.076  53.481  0.00  0.00     0.134 H 
ATOM    158  H   UAP d 301       8.484  -0.655  57.450  0.00  0.00     0.085 H 
ATOM    159  H   UAP d 301       5.929   0.403  56.027  0.00  0.00     0.210 HD
ENDROOT
TORSDOF 50
ENDMDL
MODEL 42
REMARK VINA RESULT:      -6.9      3.770     14.980
REMARK  0 active torsions:
REMARK  status: ('A' for Active; 'I' for Inactive)
REMARK       I    between atoms: C3_1  and  O3_85 
REMARK       I    between atoms: C6_2  and  C5_22 
REMARK       I    between atoms: C6_3  and  C5_14 
REMARK       I    between atoms: C6_3  and  O6_30 
REMARK       I    between atoms: C1_4  and  O1_84 
REMARK       I    between atoms: O2S_6  and  S1_45 
REMARK       I    between atoms: C1_7  and  O1_36 
REMARK       I    between atoms: S1_10  and  N_69 
REMARK       I    between atoms: S1_10  and  O1S_27 
REMARK       I    between atoms: S1_10  and  O2S_71 
REMARK       I    between atoms: S1_10  and  O3S_88 
REMARK       I    between atoms: O4_11  and  C1_42 
REMARK       I    between atoms: O4_11  and  C4_63 
REMARK       I    between atoms: O6_12  and  C6_94 
REMARK       I    between atoms: O6_12  and  S2_28 
REMARK       I    between atoms: C1_13  and  O4_51 
REMARK       I    between atoms: S2_16  and  O6_76 
REMARK       I    between atoms: C3_18  and  O3_103 
REMARK       I    between atoms: C1_19  and  O1_37 
REMARK       I    between atoms: O4_20  and  C1_23 
REMARK       I    between atoms: O4_20  and  C4_77 
REMARK       I    between atoms: O3S_21  and  S1_92 
REMARK       I    between atoms: C3_24  and  O3_87 
REMARK       I    between atoms: O3_25  and  C3_46 
REMARK       I    between atoms: C6_29  and  C5_79 
REMARK       I    between atoms: C6_29  and  O6_76 
REMARK       I    between atoms: O6_30  and  S2_31 
REMARK       I    between atoms: O1_36  and  C4_81 
REMARK       I    between atoms: C2_38  and  O2_72 
REMARK       I    between atoms: S1_45  and  N_74 
REMARK       I    between atoms: S1_45  and  O1S_75 
REMARK       I    between atoms: S1_45  and  O3S_101 
REMARK       I    between atoms: O1S_47  and  S1_92 
REMARK       I    between atoms: S_48  and  O2_91 
REMARK       I    between atoms: C5_49  and  C6_67 
REMARK       I    between atoms: O4_51  and  C4_57 
REMARK       I    between atoms: N_52  and  C2_73 
REMARK       I    between atoms: N_52  and  S1_92 
REMARK       I    between atoms: C5_53  and  C6_61 
REMARK       I    between atoms: C4_56  and  O1_84 
REMARK       I    between atoms: C2_62  and  O2_91 
REMARK       I    between atoms: S_66  and  O2_105 
REMARK       I    between atoms: O3_68  and  C3_102 
REMARK       I    between atoms: N_69  and  C2_83 
REMARK       I    between atoms: C3_70  and  O3_98 
REMARK       I    between atoms: O2_72  and  S_96 
REMARK       I    between atoms: N_74  and  C2_86 
REMARK       I    between atoms: O2S_80  and  S1_92 
REMARK       I    between atoms: C5_89  and  C6_94 
REMARK       I    between atoms: C2_104  and  O2_105 
ROOT
ATOM      1  C3  IDS d 305       6.615   0.463  51.502  0.00  0.00     0.094 C 
ATOM      2  O3S IDS d 305      11.410   0.196  51.130  0.00  0.00    -0.572 OA
ATOM      3  C1  IDS d 305       8.294   2.256  51.480  0.00  0.00     0.161 C 
ATOM      4  O62 IDS d 305       5.022   4.375  52.275  0.00  0.00    -0.646 OA
ATOM      5  O5  IDS d 305       7.111   2.992  51.702  0.00  0.00    -0.340 OA
ATOM      6  O61 IDS d 305       4.831   3.488  54.302  0.00  0.00    -0.646 OA
ATOM      7  O1S IDS d 305      10.501  -2.008  50.964  0.00  0.00    -0.572 OA
ATOM      8  C5  IDS d 305       6.456   2.555  52.880  0.00  0.00     0.152 C 
ATOM      9  S   IDS d 305      10.297  -0.672  51.482  0.00  0.00     0.252 S 
ATOM     10  C6  IDS d 305       5.360   3.568  53.180  0.00  0.00     0.206 C 
ATOM     11  C4  IDS d 305       5.838   1.170  52.597  0.00  0.00     0.103 C 
ATOM     12  O3  IDS d 305       6.424  -0.909  51.622  0.00  0.00    -0.390 OA
ATOM     13  O2S IDS d 305      10.141  -0.726  52.907  0.00  0.00    -0.572 OA
ATOM     14  C2  IDS d 305       8.048   0.766  51.761  0.00  0.00     0.134 C 
ATOM     15  O2  IDS d 305       8.781  -0.029  50.861  0.00  0.00    -0.244 OA
ATOM     16  H   IDS d 305       6.305   0.778  50.528  0.00  0.00     0.091 H 
ATOM     17  H   IDS d 305       8.635   2.341  50.469  0.00  0.00     0.133 H 
ATOM     18  H   IDS d 305       7.125   2.476  53.712  0.00  0.00     0.104 H 
ATOM     19  H   IDS d 305       5.878   0.615  53.511  0.00  0.00     0.092 H 
ATOM     20  H   IDS d 305       6.705  -1.198  52.504  0.00  0.00     0.210 HD
ATOM     21  H   IDS d 305       8.334   0.562  52.772  0.00  0.00     0.097 H 
ATOM     22  C6  IDS d 303      -2.935   0.723  51.863  0.00  0.00     0.206 C 
ATOM     23  O61 IDS d 303      -3.657   1.116  50.958  0.00  0.00    -0.646 OA
ATOM     24  C5  IDS d 303      -2.230   1.721  52.711  0.00  0.00     0.152 C 
ATOM     25  C1  IDS d 303      -0.610   1.920  54.419  0.00  0.00     0.161 C 
ATOM     26  O3  IDS d 303      -1.446   4.476  53.041  0.00  0.00    -0.390 OA
ATOM     27  O2S IDS d 303      -1.143   4.543  57.574  0.00  0.00    -0.572 OA
ATOM     28  O5  IDS d 303      -1.534   1.043  53.764  0.00  0.00    -0.340 OA
ATOM     29  C3  IDS d 303      -2.242   3.827  53.973  0.00  0.00     0.094 C 
ATOM     30  S   IDS d 303      -1.204   3.131  57.511  0.00  0.00     0.252 S 
ATOM     31  C4  IDS d 303      -3.153   2.777  53.304  0.00  0.00     0.103 C 
ATOM     32  O1S IDS d 303      -1.952   2.573  58.567  0.00  0.00    -0.572 OA
ATOM     33  C2  IDS d 303      -1.341   3.148  54.961  0.00  0.00     0.134 C 
ATOM     34  O3S IDS d 303       0.143   2.696  57.517  0.00  0.00    -0.572 OA
ATOM     35  O2  IDS d 303      -2.045   2.785  56.062  0.00  0.00    -0.244 OA
ATOM     36  O62 IDS d 303      -2.587  -0.431  51.997  0.00  0.00    -0.646 OA
ATOM     37  H   IDS d 303      -1.546   2.240  52.073  0.00  0.00     0.104 H 
ATOM     38  H   IDS d 303      -0.183   1.386  55.242  0.00  0.00     0.133 H 
ATOM     39  H   IDS d 303      -0.886   5.127  53.491  0.00  0.00     0.210 HD
ATOM     40  H   IDS d 303      -2.872   4.545  54.456  0.00  0.00     0.091 H 
ATOM     41  H   IDS d 303      -3.782   3.253  52.580  0.00  0.00     0.092 H 
ATOM     42  H   IDS d 303      -0.590   3.872  55.198  0.00  0.00     0.097 H 
ATOM     43  C6  SGN d 306      10.770   3.141  49.987  0.00  0.00     0.067 C 
ATOM     44  S1  SGN d 306      11.184   8.539  54.283  0.00  0.00     0.156 S 
ATOM     45  C5  SGN d 306      11.055   3.841  51.305  0.00  0.00     0.091 C 
ATOM     46  C3  SGN d 306       9.944   4.881  53.285  0.00  0.00     0.083 C 
ATOM     47  C1  SGN d 306      11.978   5.895  52.180  0.00  0.00     0.147 C 
ATOM     48  O1S SGN d 306      11.573   8.884  55.626  0.00  0.00    -0.296 OA
ATOM     49  O6  SGN d 306       9.620   3.734  49.387  0.00  0.00    -0.254 OA
ATOM     50  S2  SGN d 306       9.303   3.495  47.661  0.00  0.00     0.251 S 
ATOM     51  O4S SGN d 306       8.284   2.503  47.467  0.00  0.00    -0.572 OA
ATOM     52  O1  SGN d 306      12.890   5.220  53.034  0.00  0.00    -0.369 OA
ATOM     53  O4  SGN d 306       9.231   2.772  52.401  0.00  0.00    -0.348 OA
ATOM     54  C4  SGN d 306       9.734   4.054  52.027  0.00  0.00     0.095 C 
ATOM     55  N   SGN d 306      11.041   6.785  54.197  0.00  0.00    -0.210 NA
ATOM     56  O2S SGN d 306       9.898   9.098  53.978  0.00  0.00    -0.296 OA
ATOM     57  O5  SGN d 306      11.676   5.118  51.028  0.00  0.00    -0.350 OA
ATOM     58  O6S SGN d 306       8.846   4.750  47.125  0.00  0.00    -0.572 OA
ATOM     59  C2  SGN d 306      10.682   6.169  52.937  0.00  0.00     0.081 C 
ATOM     60  O3S SGN d 306      12.179   9.006  53.352  0.00  0.00    -0.296 OA
ATOM     61  O5S SGN d 306      10.534   3.113  47.015  0.00  0.00    -0.572 OA
ATOM     62  O3  SGN d 306       8.661   5.283  53.745  0.00  0.00    -0.391 OA
ATOM     63  H   SGN d 306      10.587   2.102  50.165  0.00  0.00     0.080 H 
ATOM     64  H   SGN d 306      11.612   3.242  49.334  0.00  0.00     0.080 H 
ATOM     65  H   SGN d 306      11.710   3.255  51.915  0.00  0.00     0.090 H 
ATOM     66  H   SGN d 306      10.491   4.308  54.005  0.00  0.00     0.089 H 
ATOM     67  H   SGN d 306      12.435   6.810  51.867  0.00  0.00     0.131 H 
ATOM     68  H   SGN d 306      10.901   8.568  56.249  0.00  0.00     0.231 HD
ATOM     69  H   SGN d 306      12.497   4.385  53.332  0.00  0.00     0.212 HD
ATOM     70  H   SGN d 306       9.051   4.569  51.385  0.00  0.00     0.091 H 
ATOM     71  H   SGN d 306      10.332   6.509  54.877  0.00  0.00     0.140 HD
ATOM     72  H   SGN d 306       9.243   8.771  54.614  0.00  0.00     0.231 HD
ATOM     73  H   SGN d 306      10.055   6.780  52.322  0.00  0.00     0.076 H 
ATOM     74  H   SGN d 306      13.039   8.616  53.576  0.00  0.00     0.231 HD
ATOM     75  H   SGN d 306       8.215   5.796  53.053  0.00  0.00     0.210 HD
ATOM     76  C1  SGN d 302      -5.370   2.238  54.150  0.00  0.00     0.150 C 
ATOM     77  O4  SGN d 302      -6.019  -1.418  56.006  0.00  0.00    -0.348 OA
ATOM     78  O6  SGN d 302      -7.658  -1.234  53.390  0.00  0.00    -0.254 OA
ATOM     79  O3S SGN d 302      -5.145   5.249  54.989  0.00  0.00    -0.296 OA
ATOM     80  S2  SGN d 302      -8.628  -1.719  52.063  0.00  0.00     0.251 S 
ATOM     81  O5  SGN d 302      -5.946   1.157  53.413  0.00  0.00    -0.349 OA
ATOM     82  O1S SGN d 302      -4.669   5.427  57.278  0.00  0.00    -0.296 OA
ATOM     83  O6S SGN d 302      -8.042  -1.164  50.873  0.00  0.00    -0.572 OA
ATOM     84  N   SGN d 302      -5.161   3.070  56.353  0.00  0.00    -0.210 NA
ATOM     85  O5S SGN d 302      -8.567  -3.135  51.993  0.00  0.00    -0.572 OA
ATOM     86  C4  SGN d 302      -6.437  -0.213  55.365  0.00  0.00     0.095 C 
ATOM     87  O3  SGN d 302      -6.517   0.870  57.455  0.00  0.00    -0.391 OA
ATOM     88  C2  SGN d 302      -5.989   2.224  55.546  0.00  0.00     0.081 C 
ATOM     89  O2S SGN d 302      -6.821   4.990  56.513  0.00  0.00    -0.296 OA
ATOM     90  O1  SGN d 302      -3.955   2.114  54.278  0.00  0.00    -0.348 OA
ATOM     91  C5  SGN d 302      -5.742  -0.120  54.007  0.00  0.00     0.091 C 
ATOM     92  S1  SGN d 302      -5.459   4.779  56.286  0.00  0.00     0.156 S 
ATOM     93  C6  SGN d 302      -6.303  -1.130  53.075  0.00  0.00     0.067 C 
ATOM     94  O4S SGN d 302      -9.965  -1.309  52.294  0.00  0.00    -0.572 OA
ATOM     95  C3  SGN d 302      -5.847   0.873  56.215  0.00  0.00     0.083 C 
ATOM     96  H   SGN d 302      -5.567   3.149  53.626  0.00  0.00     0.131 H 
ATOM     97  H   SGN d 302      -4.201   5.111  54.814  0.00  0.00     0.231 HD
ATOM     98  H   SGN d 302      -3.730   5.266  57.099  0.00  0.00     0.231 HD
ATOM     99  H   SGN d 302      -4.195   2.916  56.065  0.00  0.00     0.140 HD
ATOM    100  H   SGN d 302      -7.499  -0.157  55.247  0.00  0.00     0.091 H 
ATOM    101  H   SGN d 302      -6.419   0.000  57.873  0.00  0.00     0.210 HD
ATOM    102  H   SGN d 302      -7.018   2.505  55.460  0.00  0.00     0.076 H 
ATOM    103  H   SGN d 302      -7.011   5.940  56.479  0.00  0.00     0.231 HD
ATOM    104  H   SGN d 302      -4.698  -0.288  54.175  0.00  0.00     0.090 H 
ATOM    105  H   SGN d 302      -6.180  -0.809  52.061  0.00  0.00     0.080 H 
ATOM    106  H   SGN d 302      -5.804  -2.072  53.172  0.00  0.00     0.080 H 
ATOM    107  H   SGN d 302      -4.802   0.693  56.355  0.00  0.00     0.089 H 
ATOM    108  O2S SGN d 304       3.333  -0.603  47.745  0.00  0.00    -0.296 OA
ATOM    109  C1  SGN d 304       3.754   0.093  52.369  0.00  0.00     0.150 C 
ATOM    110  S2  SGN d 304       1.654  -1.528  56.276  0.00  0.00     0.251 S 
ATOM    111  O4  SGN d 304       0.475   2.287  53.581  0.00  0.00    -0.348 OA
ATOM    112  C6  SGN d 304       2.152   1.115  55.571  0.00  0.00     0.067 C 
ATOM    113  O4S SGN d 304       0.467  -1.205  57.003  0.00  0.00    -0.572 OA
ATOM    114  O1  SGN d 304       4.492   1.281  52.169  0.00  0.00    -0.348 OA
ATOM    115  O5  SGN d 304       3.276   0.026  53.703  0.00  0.00    -0.349 OA
ATOM    116  S1  SGN d 304       3.339  -1.081  49.092  0.00  0.00     0.156 S 
ATOM    117  O5S SGN d 304       2.373  -2.565  56.950  0.00  0.00    -0.572 OA
ATOM    118  C3  SGN d 304       1.714   1.332  51.754  0.00  0.00     0.083 C 
ATOM    119  N   SGN d 304       3.101   0.352  50.106  0.00  0.00    -0.210 NA
ATOM    120  O1S SGN d 304       4.582  -1.735  49.394  0.00  0.00    -0.296 OA
ATOM    121  O6  SGN d 304       2.667  -0.069  56.184  0.00  0.00    -0.254 OA
ATOM    122  C4  SGN d 304       1.277   1.185  53.205  0.00  0.00     0.095 C 
ATOM    123  C5  SGN d 304       2.500   1.151  54.090  0.00  0.00     0.091 C 
ATOM    124  C2  SGN d 304       2.580   0.150  51.427  0.00  0.00     0.081 C 
ATOM    125  O6S SGN d 304       1.311  -1.973  54.950  0.00  0.00    -0.572 OA
ATOM    126  O3  SGN d 304       0.610   1.326  50.875  0.00  0.00    -0.391 OA
ATOM    127  O3S SGN d 304       2.250  -2.000  49.299  0.00  0.00    -0.296 OA
ATOM    128  H   SGN d 304       4.070   0.015  47.617  0.00  0.00     0.231 HD
ATOM    129  H   SGN d 304       4.366  -0.767  52.189  0.00  0.00     0.131 H 
ATOM    130  H   SGN d 304       1.088   1.134  55.682  0.00  0.00     0.080 H 
ATOM    131  H   SGN d 304       2.591   1.967  56.048  0.00  0.00     0.080 H 
ATOM    132  H   SGN d 304       2.231   2.262  51.636  0.00  0.00     0.089 H 
ATOM    133  H   SGN d 304       2.456   0.970  49.614  0.00  0.00     0.140 HD
ATOM    134  H   SGN d 304       5.315  -1.117  49.255  0.00  0.00     0.231 HD
ATOM    135  H   SGN d 304       0.716   0.281  53.311  0.00  0.00     0.091 H 
ATOM    136  H   SGN d 304       3.061   2.053  53.960  0.00  0.00     0.090 H 
ATOM    137  H   SGN d 304       2.007  -0.749  51.506  0.00  0.00     0.076 H 
ATOM    138  H   SGN d 304       0.128   0.490  50.966  0.00  0.00     0.210 HD
ATOM    139  H   SGN d 304       1.411  -1.558  49.095  0.00  0.00     0.231 HD
ATOM    140  O1S UAP d 301      -7.348  -5.604  54.695  0.00  0.00    -0.572 OA
ATOM    141  C3  UAP d 301      -5.705  -3.377  58.146  0.00  0.00     0.086 C 
ATOM    142  O62 UAP d 301      -9.749  -1.209  58.970  0.00  0.00    -0.642 OA
ATOM    143  C2  UAP d 301      -6.335  -3.646  56.802  0.00  0.00     0.135 C 
ATOM    144  O61 UAP d 301      -8.418  -1.618  60.618  0.00  0.00    -0.642 OA
ATOM    145  C1  UAP d 301      -7.013  -2.410  56.251  0.00  0.00     0.167 C 
ATOM    146  C5  UAP d 301      -7.658  -1.968  58.527  0.00  0.00     0.147 C 
ATOM    147  C4  UAP d 301      -6.536  -2.549  59.001  0.00  0.00    -0.034 C 
ATOM    148  O3S UAP d 301      -6.168  -6.747  56.397  0.00  0.00    -0.572 OA
ATOM    149  C6  UAP d 301      -8.618  -1.537  59.399  0.00  0.00     0.233 C 
ATOM    150  O5  UAP d 301      -7.991  -2.008  57.200  0.00  0.00    -0.311 OA
ATOM    151  O2S UAP d 301      -8.544  -6.760  56.302  0.00  0.00    -0.572 OA
ATOM    152  O2  UAP d 301      -7.363  -4.569  57.018  0.00  0.00    -0.244 OA
ATOM    153  O3  UAP d 301      -4.431  -2.878  57.951  0.00  0.00    -0.389 OA
ATOM    154  S   UAP d 301      -7.356  -6.021  56.052  0.00  0.00     0.252 S 
ATOM    155  H   UAP d 301      -5.621  -4.297  58.686  0.00  0.00     0.093 H 
ATOM    156  H   UAP d 301      -5.576  -3.980  56.126  0.00  0.00     0.097 H 
ATOM    157  H   UAP d 301      -7.507  -2.586  55.319  0.00  0.00     0.134 H 
ATOM    158  H   UAP d 301      -6.264  -2.403  59.985  0.00  0.00     0.085 H 
ATOM    159  H   UAP d 301      -4.483  -2.042  57.462  0.00  0.00     0.210 HD
ENDROOT
TORSDOF 50
ENDMDL
MODEL 43
REMARK VINA RESULT:      -6.9      2.771      4.095
REMARK  0 active torsions:
REMARK  status: ('A' for Active; 'I' for Inactive)
REMARK       I    between atoms: C3_1  and  O3_85 
REMARK       I    between atoms: C6_2  and  C5_22 
REMARK       I    between atoms: C6_3  and  C5_14 
REMARK       I    between atoms: C6_3  and  O6_30 
REMARK       I    between atoms: C1_4  and  O1_84 
REMARK       I    between atoms: O2S_6  and  S1_45 
REMARK       I    between atoms: C1_7  and  O1_36 
REMARK       I    between atoms: S1_10  and  N_69 
REMARK       I    between atoms: S1_10  and  O1S_27 
REMARK       I    between atoms: S1_10  and  O2S_71 
REMARK       I    between atoms: S1_10  and  O3S_88 
REMARK       I    between atoms: O4_11  and  C1_42 
REMARK       I    between atoms: O4_11  and  C4_63 
REMARK       I    between atoms: O6_12  and  C6_94 
REMARK       I    between atoms: O6_12  and  S2_28 
REMARK       I    between atoms: C1_13  and  O4_51 
REMARK       I    between atoms: S2_16  and  O6_76 
REMARK       I    between atoms: C3_18  and  O3_103 
REMARK       I    between atoms: C1_19  and  O1_37 
REMARK       I    between atoms: O4_20  and  C1_23 
REMARK       I    between atoms: O4_20  and  C4_77 
REMARK       I    between atoms: O3S_21  and  S1_92 
REMARK       I    between atoms: C3_24  and  O3_87 
REMARK       I    between atoms: O3_25  and  C3_46 
REMARK       I    between atoms: C6_29  and  C5_79 
REMARK       I    between atoms: C6_29  and  O6_76 
REMARK       I    between atoms: O6_30  and  S2_31 
REMARK       I    between atoms: O1_36  and  C4_81 
REMARK       I    between atoms: C2_38  and  O2_72 
REMARK       I    between atoms: S1_45  and  N_74 
REMARK       I    between atoms: S1_45  and  O1S_75 
REMARK       I    between atoms: S1_45  and  O3S_101 
REMARK       I    between atoms: O1S_47  and  S1_92 
REMARK       I    between atoms: S_48  and  O2_91 
REMARK       I    between atoms: C5_49  and  C6_67 
REMARK       I    between atoms: O4_51  and  C4_57 
REMARK       I    between atoms: N_52  and  C2_73 
REMARK       I    between atoms: N_52  and  S1_92 
REMARK       I    between atoms: C5_53  and  C6_61 
REMARK       I    between atoms: C4_56  and  O1_84 
REMARK       I    between atoms: C2_62  and  O2_91 
REMARK       I    between atoms: S_66  and  O2_105 
REMARK       I    between atoms: O3_68  and  C3_102 
REMARK       I    between atoms: N_69  and  C2_83 
REMARK       I    between atoms: C3_70  and  O3_98 
REMARK       I    between atoms: O2_72  and  S_96 
REMARK       I    between atoms: N_74  and  C2_86 
REMARK       I    between atoms: O2S_80  and  S1_92 
REMARK       I    between atoms: C5_89  and  C6_94 
REMARK       I    between atoms: C2_104  and  O2_105 
ROOT
ATOM      1  C3  IDS d 305      -4.565   3.649  54.452  0.00  0.00     0.094 C 
ATOM      2  O3S IDS d 305      -9.072   4.823  55.678  0.00  0.00    -0.572 OA
ATOM      3  C1  IDS d 305      -6.686   3.141  53.322  0.00  0.00     0.161 C 
ATOM      4  O62 IDS d 305      -4.177   1.016  51.083  0.00  0.00    -0.646 OA
ATOM      5  O5  IDS d 305      -5.768   2.444  52.508  0.00  0.00    -0.340 OA
ATOM      6  O61 IDS d 305      -3.786  -0.424  52.727  0.00  0.00    -0.646 OA
ATOM      7  O1S IDS d 305      -7.567   5.794  57.259  0.00  0.00    -0.572 OA
ATOM      8  C5  IDS d 305      -5.043   1.491  53.264  0.00  0.00     0.152 C 
ATOM      9  S   IDS d 305      -7.766   4.721  56.309  0.00  0.00     0.252 S 
ATOM     10  C6  IDS d 305      -4.291   0.616  52.271  0.00  0.00     0.206 C 
ATOM     11  C4  IDS d 305      -4.048   2.252  54.165  0.00  0.00     0.103 C 
ATOM     12  O3  IDS d 305      -3.991   4.112  55.631  0.00  0.00    -0.390 OA
ATOM     13  O2S IDS d 305      -7.634   3.457  56.975  0.00  0.00    -0.572 OA
ATOM     14  C2  IDS d 305      -6.030   3.505  54.662  0.00  0.00     0.134 C 
ATOM     15  O2  IDS d 305      -6.484   4.762  55.104  0.00  0.00    -0.244 OA
ATOM     16  H   IDS d 305      -4.335   4.329  53.658  0.00  0.00     0.091 H 
ATOM     17  H   IDS d 305      -7.014   4.053  52.866  0.00  0.00     0.133 H 
ATOM     18  H   IDS d 305      -5.681   0.889  53.878  0.00  0.00     0.104 H 
ATOM     19  H   IDS d 305      -3.948   1.689  55.069  0.00  0.00     0.092 H 
ATOM     20  H   IDS d 305      -4.198   3.499  56.353  0.00  0.00     0.210 HD
ATOM     21  H   IDS d 305      -6.268   2.741  55.372  0.00  0.00     0.097 H 
ATOM     22  C6  IDS d 303       4.500   1.767  52.067  0.00  0.00     0.206 C 
ATOM     23  O61 IDS d 303       5.100   2.289  51.138  0.00  0.00    -0.646 OA
ATOM     24  C5  IDS d 303       3.520   0.686  51.779  0.00  0.00     0.152 C 
ATOM     25  C1  IDS d 303       1.871  -0.670  52.792  0.00  0.00     0.161 C 
ATOM     26  O3  IDS d 303       1.972  -0.689  49.772  0.00  0.00    -0.390 OA
ATOM     27  O2S IDS d 303       1.558  -4.693  51.880  0.00  0.00    -0.572 OA
ATOM     28  O5  IDS d 303       3.023   0.153  53.013  0.00  0.00    -0.340 OA
ATOM     29  C3  IDS d 303       2.899  -1.354  50.562  0.00  0.00     0.094 C 
ATOM     30  S   IDS d 303       2.022  -4.030  53.040  0.00  0.00     0.252 S 
ATOM     31  C4  IDS d 303       4.087  -0.440  50.926  0.00  0.00     0.103 C 
ATOM     32  O1S IDS d 303       2.874  -4.837  53.821  0.00  0.00    -0.572 OA
ATOM     33  C2  IDS d 303       2.207  -1.798  51.816  0.00  0.00     0.134 C 
ATOM     34  O3S IDS d 303       0.857  -3.642  53.743  0.00  0.00    -0.572 OA
ATOM     35  O2  IDS d 303       2.961  -2.722  52.462  0.00  0.00    -0.244 OA
ATOM     36  O62 IDS d 303       4.495   2.205  53.198  0.00  0.00    -0.646 OA
ATOM     37  H   IDS d 303       2.731   1.129  51.208  0.00  0.00     0.104 H 
ATOM     38  H   IDS d 303       1.596  -1.102  53.731  0.00  0.00     0.133 H 
ATOM     39  H   IDS d 303       1.239  -1.287  49.560  0.00  0.00     0.210 HD
ATOM     40  H   IDS d 303       3.286  -2.191  50.018  0.00  0.00     0.091 H 
ATOM     41  H   IDS d 303       4.570  -0.102  50.033  0.00  0.00     0.092 H 
ATOM     42  H   IDS d 303       1.275  -2.209  51.491  0.00  0.00     0.097 H 
ATOM     43  C6  SGN d 306      -9.276   4.455  52.482  0.00  0.00     0.067 C 
ATOM     44  S1  SGN d 306     -11.317  -1.646  49.960  0.00  0.00     0.156 S 
ATOM     45  C5  SGN d 306      -9.780   3.024  52.562  0.00  0.00     0.091 C 
ATOM     46  C3  SGN d 306      -9.059   0.646  52.317  0.00  0.00     0.083 C 
ATOM     47  C1  SGN d 306     -11.273   1.493  51.439  0.00  0.00     0.147 C 
ATOM     48  O1S SGN d 306     -11.820  -2.929  50.380  0.00  0.00    -0.296 OA
ATOM     49  O6  SGN d 306      -8.330   4.555  51.419  0.00  0.00    -0.254 OA
ATOM     50  S2  SGN d 306      -7.919   6.141  50.749  0.00  0.00     0.251 S 
ATOM     51  O4S SGN d 306      -6.654   6.592  51.258  0.00  0.00    -0.572 OA
ATOM     52  O1  SGN d 306     -11.973   1.167  52.631  0.00  0.00    -0.369 OA
ATOM     53  O4  SGN d 306      -7.752   2.242  53.535  0.00  0.00    -0.348 OA
ATOM     54  C4  SGN d 306      -8.592   2.091  52.392  0.00  0.00     0.095 C 
ATOM     55  N   SGN d 306     -10.677  -0.827  51.382  0.00  0.00    -0.210 NA
ATOM     56  O2S SGN d 306     -10.239  -1.815  49.028  0.00  0.00    -0.296 OA
ATOM     57  O5  SGN d 306     -10.734   2.807  51.497  0.00  0.00    -0.350 OA
ATOM     58  O6S SGN d 306      -7.829   6.000  49.320  0.00  0.00    -0.572 OA
ATOM     59  C2  SGN d 306     -10.127   0.505  51.238  0.00  0.00     0.081 C 
ATOM     60  O3S SGN d 306     -12.383  -0.874  49.375  0.00  0.00    -0.296 OA
ATOM     61  O5S SGN d 306      -8.974   7.068  51.078  0.00  0.00    -0.572 OA
ATOM     62  O3  SGN d 306      -7.956  -0.132  51.874  0.00  0.00    -0.391 OA
ATOM     63  H   SGN d 306      -8.808   4.723  53.405  0.00  0.00     0.080 H 
ATOM     64  H   SGN d 306     -10.096   5.118  52.300  0.00  0.00     0.080 H 
ATOM     65  H   SGN d 306     -10.253   2.838  53.504  0.00  0.00     0.090 H 
ATOM     66  H   SGN d 306      -9.436   0.340  53.271  0.00  0.00     0.089 H 
ATOM     67  H   SGN d 306     -11.966   1.440  50.625  0.00  0.00     0.131 H 
ATOM     68  H   SGN d 306     -11.100  -3.446  50.773  0.00  0.00     0.231 HD
ATOM     69  H   SGN d 306     -11.364   1.209  53.385  0.00  0.00     0.212 HD
ATOM     70  H   SGN d 306      -8.071   2.332  51.489  0.00  0.00     0.091 H 
ATOM     71  H   SGN d 306      -9.934  -1.417  51.758  0.00  0.00     0.140 HD
ATOM     72  H   SGN d 306      -9.533  -2.336  49.441  0.00  0.00     0.231 HD
ATOM     73  H   SGN d 306      -9.687   0.689  50.280  0.00  0.00     0.076 H 
ATOM     74  H   SGN d 306     -13.100  -0.772  50.021  0.00  0.00     0.231 HD
ATOM     75  H   SGN d 306      -7.660   0.191  51.008  0.00  0.00     0.210 HD
ATOM     76  C1  SGN d 302       6.346  -1.292  51.236  0.00  0.00     0.150 C 
ATOM     77  O4  SGN d 302       7.972  -1.442  55.052  0.00  0.00    -0.348 OA
ATOM     78  O6  SGN d 302       9.549   0.549  53.289  0.00  0.00    -0.254 OA
ATOM     79  O3S SGN d 302       5.249  -3.316  49.109  0.00  0.00    -0.296 OA
ATOM     80  S2  SGN d 302      10.648   1.790  52.854  0.00  0.00     0.251 S 
ATOM     81  O5  SGN d 302       7.224  -0.255  51.677  0.00  0.00    -0.349 OA
ATOM     82  O1S SGN d 302       4.689  -5.351  50.129  0.00  0.00    -0.296 OA
ATOM     83  O6S SGN d 302       9.955   2.693  51.974  0.00  0.00    -0.572 OA
ATOM     84  N   SGN d 302       5.857  -3.577  51.593  0.00  0.00    -0.210 NA
ATOM     85  O5S SGN d 302      10.996   2.480  54.044  0.00  0.00    -0.572 OA
ATOM     86  C4  SGN d 302       8.042  -1.463  53.626  0.00  0.00     0.095 C 
ATOM     87  O3  SGN d 302       7.760  -3.801  53.647  0.00  0.00    -0.391 OA
ATOM     88  C2  SGN d 302       6.910  -2.619  51.740  0.00  0.00     0.081 C 
ATOM     89  O2S SGN d 302       6.893  -4.808  49.624  0.00  0.00    -0.296 OA
ATOM     90  O1  SGN d 302       5.023  -1.137  51.745  0.00  0.00    -0.348 OA
ATOM     91  C5  SGN d 302       7.381  -0.193  53.090  0.00  0.00     0.091 C 
ATOM     92  S1  SGN d 302       5.654  -4.308  50.031  0.00  0.00     0.156 S 
ATOM     93  C6  SGN d 302       8.228   0.989  53.385  0.00  0.00     0.067 C 
ATOM     94  O4S SGN d 302      11.806   1.204  52.284  0.00  0.00    -0.572 OA
ATOM     95  C3  SGN d 302       7.146  -2.601  53.236  0.00  0.00     0.083 C 
ATOM     96  H   SGN d 302       6.286  -1.255  50.168  0.00  0.00     0.131 H 
ATOM     97  H   SGN d 302       4.388  -2.957  49.376  0.00  0.00     0.231 HD
ATOM     98  H   SGN d 302       3.840  -4.980  50.413  0.00  0.00     0.231 HD
ATOM     99  H   SGN d 302       4.982  -3.109  51.827  0.00  0.00     0.140 HD
ATOM    100  H   SGN d 302       9.046  -1.543  53.265  0.00  0.00     0.091 H 
ATOM    101  H   SGN d 302       7.906  -3.778  54.606  0.00  0.00     0.210 HD
ATOM    102  H   SGN d 302       7.818  -2.820  51.210  0.00  0.00     0.076 H 
ATOM    103  H   SGN d 302       6.804  -5.222  48.751  0.00  0.00     0.231 HD
ATOM    104  H   SGN d 302       6.425  -0.110  53.565  0.00  0.00     0.090 H 
ATOM    105  H   SGN d 302       8.042   1.766  52.674  0.00  0.00     0.080 H 
ATOM    106  H   SGN d 302       8.019   1.390  54.355  0.00  0.00     0.080 H 
ATOM    107  H   SGN d 302       6.194  -2.488  53.709  0.00  0.00     0.089 H 
ATOM    108  O2S SGN d 304      -1.029   6.949  52.827  0.00  0.00    -0.296 OA
ATOM    109  C1  SGN d 304      -1.738   2.608  54.469  0.00  0.00     0.150 C 
ATOM    110  S2  SGN d 304       0.647  -0.469  57.142  0.00  0.00     0.251 S 
ATOM    111  O4  SGN d 304       0.746   0.078  52.357  0.00  0.00    -0.348 OA
ATOM    112  C6  SGN d 304      -0.571  -0.921  54.684  0.00  0.00     0.067 C 
ATOM    113  O4S SGN d 304       1.675  -1.435  56.913  0.00  0.00    -0.572 OA
ATOM    114  O1  SGN d 304      -2.781   2.379  53.544  0.00  0.00    -0.348 OA
ATOM    115  O5  SGN d 304      -1.292   1.381  55.026  0.00  0.00    -0.349 OA
ATOM    116  S1  SGN d 304      -0.929   5.963  53.858  0.00  0.00     0.156 S 
ATOM    117  O5S SGN d 304       0.240  -0.506  58.513  0.00  0.00    -0.572 OA
ATOM    118  C3  SGN d 304      -0.125   2.304  52.631  0.00  0.00     0.083 C 
ATOM    119  N   SGN d 304      -1.135   4.403  53.046  0.00  0.00    -0.210 NA
ATOM    120  O1S SGN d 304      -1.939   6.169  54.859  0.00  0.00    -0.296 OA
ATOM    121  O6  SGN d 304      -0.739  -0.870  56.103  0.00  0.00    -0.254 OA
ATOM    122  C4  SGN d 304       0.302   1.014  53.319  0.00  0.00     0.095 C 
ATOM    123  C5  SGN d 304      -0.880   0.429  54.055  0.00  0.00     0.091 C 
ATOM    124  C2  SGN d 304      -0.608   3.240  53.700  0.00  0.00     0.081 C 
ATOM    125  O6S SGN d 304       1.134   0.849  56.827  0.00  0.00    -0.572 OA
ATOM    126  O3  SGN d 304       0.954   2.918  51.961  0.00  0.00    -0.391 OA
ATOM    127  O3S SGN d 304       0.373   6.015  54.472  0.00  0.00    -0.296 OA
ATOM    128  H   SGN d 304      -1.909   6.904  52.421  0.00  0.00     0.231 HD
ATOM    129  H   SGN d 304      -2.074   3.235  55.269  0.00  0.00     0.131 H 
ATOM    130  H   SGN d 304       0.441  -1.190  54.460  0.00  0.00     0.080 H 
ATOM    131  H   SGN d 304      -1.245  -1.649  54.284  0.00  0.00     0.080 H 
ATOM    132  H   SGN d 304      -0.883   2.081  51.910  0.00  0.00     0.089 H 
ATOM    133  H   SGN d 304      -0.683   4.471  52.134  0.00  0.00     0.140 HD
ATOM    134  H   SGN d 304      -2.815   6.135  54.446  0.00  0.00     0.231 HD
ATOM    135  H   SGN d 304       1.096   1.229  54.003  0.00  0.00     0.091 H 
ATOM    136  H   SGN d 304      -1.672   0.236  53.362  0.00  0.00     0.090 H 
ATOM    137  H   SGN d 304       0.197   3.475  54.364  0.00  0.00     0.076 H 
ATOM    138  H   SGN d 304       1.653   3.129  52.600  0.00  0.00     0.210 HD
ATOM    139  H   SGN d 304       1.054   5.877  53.796  0.00  0.00     0.231 HD
ATOM    140  O1S UAP d 301      10.473   1.345  57.694  0.00  0.00    -0.572 OA
ATOM    141  C3  UAP d 301       8.182  -2.438  57.787  0.00  0.00     0.086 C 
ATOM    142  O62 UAP d 301      11.416  -4.728  55.331  0.00  0.00    -0.642 OA
ATOM    143  C2  UAP d 301       8.894  -1.224  57.243  0.00  0.00     0.135 C 
ATOM    144  O61 UAP d 301      10.221  -5.810  56.765  0.00  0.00    -0.642 OA
ATOM    145  C1  UAP d 301       9.202  -1.377  55.769  0.00  0.00     0.167 C 
ATOM    146  C5  UAP d 301       9.641  -3.687  56.284  0.00  0.00     0.147 C 
ATOM    147  C4  UAP d 301       8.721  -3.683  57.272  0.00  0.00    -0.034 C 
ATOM    148  O3S UAP d 301       9.631   0.513  59.742  0.00  0.00    -0.572 OA
ATOM    149  C6  UAP d 301      10.417  -4.794  56.084  0.00  0.00     0.233 C 
ATOM    150  O5  UAP d 301      10.002  -2.543  55.625  0.00  0.00    -0.311 OA
ATOM    151  O2S UAP d 301      11.914   0.242  59.130  0.00  0.00    -0.572 OA
ATOM    152  O2  UAP d 301      10.138  -1.169  57.879  0.00  0.00    -0.244 OA
ATOM    153  O3  UAP d 301       6.824  -2.290  57.582  0.00  0.00    -0.389 OA
ATOM    154  S   UAP d 301      10.569   0.322  58.674  0.00  0.00     0.252 S 
ATOM    155  H   UAP d 301       8.353  -2.503  58.842  0.00  0.00     0.093 H 
ATOM    156  H   UAP d 301       8.278  -0.364  57.401  0.00  0.00     0.097 H 
ATOM    157  H   UAP d 301       9.748  -0.549  55.368  0.00  0.00     0.134 H 
ATOM    158  H   UAP d 301       8.397  -4.579  57.668  0.00  0.00     0.085 H 
ATOM    159  H   UAP d 301       6.645  -2.228  56.631  0.00  0.00     0.210 HD
ENDROOT
TORSDOF 50
ENDMDL
MODEL 44
REMARK VINA RESULT:      -6.9      5.238     16.350
REMARK  0 active torsions:
REMARK  status: ('A' for Active; 'I' for Inactive)
REMARK       I    between atoms: C3_1  and  O3_85 
REMARK       I    between atoms: C6_2  and  C5_22 
REMARK       I    between atoms: C6_3  and  C5_14 
REMARK       I    between atoms: C6_3  and  O6_30 
REMARK       I    between atoms: C1_4  and  O1_84 
REMARK       I    between atoms: O2S_6  and  S1_45 
REMARK       I    between atoms: C1_7  and  O1_36 
REMARK       I    between atoms: S1_10  and  N_69 
REMARK       I    between atoms: S1_10  and  O1S_27 
REMARK       I    between atoms: S1_10  and  O2S_71 
REMARK       I    between atoms: S1_10  and  O3S_88 
REMARK       I    between atoms: O4_11  and  C1_42 
REMARK       I    between atoms: O4_11  and  C4_63 
REMARK       I    between atoms: O6_12  and  C6_94 
REMARK       I    between atoms: O6_12  and  S2_28 
REMARK       I    between atoms: C1_13  and  O4_51 
REMARK       I    between atoms: S2_16  and  O6_76 
REMARK       I    between atoms: C3_18  and  O3_103 
REMARK       I    between atoms: C1_19  and  O1_37 
REMARK       I    between atoms: O4_20  and  C1_23 
REMARK       I    between atoms: O4_20  and  C4_77 
REMARK       I    between atoms: O3S_21  and  S1_92 
REMARK       I    between atoms: C3_24  and  O3_87 
REMARK       I    between atoms: O3_25  and  C3_46 
REMARK       I    between atoms: C6_29  and  C5_79 
REMARK       I    between atoms: C6_29  and  O6_76 
REMARK       I    between atoms: O6_30  and  S2_31 
REMARK       I    between atoms: O1_36  and  C4_81 
REMARK       I    between atoms: C2_38  and  O2_72 
REMARK       I    between atoms: S1_45  and  N_74 
REMARK       I    between atoms: S1_45  and  O1S_75 
REMARK       I    between atoms: S1_45  and  O3S_101 
REMARK       I    between atoms: O1S_47  and  S1_92 
REMARK       I    between atoms: S_48  and  O2_91 
REMARK       I    between atoms: C5_49  and  C6_67 
REMARK       I    between atoms: O4_51  and  C4_57 
REMARK       I    between atoms: N_52  and  C2_73 
REMARK       I    between atoms: N_52  and  S1_92 
REMARK       I    between atoms: C5_53  and  C6_61 
REMARK       I    between atoms: C4_56  and  O1_84 
REMARK       I    between atoms: C2_62  and  O2_91 
REMARK       I    between atoms: S_66  and  O2_105 
REMARK       I    between atoms: O3_68  and  C3_102 
REMARK       I    between atoms: N_69  and  C2_83 
REMARK       I    between atoms: C3_70  and  O3_98 
REMARK       I    between atoms: O2_72  and  S_96 
REMARK       I    between atoms: N_74  and  C2_86 
REMARK       I    between atoms: O2S_80  and  S1_92 
REMARK       I    between atoms: C5_89  and  C6_94 
REMARK       I    between atoms: C2_104  and  O2_105 
ROOT
ATOM      1  C3  IDS d 305       7.140  -3.673  51.331  0.00  0.00     0.094 C 
ATOM      2  O3S IDS d 305      11.732  -4.848  50.476  0.00  0.00    -0.572 OA
ATOM      3  C1  IDS d 305       9.014  -3.941  52.897  0.00  0.00     0.161 C 
ATOM      4  O62 IDS d 305       6.028  -3.396  55.470  0.00  0.00    -0.646 OA
ATOM      5  O5  IDS d 305       7.948  -3.686  53.787  0.00  0.00    -0.340 OA
ATOM      6  O61 IDS d 305       5.120  -5.360  54.971  0.00  0.00    -0.646 OA
ATOM      7  O1S IDS d 305      10.575  -4.695  48.391  0.00  0.00    -0.572 OA
ATOM      8  C5  IDS d 305       6.919  -4.648  53.633  0.00  0.00     0.152 C 
ATOM      9  S   IDS d 305      10.443  -4.946  49.810  0.00  0.00     0.252 S 
ATOM     10  C6  IDS d 305       5.958  -4.459  54.798  0.00  0.00     0.206 C 
ATOM     11  C4  IDS d 305       6.200  -4.371  52.297  0.00  0.00     0.103 C 
ATOM     12  O3  IDS d 305       6.709  -3.905  50.030  0.00  0.00    -0.390 OA
ATOM     13  O2S IDS d 305       9.874  -6.246  50.019  0.00  0.00    -0.572 OA
ATOM     14  C2  IDS d 305       8.465  -4.322  51.514  0.00  0.00     0.134 C 
ATOM     15  O2  IDS d 305       9.293  -3.806  50.500  0.00  0.00    -0.244 OA
ATOM     16  H   IDS d 305       7.179  -2.618  51.506  0.00  0.00     0.091 H 
ATOM     17  H   IDS d 305       9.642  -3.084  52.769  0.00  0.00     0.133 H 
ATOM     18  H   IDS d 305       7.298  -5.650  53.625  0.00  0.00     0.104 H 
ATOM     19  H   IDS d 305       5.886  -5.316  51.907  0.00  0.00     0.092 H 
ATOM     20  H   IDS d 305       6.673  -4.861  49.867  0.00  0.00     0.210 HD
ATOM     21  H   IDS d 305       8.410  -5.390  51.456  0.00  0.00     0.097 H 
ATOM     22  C6  IDS d 303      -1.939  -1.010  52.703  0.00  0.00     0.206 C 
ATOM     23  O61 IDS d 303      -2.296   0.118  53.011  0.00  0.00    -0.646 OA
ATOM     24  C5  IDS d 303      -1.363  -1.898  53.748  0.00  0.00     0.152 C 
ATOM     25  C1  IDS d 303      -0.297  -3.984  54.057  0.00  0.00     0.161 C 
ATOM     26  O3  IDS d 303      -0.284  -2.094  56.414  0.00  0.00    -0.390 OA
ATOM     27  O2S IDS d 303      -1.301  -6.447  57.226  0.00  0.00    -0.572 OA
ATOM     28  O5  IDS d 303      -1.118  -3.194  53.188  0.00  0.00    -0.340 OA
ATOM     29  C3  IDS d 303      -1.408  -2.809  56.028  0.00  0.00     0.094 C 
ATOM     30  S   IDS d 303      -1.563  -6.552  55.840  0.00  0.00     0.252 S 
ATOM     31  C4  IDS d 303      -2.239  -2.032  54.986  0.00  0.00     0.103 C 
ATOM     32  O1S IDS d 303      -2.664  -7.387  55.557  0.00  0.00    -0.572 OA
ATOM     33  C2  IDS d 303      -0.951  -4.107  55.434  0.00  0.00     0.134 C 
ATOM     34  O3S IDS d 303      -0.362  -7.034  55.266  0.00  0.00    -0.572 OA
ATOM     35  O2  IDS d 303      -1.992  -4.972  55.344  0.00  0.00    -0.244 OA
ATOM     36  O62 IDS d 303      -1.831  -1.394  51.557  0.00  0.00    -0.646 OA
ATOM     37  H   IDS d 303      -0.450  -1.442  54.071  0.00  0.00     0.104 H 
ATOM     38  H   IDS d 303      -0.216  -4.961  53.628  0.00  0.00     0.133 H 
ATOM     39  H   IDS d 303       0.217  -2.606  57.068  0.00  0.00     0.210 HD
ATOM     40  H   IDS d 303      -2.030  -2.974  56.883  0.00  0.00     0.091 H 
ATOM     41  H   IDS d 303      -2.548  -1.093  55.397  0.00  0.00     0.092 H 
ATOM     42  H   IDS d 303      -0.196  -4.470  56.100  0.00  0.00     0.097 H 
ATOM     43  C6  SGN d 306      11.923  -3.189  53.234  0.00  0.00     0.067 C 
ATOM     44  S1  SGN d 306      11.918  -6.660  59.210  0.00  0.00     0.156 S 
ATOM     45  C5  SGN d 306      11.920  -4.428  54.114  0.00  0.00     0.091 C 
ATOM     46  C3  SGN d 306      10.461  -5.811  55.595  0.00  0.00     0.083 C 
ATOM     47  C1  SGN d 306      12.862  -5.271  56.172  0.00  0.00     0.147 C 
ATOM     48  O1S SGN d 306      11.951  -8.000  59.736  0.00  0.00    -0.296 OA
ATOM     49  O6  SGN d 306      11.104  -2.190  53.837  0.00  0.00    -0.254 OA
ATOM     50  S2  SGN d 306      11.268  -0.497  53.343  0.00  0.00     0.251 S 
ATOM     51  O4S SGN d 306      10.206  -0.127  52.450  0.00  0.00    -0.572 OA
ATOM     52  O1  SGN d 306      13.369  -6.447  55.558  0.00  0.00    -0.369 OA
ATOM     53  O4  SGN d 306       9.713  -5.032  53.457  0.00  0.00    -0.348 OA
ATOM     54  C4  SGN d 306      10.497  -4.669  54.592  0.00  0.00     0.095 C 
ATOM     55  N   SGN d 306      11.532  -6.763  57.494  0.00  0.00    -0.210 NA
ATOM     56  O2S SGN d 306      10.881  -5.900  59.847  0.00  0.00    -0.296 OA
ATOM     57  O5  SGN d 306      12.788  -4.193  55.247  0.00  0.00    -0.350 OA
ATOM     58  O6S SGN d 306      11.190   0.313  54.529  0.00  0.00    -0.572 OA
ATOM     59  C2  SGN d 306      11.461  -5.545  56.714  0.00  0.00     0.081 C 
ATOM     60  O3S SGN d 306      13.201  -6.032  59.397  0.00  0.00    -0.296 OA
ATOM     61  O5S SGN d 306      12.558  -0.321  52.721  0.00  0.00    -0.572 OA
ATOM     62  O3  SGN d 306       9.180  -5.793  56.209  0.00  0.00    -0.391 OA
ATOM     63  H   SGN d 306      11.535  -3.435  52.267  0.00  0.00     0.080 H 
ATOM     64  H   SGN d 306      12.923  -2.823  53.127  0.00  0.00     0.080 H 
ATOM     65  H   SGN d 306      12.269  -5.282  53.572  0.00  0.00     0.090 H 
ATOM     66  H   SGN d 306      10.679  -6.733  55.097  0.00  0.00     0.089 H 
ATOM     67  H   SGN d 306      13.528  -4.999  56.964  0.00  0.00     0.131 H 
ATOM     68  H   SGN d 306      11.086  -8.419  59.607  0.00  0.00     0.231 HD
ATOM     69  H   SGN d 306      12.780  -6.713  54.835  0.00  0.00     0.212 HD
ATOM     70  H   SGN d 306      10.120  -3.785  55.061  0.00  0.00     0.091 H 
ATOM     71  H   SGN d 306      10.623  -7.219  57.419  0.00  0.00     0.140 HD
ATOM     72  H   SGN d 306      10.027  -6.338  59.709  0.00  0.00     0.231 HD
ATOM     73  H   SGN d 306      11.144  -4.691  57.276  0.00  0.00     0.076 H 
ATOM     74  H   SGN d 306      13.886  -6.561  58.959  0.00  0.00     0.231 HD
ATOM     75  H   SGN d 306       9.040  -4.936  56.641  0.00  0.00     0.210 HD
ATOM     76  C1  SGN d 302      -4.662  -2.209  54.848  0.00  0.00     0.150 C 
ATOM     77  O4  SGN d 302      -6.389  -4.231  51.660  0.00  0.00    -0.348 OA
ATOM     78  O6  SGN d 302      -7.148  -1.235  51.571  0.00  0.00    -0.254 OA
ATOM     79  O3S SGN d 302      -4.219  -2.677  57.915  0.00  0.00    -0.296 OA
ATOM     80  S2  SGN d 302      -7.756   0.253  50.976  0.00  0.00     0.251 S 
ATOM     81  O5  SGN d 302      -5.163  -1.477  53.727  0.00  0.00    -0.349 OA
ATOM     82  O1S SGN d 302      -4.405  -4.957  58.430  0.00  0.00    -0.296 OA
ATOM     83  O6S SGN d 302      -6.771   1.264  51.250  0.00  0.00    -0.572 OA
ATOM     84  N   SGN d 302      -4.973  -4.240  56.018  0.00  0.00    -0.210 NA
ATOM     85  O5S SGN d 302      -7.901   0.116  49.571  0.00  0.00    -0.572 OA
ATOM     86  C4  SGN d 302      -6.408  -3.341  52.776  0.00  0.00     0.095 C 
ATOM     87  O3  SGN d 302      -6.919  -5.142  54.203  0.00  0.00    -0.391 OA
ATOM     88  C2  SGN d 302      -5.653  -3.333  55.143  0.00  0.00     0.081 C 
ATOM     89  O2S SGN d 302      -6.284  -3.624  58.108  0.00  0.00    -0.296 OA
ATOM     90  O1  SGN d 302      -3.383  -2.786  54.592  0.00  0.00    -0.348 OA
ATOM     91  C5  SGN d 302      -5.344  -2.266  52.556  0.00  0.00     0.091 C 
ATOM     92  S1  SGN d 302      -4.965  -3.862  57.712  0.00  0.00     0.156 S 
ATOM     93  C6  SGN d 302      -5.761  -1.346  51.469  0.00  0.00     0.067 C 
ATOM     94  O4S SGN d 302      -9.021   0.505  51.565  0.00  0.00    -0.572 OA
ATOM     95  C3  SGN d 302      -5.926  -4.183  53.920  0.00  0.00     0.083 C 
ATOM     96  H   SGN d 302      -4.553  -1.536  55.672  0.00  0.00     0.131 H 
ATOM     97  H   SGN d 302      -3.299  -2.824  57.645  0.00  0.00     0.231 HD
ATOM     98  H   SGN d 302      -3.492  -5.101  58.138  0.00  0.00     0.231 HD
ATOM     99  H   SGN d 302      -4.002  -4.290  55.711  0.00  0.00     0.140 HD
ATOM    100  H   SGN d 302      -7.368  -2.892  52.928  0.00  0.00     0.091 H 
ATOM    101  H   SGN d 302      -7.084  -5.680  53.413  0.00  0.00     0.210 HD
ATOM    102  H   SGN d 302      -6.555  -2.895  55.517  0.00  0.00     0.076 H 
ATOM    103  H   SGN d 302      -6.304  -3.410  59.054  0.00  0.00     0.231 HD
ATOM    104  H   SGN d 302      -4.433  -2.770  52.306  0.00  0.00     0.090 H 
ATOM    105  H   SGN d 302      -5.301  -0.388  51.596  0.00  0.00     0.080 H 
ATOM    106  H   SGN d 302      -5.468  -1.715  50.509  0.00  0.00     0.080 H 
ATOM    107  H   SGN d 302      -5.009  -4.663  53.652  0.00  0.00     0.089 H 
ATOM    108  O2S SGN d 304       4.963   0.746  50.005  0.00  0.00    -0.296 OA
ATOM    109  C1  SGN d 304       4.129  -3.647  51.434  0.00  0.00     0.150 C 
ATOM    110  S2  SGN d 304       0.760  -6.884  50.751  0.00  0.00     0.251 S 
ATOM    111  O4  SGN d 304       1.028  -3.484  54.153  0.00  0.00    -0.348 OA
ATOM    112  C6  SGN d 304       1.850  -6.032  53.162  0.00  0.00     0.067 C 
ATOM    113  O4S SGN d 304      -0.522  -7.158  51.323  0.00  0.00    -0.572 OA
ATOM    114  O1  SGN d 304       5.071  -3.534  52.481  0.00  0.00    -0.348 OA
ATOM    115  O5  SGN d 304       3.281  -4.764  51.651  0.00  0.00    -0.349 OA
ATOM    116  S1  SGN d 304       4.503  -0.587  49.768  0.00  0.00     0.156 S 
ATOM    117  O5S SGN d 304       1.079  -7.878  49.772  0.00  0.00    -0.572 OA
ATOM    118  C3  SGN d 304       2.577  -2.273  52.767  0.00  0.00     0.083 C 
ATOM    119  N   SGN d 304       4.210  -1.281  51.371  0.00  0.00    -0.210 NA
ATOM    120  O1S SGN d 304       5.485  -1.343  49.042  0.00  0.00    -0.296 OA
ATOM    121  O6  SGN d 304       1.972  -6.923  52.051  0.00  0.00    -0.254 OA
ATOM    122  C4  SGN d 304       1.721  -3.523  52.921  0.00  0.00     0.095 C 
ATOM    123  C5  SGN d 304       2.613  -4.741  52.904  0.00  0.00     0.091 C 
ATOM    124  C2  SGN d 304       3.303  -2.389  51.458  0.00  0.00     0.081 C 
ATOM    125  O6S SGN d 304       0.750  -5.588  50.125  0.00  0.00    -0.572 OA
ATOM    126  O3  SGN d 304       1.789  -1.104  52.732  0.00  0.00    -0.391 OA
ATOM    127  O3S SGN d 304       3.270  -0.563  49.024  0.00  0.00    -0.296 OA
ATOM    128  H   SGN d 304       5.793   0.718  50.506  0.00  0.00     0.231 HD
ATOM    129  H   SGN d 304       4.624  -3.781  50.494  0.00  0.00     0.131 H 
ATOM    130  H   SGN d 304       0.816  -5.803  53.317  0.00  0.00     0.080 H 
ATOM    131  H   SGN d 304       2.260  -6.506  54.030  0.00  0.00     0.080 H 
ATOM    132  H   SGN d 304       3.245  -2.202  53.599  0.00  0.00     0.089 H 
ATOM    133  H   SGN d 304       3.841  -0.537  51.963  0.00  0.00     0.140 HD
ATOM    134  H   SGN d 304       6.316  -1.359  49.542  0.00  0.00     0.231 HD
ATOM    135  H   SGN d 304       1.018  -3.566  52.115  0.00  0.00     0.091 H 
ATOM    136  H   SGN d 304       3.322  -4.675  53.703  0.00  0.00     0.090 H 
ATOM    137  H   SGN d 304       2.597  -2.402  50.654  0.00  0.00     0.076 H 
ATOM    138  H   SGN d 304       1.176  -1.149  51.982  0.00  0.00     0.210 HD
ATOM    139  H   SGN d 304       2.607  -0.052  49.514  0.00  0.00     0.231 HD
ATOM    140  O1S UAP d 301      -7.922  -3.128  47.484  0.00  0.00    -0.572 OA
ATOM    141  C3  UAP d 301      -7.021  -6.598  50.075  0.00  0.00     0.086 C 
ATOM    142  O62 UAP d 301     -10.736  -5.835  52.786  0.00  0.00    -0.642 OA
ATOM    143  C2  UAP d 301      -7.269  -5.173  49.650  0.00  0.00     0.135 C 
ATOM    144  O61 UAP d 301     -10.022  -7.853  52.522  0.00  0.00    -0.642 OA
ATOM    145  C1  UAP d 301      -7.554  -4.282  50.841  0.00  0.00     0.167 C 
ATOM    146  C5  UAP d 301      -8.753  -6.167  51.736  0.00  0.00     0.147 C 
ATOM    147  C4  UAP d 301      -7.923  -7.037  51.125  0.00  0.00    -0.034 C 
ATOM    148  O3S UAP d 301      -7.482  -5.247  46.527  0.00  0.00    -0.572 OA
ATOM    149  C6  UAP d 301      -9.844  -6.633  52.414  0.00  0.00     0.233 C 
ATOM    150  O5  UAP d 301      -8.689  -4.819  51.505  0.00  0.00    -0.311 OA
ATOM    151  O2S UAP d 301      -9.700  -4.420  46.761  0.00  0.00    -0.572 OA
ATOM    152  O2  UAP d 301      -8.447  -5.176  48.898  0.00  0.00    -0.244 OA
ATOM    153  O3  UAP d 301      -5.684  -6.746  50.390  0.00  0.00    -0.389 OA
ATOM    154  S   UAP d 301      -8.389  -4.458  47.310  0.00  0.00     0.252 S 
ATOM    155  H   UAP d 301      -7.243  -7.253  49.258  0.00  0.00     0.093 H 
ATOM    156  H   UAP d 301      -6.409  -4.815  49.124  0.00  0.00     0.097 H 
ATOM    157  H   UAP d 301      -7.778  -3.273  50.563  0.00  0.00     0.134 H 
ATOM    158  H   UAP d 301      -7.929  -8.030  51.407  0.00  0.00     0.085 H 
ATOM    159  H   UAP d 301      -5.459  -6.160  51.130  0.00  0.00     0.210 HD
ENDROOT
TORSDOF 50
ENDMDL
MODEL 45
REMARK VINA RESULT:      -6.9      3.367      6.322
REMARK  0 active torsions:
REMARK  status: ('A' for Active; 'I' for Inactive)
REMARK       I    between atoms: C3_1  and  O3_85 
REMARK       I    between atoms: C6_2  and  C5_22 
REMARK       I    between atoms: C6_3  and  C5_14 
REMARK       I    between atoms: C6_3  and  O6_30 
REMARK       I    between atoms: C1_4  and  O1_84 
REMARK       I    between atoms: O2S_6  and  S1_45 
REMARK       I    between atoms: C1_7  and  O1_36 
REMARK       I    between atoms: S1_10  and  N_69 
REMARK       I    between atoms: S1_10  and  O1S_27 
REMARK       I    between atoms: S1_10  and  O2S_71 
REMARK       I    between atoms: S1_10  and  O3S_88 
REMARK       I    between atoms: O4_11  and  C1_42 
REMARK       I    between atoms: O4_11  and  C4_63 
REMARK       I    between atoms: O6_12  and  C6_94 
REMARK       I    between atoms: O6_12  and  S2_28 
REMARK       I    between atoms: C1_13  and  O4_51 
REMARK       I    between atoms: S2_16  and  O6_76 
REMARK       I    between atoms: C3_18  and  O3_103 
REMARK       I    between atoms: C1_19  and  O1_37 
REMARK       I    between atoms: O4_20  and  C1_23 
REMARK       I    between atoms: O4_20  and  C4_77 
REMARK       I    between atoms: O3S_21  and  S1_92 
REMARK       I    between atoms: C3_24  and  O3_87 
REMARK       I    between atoms: O3_25  and  C3_46 
REMARK       I    between atoms: C6_29  and  C5_79 
REMARK       I    between atoms: C6_29  and  O6_76 
REMARK       I    between atoms: O6_30  and  S2_31 
REMARK       I    between atoms: O1_36  and  C4_81 
REMARK       I    between atoms: C2_38  and  O2_72 
REMARK       I    between atoms: S1_45  and  N_74 
REMARK       I    between atoms: S1_45  and  O1S_75 
REMARK       I    between atoms: S1_45  and  O3S_101 
REMARK       I    between atoms: O1S_47  and  S1_92 
REMARK       I    between atoms: S_48  and  O2_91 
REMARK       I    between atoms: C5_49  and  C6_67 
REMARK       I    between atoms: O4_51  and  C4_57 
REMARK       I    between atoms: N_52  and  C2_73 
REMARK       I    between atoms: N_52  and  S1_92 
REMARK       I    between atoms: C5_53  and  C6_61 
REMARK       I    between atoms: C4_56  and  O1_84 
REMARK       I    between atoms: C2_62  and  O2_91 
REMARK       I    between atoms: S_66  and  O2_105 
REMARK       I    between atoms: O3_68  and  C3_102 
REMARK       I    between atoms: N_69  and  C2_83 
REMARK       I    between atoms: C3_70  and  O3_98 
REMARK       I    between atoms: O2_72  and  S_96 
REMARK       I    between atoms: N_74  and  C2_86 
REMARK       I    between atoms: O2S_80  and  S1_92 
REMARK       I    between atoms: C5_89  and  C6_94 
REMARK       I    between atoms: C2_104  and  O2_105 
ROOT
ATOM      1  C3  IDS d 305      -4.816  -1.473  51.871  0.00  0.00     0.094 C 
ATOM      2  O3S IDS d 305      -8.876  -1.947  49.323  0.00  0.00    -0.572 OA
ATOM      3  C1  IDS d 305      -6.802  -0.030  51.793  0.00  0.00     0.161 C 
ATOM      4  O62 IDS d 305      -4.417   2.191  54.075  0.00  0.00    -0.646 OA
ATOM      5  O5  IDS d 305      -5.959   0.711  52.649  0.00  0.00    -0.340 OA
ATOM      6  O61 IDS d 305      -3.050   2.626  52.379  0.00  0.00    -0.646 OA
ATOM      7  O1S IDS d 305      -7.480  -3.841  48.907  0.00  0.00    -0.572 OA
ATOM      8  C5  IDS d 305      -4.739   1.032  52.004  0.00  0.00     0.152 C 
ATOM      9  S   IDS d 305      -7.510  -2.448  49.295  0.00  0.00     0.252 S 
ATOM     10  C6  IDS d 305      -4.024   2.045  52.888  0.00  0.00     0.206 C 
ATOM     11  C4  IDS d 305      -3.904  -0.260  51.890  0.00  0.00     0.103 C 
ATOM     12  O3  IDS d 305      -4.156  -2.528  51.250  0.00  0.00    -0.390 OA
ATOM     13  O2S IDS d 305      -6.717  -1.675  48.383  0.00  0.00    -0.572 OA
ATOM     14  C2  IDS d 305      -5.986  -1.089  51.038  0.00  0.00     0.134 C 
ATOM     15  O2  IDS d 305      -6.744  -2.262  50.869  0.00  0.00    -0.244 OA
ATOM     16  H   IDS d 305      -5.102  -1.770  52.858  0.00  0.00     0.091 H 
ATOM     17  H   IDS d 305      -7.572  -0.542  52.333  0.00  0.00     0.133 H 
ATOM     18  H   IDS d 305      -4.892   1.438  51.025  0.00  0.00     0.104 H 
ATOM     19  H   IDS d 305      -3.342  -0.192  50.982  0.00  0.00     0.092 H 
ATOM     20  H   IDS d 305      -3.895  -2.262  50.354  0.00  0.00     0.210 HD
ATOM     21  H   IDS d 305      -5.698  -0.680  50.091  0.00  0.00     0.097 H 
ATOM     22  C6  IDS d 303       3.186  -0.970  57.078  0.00  0.00     0.206 C 
ATOM     23  O61 IDS d 303       3.246  -1.160  58.285  0.00  0.00    -0.646 OA
ATOM     24  C5  IDS d 303       2.662   0.328  56.576  0.00  0.00     0.152 C 
ATOM     25  C1  IDS d 303       2.027   1.454  54.598  0.00  0.00     0.161 C 
ATOM     26  O3  IDS d 303       1.264   2.769  57.209  0.00  0.00    -0.390 OA
ATOM     27  O2S IDS d 303       3.047   5.416  53.975  0.00  0.00    -0.572 OA
ATOM     28  O5  IDS d 303       2.783   0.368  55.148  0.00  0.00    -0.340 OA
ATOM     29  C3  IDS d 303       2.559   2.777  56.711  0.00  0.00     0.094 C 
ATOM     30  S   IDS d 303       3.529   4.222  53.388  0.00  0.00     0.252 S 
ATOM     31  C4  IDS d 303       3.352   1.541  57.183  0.00  0.00     0.103 C 
ATOM     32  O1S IDS d 303       4.810   4.375  52.821  0.00  0.00    -0.572 OA
ATOM     33  C2  IDS d 303       2.480   2.778  55.214  0.00  0.00     0.134 C 
ATOM     34  O3S IDS d 303       2.556   3.857  52.427  0.00  0.00    -0.572 OA
ATOM     35  O2  IDS d 303       3.682   3.116  54.684  0.00  0.00    -0.244 OA
ATOM     36  O62 IDS d 303       3.334  -1.843  56.250  0.00  0.00    -0.646 OA
ATOM     37  H   IDS d 303       1.636   0.383  56.874  0.00  0.00     0.104 H 
ATOM     38  H   IDS d 303       2.220   1.483  53.546  0.00  0.00     0.133 H 
ATOM     39  H   IDS d 303       0.791   3.555  56.896  0.00  0.00     0.210 HD
ATOM     40  H   IDS d 303       3.067   3.648  57.071  0.00  0.00     0.091 H 
ATOM     41  H   IDS d 303       3.391   1.523  58.253  0.00  0.00     0.092 H 
ATOM     42  H   IDS d 303       1.729   3.501  54.973  0.00  0.00     0.097 H 
ATOM     43  C6  SGN d 306      -9.821  -0.180  51.848  0.00  0.00     0.067 C 
ATOM     44  S1  SGN d 306      -9.973   6.701  51.224  0.00  0.00     0.156 S 
ATOM     45  C5  SGN d 306      -9.688   1.146  51.118  0.00  0.00     0.091 C 
ATOM     46  C3  SGN d 306      -8.206   3.141  50.875  0.00  0.00     0.083 C 
ATOM     47  C1  SGN d 306     -10.726   3.322  50.972  0.00  0.00     0.147 C 
ATOM     48  O1S SGN d 306      -9.799   7.749  50.251  0.00  0.00    -0.296 OA
ATOM     49  O6  SGN d 306      -9.332  -0.028  53.179  0.00  0.00    -0.254 OA
ATOM     50  S2  SGN d 306      -9.775  -1.208  54.423  0.00  0.00     0.251 S 
ATOM     51  O4S SGN d 306      -8.695  -2.124  54.657  0.00  0.00    -0.572 OA
ATOM     52  O1  SGN d 306     -10.875   3.250  49.561  0.00  0.00    -0.369 OA
ATOM     53  O4  SGN d 306      -7.330   0.912  50.884  0.00  0.00    -0.348 OA
ATOM     54  C4  SGN d 306      -8.334   1.744  51.462  0.00  0.00     0.095 C 
ATOM     55  N   SGN d 306      -9.323   5.215  50.536  0.00  0.00    -0.210 NA
ATOM     56  O2S SGN d 306      -9.227   6.996  52.413  0.00  0.00    -0.296 OA
ATOM     57  O5  SGN d 306     -10.744   2.029  51.562  0.00  0.00    -0.350 OA
ATOM     58  O6S SGN d 306     -10.048  -0.482  55.634  0.00  0.00    -0.572 OA
ATOM     59  C2  SGN d 306      -9.396   3.992  51.308  0.00  0.00     0.081 C 
ATOM     60  O3S SGN d 306     -11.372   6.542  51.524  0.00  0.00    -0.296 OA
ATOM     61  O5S SGN d 306     -10.965  -1.902  53.997  0.00  0.00    -0.572 OA
ATOM     62  O3  SGN d 306      -7.064   3.745  51.466  0.00  0.00    -0.391 OA
ATOM     63  H   SGN d 306      -9.251  -0.929  51.340  0.00  0.00     0.080 H 
ATOM     64  H   SGN d 306     -10.849  -0.478  51.872  0.00  0.00     0.080 H 
ATOM     65  H   SGN d 306      -9.764   1.008  50.059  0.00  0.00     0.090 H 
ATOM     66  H   SGN d 306      -8.147   3.079  49.808  0.00  0.00     0.089 H 
ATOM     67  H   SGN d 306     -11.545   3.890  51.361  0.00  0.00     0.131 H 
ATOM     68  H   SGN d 306      -8.855   7.852  50.052  0.00  0.00     0.231 HD
ATOM     69  H   SGN d 306     -10.142   2.738  49.184  0.00  0.00     0.212 HD
ATOM     70  H   SGN d 306      -8.226   1.806  52.525  0.00  0.00     0.091 H 
ATOM     71  H   SGN d 306      -8.336   5.384  50.337  0.00  0.00     0.140 HD
ATOM     72  H   SGN d 306      -8.288   7.098  52.190  0.00  0.00     0.231 HD
ATOM     73  H   SGN d 306      -9.354   4.146  52.366  0.00  0.00     0.076 H 
ATOM     74  H   SGN d 306     -11.857   6.344  50.707  0.00  0.00     0.231 HD
ATOM     75  H   SGN d 306      -7.175   3.773  52.430  0.00  0.00     0.210 HD
ATOM     76  C1  SGN d 302       5.751   1.602  57.589  0.00  0.00     0.150 C 
ATOM     77  O4  SGN d 302       8.321  -0.327  54.962  0.00  0.00    -0.348 OA
ATOM     78  O6  SGN d 302       8.434  -1.660  57.750  0.00  0.00    -0.254 OA
ATOM     79  O3S SGN d 302       4.965   4.550  58.308  0.00  0.00    -0.296 OA
ATOM     80  S2  SGN d 302       8.795  -2.808  58.970  0.00  0.00     0.251 S 
ATOM     81  O5  SGN d 302       6.247   0.300  57.905  0.00  0.00    -0.349 OA
ATOM     82  O1S SGN d 302       5.551   6.002  56.562  0.00  0.00    -0.296 OA
ATOM     83  O6S SGN d 302       7.588  -3.039  59.718  0.00  0.00    -0.572 OA
ATOM     84  N   SGN d 302       6.306   3.544  56.359  0.00  0.00    -0.210 NA
ATOM     85  O5S SGN d 302       9.173  -4.010  58.318  0.00  0.00    -0.572 OA
ATOM     86  C4  SGN d 302       7.985   0.298  56.201  0.00  0.00     0.095 C 
ATOM     87  O3  SGN d 302       8.647   2.382  55.328  0.00  0.00    -0.391 OA
ATOM     88  C2  SGN d 302       6.902   2.396  56.974  0.00  0.00     0.081 C 
ATOM     89  O2S SGN d 302       7.131   5.224  58.081  0.00  0.00    -0.296 OA
ATOM     90  O1  SGN d 302       4.675   1.562  56.653  0.00  0.00    -0.348 OA
ATOM     91  C5  SGN d 302       6.762  -0.410  56.784  0.00  0.00     0.091 C 
ATOM     92  S1  SGN d 302       5.967   4.909  57.376  0.00  0.00     0.156 S 
ATOM     93  C6  SGN d 302       7.133  -1.766  57.258  0.00  0.00     0.067 C 
ATOM     94  O4S SGN d 302       9.875  -2.328  59.752  0.00  0.00    -0.572 OA
ATOM     95  C3  SGN d 302       7.528   1.670  55.802  0.00  0.00     0.083 C 
ATOM     96  H   SGN d 302       5.380   2.052  58.486  0.00  0.00     0.131 H 
ATOM     97  H   SGN d 302       4.147   4.328  57.835  0.00  0.00     0.231 HD
ATOM     98  H   SGN d 302       4.743   5.759  56.084  0.00  0.00     0.231 HD
ATOM     99  H   SGN d 302       5.424   3.245  55.944  0.00  0.00     0.140 HD
ATOM    100  H   SGN d 302       8.795   0.285  56.901  0.00  0.00     0.091 H 
ATOM    101  H   SGN d 302       9.038   1.908  54.577  0.00  0.00     0.210 HD
ATOM    102  H   SGN d 302       7.625   2.585  57.740  0.00  0.00     0.076 H 
ATOM    103  H   SGN d 302       6.964   5.986  58.657  0.00  0.00     0.231 HD
ATOM    104  H   SGN d 302       6.027  -0.460  56.008  0.00  0.00     0.090 H 
ATOM    105  H   SGN d 302       6.467  -2.084  58.033  0.00  0.00     0.080 H 
ATOM    106  H   SGN d 302       7.070  -2.488  56.470  0.00  0.00     0.080 H 
ATOM    107  H   SGN d 302       6.783   1.593  55.038  0.00  0.00     0.089 H 
ATOM    108  O2S SGN d 304      -3.450  -4.468  55.769  0.00  0.00    -0.296 OA
ATOM    109  C1  SGN d 304      -1.928  -1.256  52.703  0.00  0.00     0.150 C 
ATOM    110  S2  SGN d 304       2.113  -0.330  50.443  0.00  0.00     0.251 S 
ATOM    111  O4  SGN d 304       0.628   1.266  54.738  0.00  0.00    -0.348 OA
ATOM    112  C6  SGN d 304       0.520   1.429  51.890  0.00  0.00     0.067 C 
ATOM    113  O4S SGN d 304       3.324   0.361  50.760  0.00  0.00    -0.572 OA
ATOM    114  O1  SGN d 304      -3.018  -0.402  52.986  0.00  0.00    -0.348 OA
ATOM    115  O5  SGN d 304      -0.905  -0.542  52.026  0.00  0.00    -0.349 OA
ATOM    116  S1  SGN d 304      -2.689  -4.089  54.620  0.00  0.00     0.156 S 
ATOM    117  O5S SGN d 304       2.160  -0.801  49.092  0.00  0.00    -0.572 OA
ATOM    118  C3  SGN d 304      -0.919  -0.574  54.845  0.00  0.00     0.083 C 
ATOM    119  N   SGN d 304      -2.497  -2.332  54.734  0.00  0.00    -0.210 NA
ATOM    120  O1S SGN d 304      -3.369  -4.464  53.412  0.00  0.00    -0.296 OA
ATOM    121  O6  SGN d 304       0.756   0.804  50.626  0.00  0.00    -0.254 OA
ATOM    122  C4  SGN d 304       0.150   0.140  54.028  0.00  0.00     0.095 C 
ATOM    123  C5  SGN d 304      -0.452   0.608  52.724  0.00  0.00     0.091 C 
ATOM    124  C2  SGN d 304      -1.400  -1.737  54.028  0.00  0.00     0.081 C 
ATOM    125  O6S SGN d 304       1.941  -1.451  51.330  0.00  0.00    -0.572 OA
ATOM    126  O3  SGN d 304      -0.399  -1.071  56.059  0.00  0.00    -0.391 OA
ATOM    127  O3S SGN d 304      -1.392  -4.715  54.654  0.00  0.00    -0.296 OA
ATOM    128  H   SGN d 304      -4.321  -4.041  55.736  0.00  0.00     0.231 HD
ATOM    129  H   SGN d 304      -2.238  -2.069  52.079  0.00  0.00     0.131 H 
ATOM    130  H   SGN d 304       1.448   1.518  52.417  0.00  0.00     0.080 H 
ATOM    131  H   SGN d 304       0.096   2.397  51.721  0.00  0.00     0.080 H 
ATOM    132  H   SGN d 304      -1.703   0.117  55.075  0.00  0.00     0.089 H 
ATOM    133  H   SGN d 304      -2.387  -2.101  55.722  0.00  0.00     0.140 HD
ATOM    134  H   SGN d 304      -4.243  -4.043  53.389  0.00  0.00     0.231 HD
ATOM    135  H   SGN d 304       0.958  -0.536  53.843  0.00  0.00     0.091 H 
ATOM    136  H   SGN d 304      -1.269   1.269  52.926  0.00  0.00     0.090 H 
ATOM    137  H   SGN d 304      -0.596  -2.424  53.870  0.00  0.00     0.076 H 
ATOM    138  H   SGN d 304       0.314  -1.701  55.871  0.00  0.00     0.210 HD
ATOM    139  H   SGN d 304      -0.933  -4.463  55.470  0.00  0.00     0.231 HD
ATOM    140  O1S UAP d 301      10.191  -4.498  54.629  0.00  0.00    -0.572 OA
ATOM    141  C3  UAP d 301       9.669  -0.712  52.403  0.00  0.00     0.086 C 
ATOM    142  O62 UAP d 301      12.692   1.572  55.118  0.00  0.00    -0.642 OA
ATOM    143  C2  UAP d 301       9.670  -1.696  53.545  0.00  0.00     0.135 C 
ATOM    144  O61 UAP d 301      12.469   2.169  53.057  0.00  0.00    -0.642 OA
ATOM    145  C1  UAP d 301       9.579  -0.992  54.882  0.00  0.00     0.167 C 
ATOM    146  C5  UAP d 301      11.003   0.679  53.896  0.00  0.00     0.147 C 
ATOM    147  C4  UAP d 301      10.476   0.463  52.672  0.00  0.00    -0.034 C 
ATOM    148  O3S UAP d 301      10.356  -4.472  52.269  0.00  0.00    -0.572 OA
ATOM    149  C6  UAP d 301      12.055   1.539  54.039  0.00  0.00     0.233 C 
ATOM    150  O5  UAP d 301      10.690  -0.111  54.970  0.00  0.00    -0.311 OA
ATOM    151  O2S UAP d 301      12.289  -4.516  53.655  0.00  0.00    -0.572 OA
ATOM    152  O2  UAP d 301      10.920  -2.321  53.538  0.00  0.00    -0.244 OA
ATOM    153  O3  UAP d 301       8.361  -0.425  52.059  0.00  0.00    -0.389 OA
ATOM    154  S   UAP d 301      10.949  -4.063  53.510  0.00  0.00     0.252 S 
ATOM    155  H   UAP d 301      10.144  -1.158  51.553  0.00  0.00     0.093 H 
ATOM    156  H   UAP d 301       8.842  -2.363  53.426  0.00  0.00     0.097 H 
ATOM    157  H   UAP d 301       9.624  -1.665  55.713  0.00  0.00     0.134 H 
ATOM    158  H   UAP d 301      10.650   1.144  51.917  0.00  0.00     0.085 H 
ATOM    159  H   UAP d 301       7.910  -0.019  52.816  0.00  0.00     0.210 HD
ENDROOT
TORSDOF 50
ENDMDL
MODEL 46
REMARK VINA RESULT:      -6.8      2.660      4.266
REMARK  0 active torsions:
REMARK  status: ('A' for Active; 'I' for Inactive)
REMARK       I    between atoms: C3_1  and  O3_85 
REMARK       I    between atoms: C6_2  and  C5_22 
REMARK       I    between atoms: C6_3  and  C5_14 
REMARK       I    between atoms: C6_3  and  O6_30 
REMARK       I    between atoms: C1_4  and  O1_84 
REMARK       I    between atoms: O2S_6  and  S1_45 
REMARK       I    between atoms: C1_7  and  O1_36 
REMARK       I    between atoms: S1_10  and  N_69 
REMARK       I    between atoms: S1_10  and  O1S_27 
REMARK       I    between atoms: S1_10  and  O2S_71 
REMARK       I    between atoms: S1_10  and  O3S_88 
REMARK       I    between atoms: O4_11  and  C1_42 
REMARK       I    between atoms: O4_11  and  C4_63 
REMARK       I    between atoms: O6_12  and  C6_94 
REMARK       I    between atoms: O6_12  and  S2_28 
REMARK       I    between atoms: C1_13  and  O4_51 
REMARK       I    between atoms: S2_16  and  O6_76 
REMARK       I    between atoms: C3_18  and  O3_103 
REMARK       I    between atoms: C1_19  and  O1_37 
REMARK       I    between atoms: O4_20  and  C1_23 
REMARK       I    between atoms: O4_20  and  C4_77 
REMARK       I    between atoms: O3S_21  and  S1_92 
REMARK       I    between atoms: C3_24  and  O3_87 
REMARK       I    between atoms: O3_25  and  C3_46 
REMARK       I    between atoms: C6_29  and  C5_79 
REMARK       I    between atoms: C6_29  and  O6_76 
REMARK       I    between atoms: O6_30  and  S2_31 
REMARK       I    between atoms: O1_36  and  C4_81 
REMARK       I    between atoms: C2_38  and  O2_72 
REMARK       I    between atoms: S1_45  and  N_74 
REMARK       I    between atoms: S1_45  and  O1S_75 
REMARK       I    between atoms: S1_45  and  O3S_101 
REMARK       I    between atoms: O1S_47  and  S1_92 
REMARK       I    between atoms: S_48  and  O2_91 
REMARK       I    between atoms: C5_49  and  C6_67 
REMARK       I    between atoms: O4_51  and  C4_57 
REMARK       I    between atoms: N_52  and  C2_73 
REMARK       I    between atoms: N_52  and  S1_92 
REMARK       I    between atoms: C5_53  and  C6_61 
REMARK       I    between atoms: C4_56  and  O1_84 
REMARK       I    between atoms: C2_62  and  O2_91 
REMARK       I    between atoms: S_66  and  O2_105 
REMARK       I    between atoms: O3_68  and  C3_102 
REMARK       I    between atoms: N_69  and  C2_83 
REMARK       I    between atoms: C3_70  and  O3_98 
REMARK       I    between atoms: O2_72  and  S_96 
REMARK       I    between atoms: N_74  and  C2_86 
REMARK       I    between atoms: O2S_80  and  S1_92 
REMARK       I    between atoms: C5_89  and  C6_94 
REMARK       I    between atoms: C2_104  and  O2_105 
ROOT
ATOM      1  C3  IDS d 305      -3.256   6.585  54.247  0.00  0.00     0.094 C 
ATOM      2  O3S IDS d 305      -7.406   8.531  55.728  0.00  0.00    -0.572 OA
ATOM      3  C1  IDS d 305      -5.549   6.191  53.458  0.00  0.00     0.161 C 
ATOM      4  O62 IDS d 305      -3.606   3.420  51.366  0.00  0.00    -0.646 OA
ATOM      5  O5  IDS d 305      -4.829   5.257  52.683  0.00  0.00    -0.340 OA
ATOM      6  O61 IDS d 305      -3.174   2.221  53.184  0.00  0.00    -0.646 OA
ATOM      7  O1S IDS d 305      -5.609   9.531  56.945  0.00  0.00    -0.572 OA
ATOM      8  C5  IDS d 305      -4.125   4.348  53.512  0.00  0.00     0.152 C 
ATOM      9  S   IDS d 305      -6.049   8.357  56.223  0.00  0.00     0.252 S 
ATOM     10  C6  IDS d 305      -3.611   3.234  52.611  0.00  0.00     0.206 C 
ATOM     11  C4  IDS d 305      -2.943   5.103  54.154  0.00  0.00     0.103 C 
ATOM     12  O3  IDS d 305      -2.487   7.149  55.259  0.00  0.00    -0.390 OA
ATOM     13  O2S IDS d 305      -5.977   7.209  57.080  0.00  0.00    -0.572 OA
ATOM     14  C2  IDS d 305      -4.689   6.673  54.636  0.00  0.00     0.134 C 
ATOM     15  O2  IDS d 305      -4.936   8.033  54.898  0.00  0.00    -0.244 OA
ATOM     16  H   IDS d 305      -3.054   7.092  53.327  0.00  0.00     0.091 H 
ATOM     17  H   IDS d 305      -5.827   7.054  52.889  0.00  0.00     0.133 H 
ATOM     18  H   IDS d 305      -4.743   3.942  54.286  0.00  0.00     0.104 H 
ATOM     19  H   IDS d 305      -2.792   4.684  55.126  0.00  0.00     0.092 H 
ATOM     20  H   IDS d 305      -2.667   6.691  56.095  0.00  0.00     0.210 HD
ATOM     21  H   IDS d 305      -4.919   6.070  55.490  0.00  0.00     0.097 H 
ATOM     22  C6  IDS d 303       5.154   3.153  51.265  0.00  0.00     0.206 C 
ATOM     23  O61 IDS d 303       5.685   3.435  50.200  0.00  0.00    -0.646 OA
ATOM     24  C5  IDS d 303       4.028   2.180  51.276  0.00  0.00     0.152 C 
ATOM     25  C1  IDS d 303       2.380   1.236  52.681  0.00  0.00     0.161 C 
ATOM     26  O3  IDS d 303       2.089   0.723  49.718  0.00  0.00    -0.390 OA
ATOM     27  O2S IDS d 303       1.497  -2.803  52.522  0.00  0.00    -0.572 OA
ATOM     28  O5  IDS d 303       3.637   1.922  52.630  0.00  0.00    -0.340 OA
ATOM     29  C3  IDS d 303       3.028   0.074  50.506  0.00  0.00     0.094 C 
ATOM     30  S   IDS d 303       2.179  -2.032  53.493  0.00  0.00     0.252 S 
ATOM     31  C4  IDS d 303       4.349   0.867  50.576  0.00  0.00     0.103 C 
ATOM     32  O1S IDS d 303       3.027  -2.811  54.306  0.00  0.00    -0.572 OA
ATOM     33  C2  IDS d 303       2.458  -0.068  51.886  0.00  0.00     0.134 C 
ATOM     34  O3S IDS d 303       1.165  -1.385  54.238  0.00  0.00    -0.572 OA
ATOM     35  O2  IDS d 303       3.178  -0.970  52.598  0.00  0.00    -0.244 OA
ATOM     36  O62 IDS d 303       5.344   3.761  52.296  0.00  0.00    -0.646 OA
ATOM     37  H   IDS d 303       3.228   2.628  50.725  0.00  0.00     0.104 H 
ATOM     38  H   IDS d 303       2.181   0.999  53.706  0.00  0.00     0.133 H 
ATOM     39  H   IDS d 303       1.271   0.202  49.694  0.00  0.00     0.210 HD
ATOM     40  H   IDS d 303       3.244  -0.883  50.079  0.00  0.00     0.091 H 
ATOM     41  H   IDS d 303       4.749   0.991  49.591  0.00  0.00     0.092 H 
ATOM     42  H   IDS d 303       1.450  -0.398  51.740  0.00  0.00     0.097 H 
ATOM     43  C6  SGN d 306      -8.059   7.689  52.686  0.00  0.00     0.067 C 
ATOM     44  S1  SGN d 306     -11.088   1.592  51.499  0.00  0.00     0.156 S 
ATOM     45  C5  SGN d 306      -8.708   6.369  53.068  0.00  0.00     0.091 C 
ATOM     46  C3  SGN d 306      -8.300   3.907  53.165  0.00  0.00     0.083 C 
ATOM     47  C1  SGN d 306     -10.497   4.892  52.396  0.00  0.00     0.147 C 
ATOM     48  O1S SGN d 306     -11.675   0.471  52.187  0.00  0.00    -0.296 OA
ATOM     49  O6  SGN d 306      -7.253   7.491  51.527  0.00  0.00    -0.254 OA
ATOM     50  S2  SGN d 306      -6.753   8.881  50.550  0.00  0.00     0.251 S 
ATOM     51  O4S SGN d 306      -5.390   9.234  50.833  0.00  0.00    -0.572 OA
ATOM     52  O1  SGN d 306     -11.070   4.857  53.695  0.00  0.00    -0.369 OA
ATOM     53  O4  SGN d 306      -6.674   5.488  53.937  0.00  0.00    -0.348 OA
ATOM     54  C4  SGN d 306      -7.666   5.271  52.935  0.00  0.00     0.095 C 
ATOM     55  N   SGN d 306     -10.181   2.534  52.679  0.00  0.00    -0.210 NA
ATOM     56  O2S SGN d 306     -10.164   1.135  50.500  0.00  0.00    -0.296 OA
ATOM     57  O5  SGN d 306      -9.809   6.115  52.165  0.00  0.00    -0.350 OA
ATOM     58  O6S SGN d 306      -6.864   8.503  49.166  0.00  0.00    -0.572 OA
ATOM     59  C2  SGN d 306      -9.506   3.741  52.247  0.00  0.00     0.081 C 
ATOM     60  O3S SGN d 306     -12.125   2.397  50.907  0.00  0.00    -0.296 OA
ATOM     61  O5S SGN d 306      -7.645   9.981  50.824  0.00  0.00    -0.572 OA
ATOM     62  O3  SGN d 306      -7.358   2.928  52.747  0.00  0.00    -0.391 OA
ATOM     63  H   SGN d 306      -7.448   8.035  53.493  0.00  0.00     0.080 H 
ATOM     64  H   SGN d 306      -8.815   8.418  52.481  0.00  0.00     0.080 H 
ATOM     65  H   SGN d 306      -9.074   6.401  54.073  0.00  0.00     0.090 H 
ATOM     66  H   SGN d 306      -8.583   3.811  54.192  0.00  0.00     0.089 H 
ATOM     67  H   SGN d 306     -11.290   4.803  51.683  0.00  0.00     0.131 H 
ATOM     68  H   SGN d 306     -10.973  -0.068  52.584  0.00  0.00     0.231 HD
ATOM     69  H   SGN d 306     -10.369   4.936  54.360  0.00  0.00     0.212 HD
ATOM     70  H   SGN d 306      -7.241   5.293  51.954  0.00  0.00     0.091 H 
ATOM     71  H   SGN d 306      -9.468   1.917  53.070  0.00  0.00     0.140 HD
ATOM     72  H   SGN d 306      -9.475   0.596  50.919  0.00  0.00     0.231 HD
ATOM     73  H   SGN d 306      -9.175   3.709  51.230  0.00  0.00     0.076 H 
ATOM     74  H   SGN d 306     -12.737   2.695  51.598  0.00  0.00     0.231 HD
ATOM     75  H   SGN d 306      -7.141   3.067  51.812  0.00  0.00     0.210 HD
ATOM     76  C1  SGN d 302       6.518  -0.219  50.784  0.00  0.00     0.150 C 
ATOM     77  O4  SGN d 302       8.593   0.025  54.371  0.00  0.00    -0.348 OA
ATOM     78  O6  SGN d 302      10.146   1.481  52.129  0.00  0.00    -0.254 OA
ATOM     79  O3S SGN d 302       4.934  -2.390  49.173  0.00  0.00    -0.296 OA
ATOM     80  S2  SGN d 302      11.314   2.479  51.369  0.00  0.00     0.251 S 
ATOM     81  O5  SGN d 302       7.558   0.749  50.942  0.00  0.00    -0.349 OA
ATOM     82  O1S SGN d 302       4.282  -4.144  50.586  0.00  0.00    -0.296 OA
ATOM     83  O6S SGN d 302      10.621   3.314  50.425  0.00  0.00    -0.572 OA
ATOM     84  N   SGN d 302       5.822  -2.332  51.585  0.00  0.00    -0.210 NA
ATOM     85  O5S SGN d 302      11.889   3.296  52.376  0.00  0.00    -0.572 OA
ATOM     86  C4  SGN d 302       8.476  -0.232  52.972  0.00  0.00     0.095 C 
ATOM     87  O3  SGN d 302       7.936  -2.478  53.429  0.00  0.00    -0.391 OA
ATOM     88  C2  SGN d 302       6.988  -1.512  51.448  0.00  0.00     0.081 C 
ATOM     89  O2S SGN d 302       6.450  -3.988  49.760  0.00  0.00    -0.296 OA
ATOM     90  O1  SGN d 302       5.298   0.191  51.399  0.00  0.00    -0.348 OA
ATOM     91  C5  SGN d 302       7.901   1.013  52.297  0.00  0.00     0.091 C 
ATOM     92  S1  SGN d 302       5.339  -3.269  50.205  0.00  0.00     0.156 S 
ATOM     93  C6  SGN d 302       8.908   2.103  52.289  0.00  0.00     0.067 C 
ATOM     94  O4S SGN d 302      12.315   1.660  50.788  0.00  0.00    -0.572 OA
ATOM     95  C3  SGN d 302       7.414  -1.288  52.884  0.00  0.00     0.083 C 
ATOM     96  H   SGN d 302       6.325  -0.344  49.740  0.00  0.00     0.131 H 
ATOM     97  H   SGN d 302       4.161  -1.882  49.465  0.00  0.00     0.231 HD
ATOM     98  H   SGN d 302       3.524  -3.622  50.891  0.00  0.00     0.231 HD
ATOM     99  H   SGN d 302       5.044  -1.719  51.826  0.00  0.00     0.140 HD
ATOM    100  H   SGN d 302       9.410  -0.502  52.524  0.00  0.00     0.091 H 
ATOM    101  H   SGN d 302       8.205  -2.322  54.348  0.00  0.00     0.210 HD
ATOM    102  H   SGN d 302       7.790  -1.914  50.867  0.00  0.00     0.076 H 
ATOM    103  H   SGN d 302       6.203  -4.520  48.987  0.00  0.00     0.231 HD
ATOM    104  H   SGN d 302       7.030   1.297  52.850  0.00  0.00     0.090 H 
ATOM    105  H   SGN d 302       8.721   2.775  51.477  0.00  0.00     0.080 H 
ATOM    106  H   SGN d 302       8.872   2.677  53.191  0.00  0.00     0.080 H 
ATOM    107  H   SGN d 302       6.550  -0.975  53.430  0.00  0.00     0.089 H 
ATOM    108  O2S SGN d 304       0.394   9.081  51.702  0.00  0.00    -0.296 OA
ATOM    109  C1  SGN d 304      -0.587   5.191  54.141  0.00  0.00     0.150 C 
ATOM    110  S2  SGN d 304       1.756   2.288  57.036  0.00  0.00     0.251 S 
ATOM    111  O4  SGN d 304       1.301   2.048  52.247  0.00  0.00    -0.348 OA
ATOM    112  C6  SGN d 304       0.189   1.617  54.840  0.00  0.00     0.067 C 
ATOM    113  O4S SGN d 304       2.630   1.169  56.869  0.00  0.00    -0.572 OA
ATOM    114  O1  SGN d 304      -1.760   4.959  53.387  0.00  0.00    -0.348 OA
ATOM    115  O5  SGN d 304      -0.216   4.020  54.851  0.00  0.00    -0.349 OA
ATOM    116  S1  SGN d 304       0.512   8.268  52.872  0.00  0.00     0.156 S 
ATOM    117  O5S SGN d 304       1.527   2.525  58.429  0.00  0.00    -0.572 OA
ATOM    118  C3  SGN d 304       0.731   4.385  52.221  0.00  0.00     0.083 C 
ATOM    119  N   SGN d 304       0.028   6.639  52.370  0.00  0.00    -0.210 NA
ATOM    120  O1S SGN d 304      -0.330   8.763  53.924  0.00  0.00    -0.296 OA
ATOM    121  O6  SGN d 304       0.212   1.916  56.238  0.00  0.00    -0.254 OA
ATOM    122  C4  SGN d 304       1.093   3.176  53.073  0.00  0.00     0.095 C 
ATOM    123  C5  SGN d 304      -0.043   2.879  54.022  0.00  0.00     0.091 C 
ATOM    124  C2  SGN d 304       0.498   5.536  53.156  0.00  0.00     0.081 C 
ATOM    125  O6S SGN d 304       2.345   3.462  56.446  0.00  0.00    -0.572 OA
ATOM    126  O3  SGN d 304       1.778   4.735  51.342  0.00  0.00    -0.391 OA
ATOM    127  O3S SGN d 304       1.880   8.243  53.323  0.00  0.00    -0.296 OA
ATOM    128  H   SGN d 304      -0.531   9.090  51.407  0.00  0.00     0.231 HD
ATOM    129  H   SGN d 304      -0.744   5.977  54.851  0.00  0.00     0.131 H 
ATOM    130  H   SGN d 304       1.126   1.184  54.558  0.00  0.00     0.080 H 
ATOM    131  H   SGN d 304      -0.610   0.932  54.648  0.00  0.00     0.080 H 
ATOM    132  H   SGN d 304      -0.134   4.154  51.635  0.00  0.00     0.089 H 
ATOM    133  H   SGN d 304       0.364   6.501  51.417  0.00  0.00     0.140 HD
ATOM    134  H   SGN d 304      -1.251   8.781  53.620  0.00  0.00     0.231 HD
ATOM    135  H   SGN d 304       1.988   3.389  53.620  0.00  0.00     0.091 H 
ATOM    136  H   SGN d 304      -0.934   2.686  53.463  0.00  0.00     0.090 H 
ATOM    137  H   SGN d 304       1.404   5.764  53.679  0.00  0.00     0.076 H 
ATOM    138  H   SGN d 304       2.573   4.949  51.855  0.00  0.00     0.210 HD
ATOM    139  H   SGN d 304       2.449   7.908  52.613  0.00  0.00     0.231 HD
ATOM    140  O1S UAP d 301      11.714   2.837  56.202  0.00  0.00    -0.572 OA
ATOM    141  C3  UAP d 301       9.039  -0.542  57.199  0.00  0.00     0.086 C 
ATOM    142  O62 UAP d 301      11.649  -3.605  54.846  0.00  0.00    -0.642 OA
ATOM    143  C2  UAP d 301       9.808   0.463  56.379  0.00  0.00     0.135 C 
ATOM    144  O61 UAP d 301      10.532  -4.275  56.565  0.00  0.00    -0.642 OA
ATOM    145  C1  UAP d 301       9.904   0.038  54.929  0.00  0.00     0.167 C 
ATOM    146  C5  UAP d 301      10.141  -2.198  55.788  0.00  0.00     0.147 C 
ATOM    147  C4  UAP d 301       9.362  -1.914  56.854  0.00  0.00    -0.034 C 
ATOM    148  O3S UAP d 301      11.053   2.462  58.443  0.00  0.00    -0.572 OA
ATOM    149  C6  UAP d 301      10.754  -3.416  55.702  0.00  0.00     0.233 C 
ATOM    150  O5  UAP d 301      10.542  -1.232  54.905  0.00  0.00    -0.311 OA
ATOM    151  O2S UAP d 301      13.192   1.795  57.645  0.00  0.00    -0.572 OA
ATOM    152  O2  UAP d 301      11.121   0.453  56.857  0.00  0.00    -0.244 OA
ATOM    153  O3  UAP d 301       7.691  -0.248  57.119  0.00  0.00    -0.389 OA
ATOM    154  S   UAP d 301      11.818   1.980  57.329  0.00  0.00     0.252 S 
ATOM    155  H   UAP d 301       9.335  -0.460  58.224  0.00  0.00     0.093 H 
ATOM    156  H   UAP d 301       9.319   1.412  56.450  0.00  0.00     0.097 H 
ATOM    157  H   UAP d 301      10.485   0.711  54.334  0.00  0.00     0.134 H 
ATOM    158  H   UAP d 301       8.992  -2.684  57.432  0.00  0.00     0.085 H 
ATOM    159  H   UAP d 301       7.400  -0.315  56.196  0.00  0.00     0.210 HD
ENDROOT
TORSDOF 50
ENDMDL
MODEL 47
REMARK VINA RESULT:      -6.8      4.472      8.663
REMARK  0 active torsions:
REMARK  status: ('A' for Active; 'I' for Inactive)
REMARK       I    between atoms: C3_1  and  O3_85 
REMARK       I    between atoms: C6_2  and  C5_22 
REMARK       I    between atoms: C6_3  and  C5_14 
REMARK       I    between atoms: C6_3  and  O6_30 
REMARK       I    between atoms: C1_4  and  O1_84 
REMARK       I    between atoms: O2S_6  and  S1_45 
REMARK       I    between atoms: C1_7  and  O1_36 
REMARK       I    between atoms: S1_10  and  N_69 
REMARK       I    between atoms: S1_10  and  O1S_27 
REMARK       I    between atoms: S1_10  and  O2S_71 
REMARK       I    between atoms: S1_10  and  O3S_88 
REMARK       I    between atoms: O4_11  and  C1_42 
REMARK       I    between atoms: O4_11  and  C4_63 
REMARK       I    between atoms: O6_12  and  C6_94 
REMARK       I    between atoms: O6_12  and  S2_28 
REMARK       I    between atoms: C1_13  and  O4_51 
REMARK       I    between atoms: S2_16  and  O6_76 
REMARK       I    between atoms: C3_18  and  O3_103 
REMARK       I    between atoms: C1_19  and  O1_37 
REMARK       I    between atoms: O4_20  and  C1_23 
REMARK       I    between atoms: O4_20  and  C4_77 
REMARK       I    between atoms: O3S_21  and  S1_92 
REMARK       I    between atoms: C3_24  and  O3_87 
REMARK       I    between atoms: O3_25  and  C3_46 
REMARK       I    between atoms: C6_29  and  C5_79 
REMARK       I    between atoms: C6_29  and  O6_76 
REMARK       I    between atoms: O6_30  and  S2_31 
REMARK       I    between atoms: O1_36  and  C4_81 
REMARK       I    between atoms: C2_38  and  O2_72 
REMARK       I    between atoms: S1_45  and  N_74 
REMARK       I    between atoms: S1_45  and  O1S_75 
REMARK       I    between atoms: S1_45  and  O3S_101 
REMARK       I    between atoms: O1S_47  and  S1_92 
REMARK       I    between atoms: S_48  and  O2_91 
REMARK       I    between atoms: C5_49  and  C6_67 
REMARK       I    between atoms: O4_51  and  C4_57 
REMARK       I    between atoms: N_52  and  C2_73 
REMARK       I    between atoms: N_52  and  S1_92 
REMARK       I    between atoms: C5_53  and  C6_61 
REMARK       I    between atoms: C4_56  and  O1_84 
REMARK       I    between atoms: C2_62  and  O2_91 
REMARK       I    between atoms: S_66  and  O2_105 
REMARK       I    between atoms: O3_68  and  C3_102 
REMARK       I    between atoms: N_69  and  C2_83 
REMARK       I    between atoms: C3_70  and  O3_98 
REMARK       I    between atoms: O2_72  and  S_96 
REMARK       I    between atoms: N_74  and  C2_86 
REMARK       I    between atoms: O2S_80  and  S1_92 
REMARK       I    between atoms: C5_89  and  C6_94 
REMARK       I    between atoms: C2_104  and  O2_105 
ROOT
ATOM      1  C3  IDS d 305      -7.909   0.245  51.826  0.00  0.00     0.094 C 
ATOM      2  O3S IDS d 305     -12.059   2.646  51.368  0.00  0.00    -0.572 OA
ATOM      3  C1  IDS d 305      -9.924   0.187  53.230  0.00  0.00     0.161 C 
ATOM      4  O62 IDS d 305      -7.490  -2.083  55.410  0.00  0.00    -0.646 OA
ATOM      5  O5  IDS d 305      -9.061  -0.663  53.955  0.00  0.00    -0.340 OA
ATOM      6  O61 IDS d 305      -6.201  -0.353  55.937  0.00  0.00    -0.646 OA
ATOM      7  O1S IDS d 305     -10.646   3.192  49.520  0.00  0.00    -0.572 OA
ATOM      8  C5  IDS d 305      -7.874   0.017  54.325  0.00  0.00     0.152 C 
ATOM      9  S   IDS d 305     -10.687   2.748  50.896  0.00  0.00     0.252 S 
ATOM     10  C6  IDS d 305      -7.143  -0.877  55.317  0.00  0.00     0.206 C 
ATOM     11  C4  IDS d 305      -7.020   0.215  53.055  0.00  0.00     0.103 C 
ATOM     12  O3  IDS d 305      -7.255   0.933  50.809  0.00  0.00    -0.390 OA
ATOM     13  O2S IDS d 305      -9.946   3.660  51.719  0.00  0.00    -0.572 OA
ATOM     14  C2  IDS d 305      -9.119   1.016  52.218  0.00  0.00     0.134 C 
ATOM     15  O2  IDS d 305      -9.861   1.200  51.037  0.00  0.00    -0.244 OA
ATOM     16  H   IDS d 305      -8.150  -0.740  51.486  0.00  0.00     0.091 H 
ATOM     17  H   IDS d 305     -10.661  -0.362  52.682  0.00  0.00     0.133 H 
ATOM     18  H   IDS d 305      -8.074   0.972  54.765  0.00  0.00     0.104 H 
ATOM     19  H   IDS d 305      -6.497   1.141  53.169  0.00  0.00     0.092 H 
ATOM     20  H   IDS d 305      -7.036   1.827  51.114  0.00  0.00     0.210 HD
ATOM     21  H   IDS d 305      -8.877   1.956  52.668  0.00  0.00     0.097 H 
ATOM     22  C6  IDS d 303       0.286  -4.656  52.290  0.00  0.00     0.206 C 
ATOM     23  O61 IDS d 303       0.399  -5.851  52.055  0.00  0.00    -0.646 OA
ATOM     24  C5  IDS d 303      -0.283  -4.226  53.596  0.00  0.00     0.152 C 
ATOM     25  C1  IDS d 303      -1.018  -2.321  54.784  0.00  0.00     0.161 C 
ATOM     26  O3  IDS d 303      -1.699  -5.010  55.981  0.00  0.00    -0.390 OA
ATOM     27  O2S IDS d 303      -0.098  -1.814  58.786  0.00  0.00    -0.572 OA
ATOM     28  O5  IDS d 303      -0.220  -2.798  53.694  0.00  0.00    -0.340 OA
ATOM     29  C3  IDS d 303      -0.426  -4.462  56.035  0.00  0.00     0.094 C 
ATOM     30  S   IDS d 303       0.381  -1.162  57.626  0.00  0.00     0.252 S 
ATOM     31  C4  IDS d 303       0.409  -4.853  54.799  0.00  0.00     0.103 C 
ATOM     32  O1S IDS d 303       1.636  -0.551  57.827  0.00  0.00    -0.572 OA
ATOM     33  C2  IDS d 303      -0.565  -2.970  56.093  0.00  0.00     0.134 C 
ATOM     34  O3S IDS d 303      -0.623  -0.227  57.279  0.00  0.00    -0.572 OA
ATOM     35  O2  IDS d 303       0.608  -2.406  56.475  0.00  0.00    -0.244 OA
ATOM     36  O62 IDS d 303       0.417  -3.789  51.453  0.00  0.00    -0.646 OA
ATOM     37  H   IDS d 303      -1.296  -4.567  53.618  0.00  0.00     0.104 H 
ATOM     38  H   IDS d 303      -0.868  -1.264  54.858  0.00  0.00     0.133 H 
ATOM     39  H   IDS d 303      -2.198  -4.747  56.770  0.00  0.00     0.210 HD
ATOM     40  H   IDS d 303       0.080  -4.835  56.901  0.00  0.00     0.091 H 
ATOM     41  H   IDS d 303       0.491  -5.918  54.740  0.00  0.00     0.092 H 
ATOM     42  H   IDS d 303      -1.339  -2.788  56.808  0.00  0.00     0.097 H 
ATOM     43  C6  SGN d 306     -12.935   0.018  53.016  0.00  0.00     0.067 C 
ATOM     44  S1  SGN d 306     -13.241   0.365  59.912  0.00  0.00     0.156 S 
ATOM     45  C5  SGN d 306     -12.856   0.700  54.372  0.00  0.00     0.091 C 
ATOM     46  C3  SGN d 306     -11.423   0.923  56.405  0.00  0.00     0.083 C 
ATOM     47  C1  SGN d 306     -13.940   0.720  56.531  0.00  0.00     0.147 C 
ATOM     48  O1S SGN d 306     -13.126   1.302  61.000  0.00  0.00    -0.296 OA
ATOM     49  O6  SGN d 306     -12.395  -1.297  53.127  0.00  0.00    -0.254 OA
ATOM     50  S2  SGN d 306     -12.765  -2.510  51.891  0.00  0.00     0.251 S 
ATOM     51  O4S SGN d 306     -11.659  -2.665  50.989  0.00  0.00    -0.572 OA
ATOM     52  O1  SGN d 306     -14.144   2.125  56.510  0.00  0.00    -0.369 OA
ATOM     53  O4  SGN d 306     -10.506   1.037  54.195  0.00  0.00    -0.348 OA
ATOM     54  C4  SGN d 306     -11.501   0.387  54.984  0.00  0.00     0.095 C 
ATOM     55  N   SGN d 306     -12.591   1.136  58.467  0.00  0.00    -0.210 NA
ATOM     56  O2S SGN d 306     -12.453  -0.804  60.176  0.00  0.00    -0.296 OA
ATOM     57  O5  SGN d 306     -13.910   0.181  55.215  0.00  0.00    -0.350 OA
ATOM     58  O6S SGN d 306     -13.002  -3.759  52.564  0.00  0.00    -0.572 OA
ATOM     59  C2  SGN d 306     -12.610   0.411  57.214  0.00  0.00     0.081 C 
ATOM     60  O3S SGN d 306     -14.624   0.016  59.713  0.00  0.00    -0.296 OA
ATOM     61  O5S SGN d 306     -13.958  -2.105  51.190  0.00  0.00    -0.572 OA
ATOM     62  O3  SGN d 306     -10.269   0.355  57.009  0.00  0.00    -0.391 OA
ATOM     63  H   SGN d 306     -12.372   0.578  52.300  0.00  0.00     0.080 H 
ATOM     64  H   SGN d 306     -13.955  -0.034  52.697  0.00  0.00     0.080 H 
ATOM     65  H   SGN d 306     -12.972   1.760  54.274  0.00  0.00     0.090 H 
ATOM     66  H   SGN d 306     -11.406   1.993  56.385  0.00  0.00     0.089 H 
ATOM     67  H   SGN d 306     -14.752   0.276  57.066  0.00  0.00     0.131 H 
ATOM     68  H   SGN d 306     -12.193   1.534  61.130  0.00  0.00     0.231 HD
ATOM     69  H   SGN d 306     -13.418   2.551  56.028  0.00  0.00     0.212 HD
ATOM     70  H   SGN d 306     -11.351  -0.672  55.007  0.00  0.00     0.091 H 
ATOM     71  H   SGN d 306     -11.617   1.367  58.663  0.00  0.00     0.140 HD
ATOM     72  H   SGN d 306     -11.526  -0.548  60.306  0.00  0.00     0.231 HD
ATOM     73  H   SGN d 306     -12.528  -0.650  57.328  0.00  0.00     0.076 H 
ATOM     74  H   SGN d 306     -15.138   0.820  59.536  0.00  0.00     0.231 HD
ATOM     75  H   SGN d 306     -10.342  -0.613  56.997  0.00  0.00     0.210 HD
ATOM     76  C1  SGN d 302       2.821  -5.165  54.893  0.00  0.00     0.150 C 
ATOM     77  O4  SGN d 302       5.318  -2.364  53.118  0.00  0.00    -0.348 OA
ATOM     78  O6  SGN d 302       5.569  -5.092  51.682  0.00  0.00    -0.254 OA
ATOM     79  O3S SGN d 302       2.010  -6.030  57.794  0.00  0.00    -0.296 OA
ATOM     80  S2  SGN d 302       6.001  -6.250  50.495  0.00  0.00     0.251 S 
ATOM     81  O5  SGN d 302       3.353  -5.410  53.589  0.00  0.00    -0.349 OA
ATOM     82  O1S SGN d 302       2.496  -4.321  59.323  0.00  0.00    -0.296 OA
ATOM     83  O6S SGN d 302       4.830  -7.035  50.211  0.00  0.00    -0.572 OA
ATOM     84  N   SGN d 302       3.289  -3.991  56.891  0.00  0.00    -0.210 NA
ATOM     85  O5S SGN d 302       6.374  -5.536  49.328  0.00  0.00    -0.572 OA
ATOM     86  C4  SGN d 302       5.021  -3.639  53.688  0.00  0.00     0.095 C 
ATOM     87  O3  SGN d 302       5.608  -2.823  55.818  0.00  0.00    -0.391 OA
ATOM     88  C2  SGN d 302       3.931  -4.537  55.733  0.00  0.00     0.081 C 
ATOM     89  O2S SGN d 302       4.151  -5.744  58.520  0.00  0.00    -0.296 OA
ATOM     90  O1  SGN d 302       1.709  -4.272  54.866  0.00  0.00    -0.348 OA
ATOM     91  C5  SGN d 302       3.836  -4.242  52.934  0.00  0.00     0.091 C 
ATOM     92  S1  SGN d 302       2.965  -5.074  58.209  0.00  0.00     0.156 S 
ATOM     93  C6  SGN d 302       4.251  -4.648  51.568  0.00  0.00     0.067 C 
ATOM     94  O4S SGN d 302       7.102  -7.007  50.967  0.00  0.00    -0.572 OA
ATOM     95  C3  SGN d 302       4.522  -3.313  55.065  0.00  0.00     0.083 C 
ATOM     96  H   SGN d 302       2.478  -6.093  55.300  0.00  0.00     0.131 H 
ATOM     97  H   SGN d 302       1.178  -5.582  57.574  0.00  0.00     0.231 HD
ATOM     98  H   SGN d 302       1.674  -3.866  59.082  0.00  0.00     0.231 HD
ATOM     99  H   SGN d 302       2.397  -3.600  56.590  0.00  0.00     0.140 HD
ATOM    100  H   SGN d 302       5.858  -4.305  53.665  0.00  0.00     0.091 H 
ATOM    101  H   SGN d 302       5.977  -2.040  55.381  0.00  0.00     0.210 HD
ATOM    102  H   SGN d 302       4.681  -5.280  55.907  0.00  0.00     0.076 H 
ATOM    103  H   SGN d 302       3.993  -6.356  59.256  0.00  0.00     0.231 HD
ATOM    104  H   SGN d 302       3.071  -3.495  52.899  0.00  0.00     0.090 H 
ATOM    105  H   SGN d 302       3.623  -5.435  51.207  0.00  0.00     0.080 H 
ATOM    106  H   SGN d 302       4.170  -3.835  50.876  0.00  0.00     0.080 H 
ATOM    107  H   SGN d 302       3.749  -2.577  55.003  0.00  0.00     0.089 H 
ATOM    108  O2S SGN d 304      -6.331  -3.475  48.711  0.00  0.00    -0.296 OA
ATOM    109  C1  SGN d 304      -4.995  -0.479  52.069  0.00  0.00     0.150 C 
ATOM    110  S2  SGN d 304      -1.066   1.901  53.163  0.00  0.00     0.251 S 
ATOM    111  O4  SGN d 304      -2.406  -2.509  54.563  0.00  0.00    -0.348 OA
ATOM    112  C6  SGN d 304      -2.632   0.324  54.833  0.00  0.00     0.067 C 
ATOM    113  O4S SGN d 304       0.143   1.605  53.866  0.00  0.00    -0.572 OA
ATOM    114  O1  SGN d 304      -6.088  -0.839  52.889  0.00  0.00    -0.348 OA
ATOM    115  O5  SGN d 304      -4.013   0.209  52.829  0.00  0.00    -0.349 OA
ATOM    116  S1  SGN d 304      -5.624  -2.312  49.149  0.00  0.00     0.156 S 
ATOM    117  O5S SGN d 304      -1.065   3.271  52.746  0.00  0.00    -0.572 OA
ATOM    118  C3  SGN d 304      -3.912  -2.604  52.689  0.00  0.00     0.083 C 
ATOM    119  N   SGN d 304      -5.461  -2.488  50.904  0.00  0.00    -0.210 NA
ATOM    120  O1S SGN d 304      -6.346  -1.118  48.807  0.00  0.00    -0.296 OA
ATOM    121  O6  SGN d 304      -2.436   1.620  54.262  0.00  0.00    -0.254 OA
ATOM    122  C4  SGN d 304      -2.891  -1.775  53.455  0.00  0.00     0.095 C 
ATOM    123  C5  SGN d 304      -3.554  -0.516  53.961  0.00  0.00     0.091 C 
ATOM    124  C2  SGN d 304      -4.405  -1.763  51.548  0.00  0.00     0.081 C 
ATOM    125  O6S SGN d 304      -1.181   1.053  52.006  0.00  0.00    -0.572 OA
ATOM    126  O3  SGN d 304      -3.335  -3.776  52.155  0.00  0.00    -0.391 OA
ATOM    127  O3S SGN d 304      -4.315  -2.270  48.549  0.00  0.00    -0.296 OA
ATOM    128  H   SGN d 304      -7.210  -3.493  49.121  0.00  0.00     0.231 HD
ATOM    129  H   SGN d 304      -5.314   0.163  51.275  0.00  0.00     0.131 H 
ATOM    130  H   SGN d 304      -1.686  -0.169  54.920  0.00  0.00     0.080 H 
ATOM    131  H   SGN d 304      -3.081   0.438  55.798  0.00  0.00     0.080 H 
ATOM    132  H   SGN d 304      -4.700  -2.892  53.354  0.00  0.00     0.089 H 
ATOM    133  H   SGN d 304      -5.315  -3.478  51.099  0.00  0.00     0.140 HD
ATOM    134  H   SGN d 304      -7.227  -1.146  49.211  0.00  0.00     0.231 HD
ATOM    135  H   SGN d 304      -2.078  -1.531  52.804  0.00  0.00     0.091 H 
ATOM    136  H   SGN d 304      -4.375  -0.775  54.596  0.00  0.00     0.090 H 
ATOM    137  H   SGN d 304      -3.595  -1.546  50.884  0.00  0.00     0.076 H 
ATOM    138  H   SGN d 304      -2.618  -3.536  51.548  0.00  0.00     0.210 HD
ATOM    139  H   SGN d 304      -3.828  -3.076  48.779  0.00  0.00     0.231 HD
ATOM    140  O1S UAP d 301       7.251  -1.794  49.002  0.00  0.00    -0.572 OA
ATOM    141  C3  UAP d 301       6.568   0.260  52.860  0.00  0.00     0.086 C 
ATOM    142  O62 UAP d 301       9.656  -2.421  55.099  0.00  0.00    -0.642 OA
ATOM    143  C2  UAP d 301       6.634  -0.842  51.833  0.00  0.00     0.135 C 
ATOM    144  O61 UAP d 301       9.338  -0.396  55.770  0.00  0.00    -0.642 OA
ATOM    145  C1  UAP d 301       6.585  -2.209  52.483  0.00  0.00     0.167 C 
ATOM    146  C5  UAP d 301       7.936  -1.233  54.219  0.00  0.00     0.147 C 
ATOM    147  C4  UAP d 301       7.364  -0.024  54.040  0.00  0.00    -0.034 C 
ATOM    148  O3S UAP d 301       7.320   0.568  49.123  0.00  0.00    -0.572 OA
ATOM    149  C6  UAP d 301       8.976  -1.368  55.095  0.00  0.00     0.233 C 
ATOM    150  O5  UAP d 301       7.682  -2.286  53.382  0.00  0.00    -0.311 OA
ATOM    151  O2S UAP d 301       9.308  -0.737  49.064  0.00  0.00    -0.572 OA
ATOM    152  O2  UAP d 301       7.895  -0.761  51.235  0.00  0.00    -0.244 OA
ATOM    153  O3  UAP d 301       5.243   0.539  53.133  0.00  0.00    -0.389 OA
ATOM    154  S   UAP d 301       7.955  -0.663  49.495  0.00  0.00     0.252 S 
ATOM    155  H   UAP d 301       7.017   1.144  52.457  0.00  0.00     0.093 H 
ATOM    156  H   UAP d 301       5.814  -0.731  51.154  0.00  0.00     0.097 H 
ATOM    157  H   UAP d 301       6.676  -3.009  51.779  0.00  0.00     0.134 H 
ATOM    158  H   UAP d 301       7.494   0.711  54.753  0.00  0.00     0.085 H 
ATOM    159  H   UAP d 301       4.815  -0.250  53.500  0.00  0.00     0.210 HD
ENDROOT
TORSDOF 50
ENDMDL
MODEL 48
REMARK VINA RESULT:      -6.8      4.156     15.919
REMARK  0 active torsions:
REMARK  status: ('A' for Active; 'I' for Inactive)
REMARK       I    between atoms: C3_1  and  O3_85 
REMARK       I    between atoms: C6_2  and  C5_22 
REMARK       I    between atoms: C6_3  and  C5_14 
REMARK       I    between atoms: C6_3  and  O6_30 
REMARK       I    between atoms: C1_4  and  O1_84 
REMARK       I    between atoms: O2S_6  and  S1_45 
REMARK       I    between atoms: C1_7  and  O1_36 
REMARK       I    between atoms: S1_10  and  N_69 
REMARK       I    between atoms: S1_10  and  O1S_27 
REMARK       I    between atoms: S1_10  and  O2S_71 
REMARK       I    between atoms: S1_10  and  O3S_88 
REMARK       I    between atoms: O4_11  and  C1_42 
REMARK       I    between atoms: O4_11  and  C4_63 
REMARK       I    between atoms: O6_12  and  C6_94 
REMARK       I    between atoms: O6_12  and  S2_28 
REMARK       I    between atoms: C1_13  and  O4_51 
REMARK       I    between atoms: S2_16  and  O6_76 
REMARK       I    between atoms: C3_18  and  O3_103 
REMARK       I    between atoms: C1_19  and  O1_37 
REMARK       I    between atoms: O4_20  and  C1_23 
REMARK       I    between atoms: O4_20  and  C4_77 
REMARK       I    between atoms: O3S_21  and  S1_92 
REMARK       I    between atoms: C3_24  and  O3_87 
REMARK       I    between atoms: O3_25  and  C3_46 
REMARK       I    between atoms: C6_29  and  C5_79 
REMARK       I    between atoms: C6_29  and  O6_76 
REMARK       I    between atoms: O6_30  and  S2_31 
REMARK       I    between atoms: O1_36  and  C4_81 
REMARK       I    between atoms: C2_38  and  O2_72 
REMARK       I    between atoms: S1_45  and  N_74 
REMARK       I    between atoms: S1_45  and  O1S_75 
REMARK       I    between atoms: S1_45  and  O3S_101 
REMARK       I    between atoms: O1S_47  and  S1_92 
REMARK       I    between atoms: S_48  and  O2_91 
REMARK       I    between atoms: C5_49  and  C6_67 
REMARK       I    between atoms: O4_51  and  C4_57 
REMARK       I    between atoms: N_52  and  C2_73 
REMARK       I    between atoms: N_52  and  S1_92 
REMARK       I    between atoms: C5_53  and  C6_61 
REMARK       I    between atoms: C4_56  and  O1_84 
REMARK       I    between atoms: C2_62  and  O2_91 
REMARK       I    between atoms: S_66  and  O2_105 
REMARK       I    between atoms: O3_68  and  C3_102 
REMARK       I    between atoms: N_69  and  C2_83 
REMARK       I    between atoms: C3_70  and  O3_98 
REMARK       I    between atoms: O2_72  and  S_96 
REMARK       I    between atoms: N_74  and  C2_86 
REMARK       I    between atoms: O2S_80  and  S1_92 
REMARK       I    between atoms: C5_89  and  C6_94 
REMARK       I    between atoms: C2_104  and  O2_105 
ROOT
ATOM      1  C3  IDS d 305       3.381   0.841  52.176  0.00  0.00     0.094 C 
ATOM      2  O3S IDS d 305       7.376   1.583  49.590  0.00  0.00    -0.572 OA
ATOM      3  C1  IDS d 305       5.164  -0.728  51.549  0.00  0.00     0.161 C 
ATOM      4  O62 IDS d 305       2.597  -3.239  53.262  0.00  0.00    -0.646 OA
ATOM      5  O5  IDS d 305       4.264  -1.588  52.214  0.00  0.00    -0.340 OA
ATOM      6  O61 IDS d 305       1.127  -3.003  51.615  0.00  0.00    -0.646 OA
ATOM      7  O1S IDS d 305       6.219   3.660  49.832  0.00  0.00    -0.572 OA
ATOM      8  C5  IDS d 305       2.991  -1.568  51.592  0.00  0.00     0.152 C 
ATOM      9  S   IDS d 305       6.085   2.220  49.803  0.00  0.00     0.252 S 
ATOM     10  C6  IDS d 305       2.185  -2.709  52.198  0.00  0.00     0.206 C 
ATOM     11  C4  IDS d 305       2.324  -0.215  51.911  0.00  0.00     0.103 C 
ATOM     12  O3  IDS d 305       2.840   2.098  51.931  0.00  0.00    -0.390 OA
ATOM     13  O2S IDS d 305       5.168   1.841  48.767  0.00  0.00    -0.572 OA
ATOM     14  C2  IDS d 305       4.463   0.590  51.187  0.00  0.00     0.134 C 
ATOM     15  O2  IDS d 305       5.357   1.669  51.308  0.00  0.00    -0.244 OA
ATOM     16  H   IDS d 305       3.738   0.802  53.184  0.00  0.00     0.091 H 
ATOM     17  H   IDS d 305       6.011  -0.486  52.157  0.00  0.00     0.133 H 
ATOM     18  H   IDS d 305       3.056  -1.685  50.530  0.00  0.00     0.104 H 
ATOM     19  H   IDS d 305       1.726   0.049  51.064  0.00  0.00     0.092 H 
ATOM     20  H   IDS d 305       2.516   2.137  51.017  0.00  0.00     0.210 HD
ATOM     21  H   IDS d 305       4.092   0.510  50.186  0.00  0.00     0.097 H 
ATOM     22  C6  IDS d 303      -4.431  -0.266  57.574  0.00  0.00     0.206 C 
ATOM     23  O61 IDS d 303      -4.425  -0.432  58.785  0.00  0.00    -0.646 OA
ATOM     24  C5  IDS d 303      -4.094  -1.411  56.685  0.00  0.00     0.152 C 
ATOM     25  C1  IDS d 303      -3.678  -1.973  54.428  0.00  0.00     0.161 C 
ATOM     26  O3  IDS d 303      -2.997  -4.070  56.494  0.00  0.00    -0.390 OA
ATOM     27  O2S IDS d 303      -5.215  -5.440  52.772  0.00  0.00    -0.572 OA
ATOM     28  O5  IDS d 303      -4.270  -1.018  55.318  0.00  0.00    -0.340 OA
ATOM     29  C3  IDS d 303      -4.299  -3.788  56.107  0.00  0.00     0.094 C 
ATOM     30  S   IDS d 303      -5.561  -4.080  52.587  0.00  0.00     0.252 S 
ATOM     31  C4  IDS d 303      -4.912  -2.664  56.967  0.00  0.00     0.103 C 
ATOM     32  O1S IDS d 303      -6.871  -3.917  52.091  0.00  0.00    -0.572 OA
ATOM     33  C2  IDS d 303      -4.274  -3.360  54.670  0.00  0.00     0.134 C 
ATOM     34  O3S IDS d 303      -4.584  -3.562  51.704  0.00  0.00    -0.572 OA
ATOM     35  O2  IDS d 303      -5.528  -3.392  54.152  0.00  0.00    -0.244 OA
ATOM     36  O62 IDS d 303      -4.496   0.821  57.042  0.00  0.00    -0.646 OA
ATOM     37  H   IDS d 303      -3.074  -1.664  56.882  0.00  0.00     0.104 H 
ATOM     38  H   IDS d 303      -3.911  -1.672  53.428  0.00  0.00     0.133 H 
ATOM     39  H   IDS d 303      -2.640  -4.779  55.937  0.00  0.00     0.210 HD
ATOM     40  H   IDS d 303      -4.901  -4.664  56.238  0.00  0.00     0.091 H 
ATOM     41  H   IDS d 303      -4.910  -2.955  57.998  0.00  0.00     0.092 H 
ATOM     42  H   IDS d 303      -3.630  -4.060  54.181  0.00  0.00     0.097 H 
ATOM     43  C6  SGN d 306       8.178  -0.938  51.431  0.00  0.00     0.067 C 
ATOM     44  S1  SGN d 306       7.430  -7.308  48.856  0.00  0.00     0.156 S 
ATOM     45  C5  SGN d 306       7.851  -1.969  50.364  0.00  0.00     0.091 C 
ATOM     46  C3  SGN d 306       6.120  -3.628  49.665  0.00  0.00     0.083 C 
ATOM     47  C1  SGN d 306       8.598  -4.109  49.528  0.00  0.00     0.147 C 
ATOM     48  O1S SGN d 306       7.091  -8.000  47.640  0.00  0.00    -0.296 OA
ATOM     49  O6  SGN d 306       7.720  -1.417  52.694  0.00  0.00    -0.254 OA
ATOM     50  S2  SGN d 306       8.353  -0.710  54.188  0.00  0.00     0.251 S 
ATOM     51  O4S SGN d 306       7.407   0.213  54.751  0.00  0.00    -0.572 OA
ATOM     52  O1  SGN d 306       8.705  -3.645  48.190  0.00  0.00    -0.369 OA
ATOM     53  O4  SGN d 306       5.535  -1.416  50.374  0.00  0.00    -0.348 OA
ATOM     54  C4  SGN d 306       6.445  -2.487  50.617  0.00  0.00     0.095 C 
ATOM     55  N   SGN d 306       6.951  -5.623  48.670  0.00  0.00    -0.210 NA
ATOM     56  O2S SGN d 306       6.695  -7.853  49.961  0.00  0.00    -0.296 OA
ATOM     57  O5  SGN d 306       8.801  -3.055  50.461  0.00  0.00    -0.350 OA
ATOM     58  O6S SGN d 306       8.574  -1.784  55.120  0.00  0.00    -0.572 OA
ATOM     59  C2  SGN d 306       7.206  -4.695  49.752  0.00  0.00     0.081 C 
ATOM     60  O3S SGN d 306       8.848  -7.401  49.089  0.00  0.00    -0.296 OA
ATOM     61  O5S SGN d 306       9.606  -0.058  53.896  0.00  0.00    -0.572 OA
ATOM     62  O3  SGN d 306       4.931  -4.247  50.139  0.00  0.00    -0.391 OA
ATOM     63  H   SGN d 306       7.690  -0.015  51.199  0.00  0.00     0.080 H 
ATOM     64  H   SGN d 306       9.235  -0.777  51.466  0.00  0.00     0.080 H 
ATOM     65  H   SGN d 306       7.906  -1.537  49.386  0.00  0.00     0.090 H 
ATOM     66  H   SGN d 306       6.032  -3.250  48.668  0.00  0.00     0.089 H 
ATOM     67  H   SGN d 306       9.351  -4.854  49.681  0.00  0.00     0.131 H 
ATOM     68  H   SGN d 306       6.135  -7.934  47.487  0.00  0.00     0.231 HD
ATOM     69  H   SGN d 306       8.031  -2.967  48.028  0.00  0.00     0.212 HD
ATOM     70  H   SGN d 306       6.368  -2.844  51.623  0.00  0.00     0.091 H 
ATOM     71  H   SGN d 306       5.944  -5.615  48.501  0.00  0.00     0.140 HD
ATOM     72  H   SGN d 306       5.744  -7.780  49.785  0.00  0.00     0.231 HD
ATOM     73  H   SGN d 306       7.182  -5.146  50.722  0.00  0.00     0.076 H 
ATOM     74  H   SGN d 306       9.326  -7.028  48.331  0.00  0.00     0.231 HD
ATOM     75  H   SGN d 306       5.072  -4.568  51.044  0.00  0.00     0.210 HD
ATOM     76  C1  SGN d 302      -7.283  -2.573  57.507  0.00  0.00     0.150 C 
ATOM     77  O4  SGN d 302      -9.678   0.315  55.730  0.00  0.00    -0.348 OA
ATOM     78  O6  SGN d 302      -9.522   0.777  58.784  0.00  0.00    -0.254 OA
ATOM     79  O3S SGN d 302      -6.854  -5.670  57.296  0.00  0.00    -0.296 OA
ATOM     80  S2  SGN d 302      -9.691   1.552  60.303  0.00  0.00     0.251 S 
ATOM     81  O5  SGN d 302      -7.598  -1.373  58.217  0.00  0.00    -0.349 OA
ATOM     82  O1S SGN d 302      -7.680  -6.473  55.254  0.00  0.00    -0.296 OA
ATOM     83  O6S SGN d 302      -8.439   1.418  60.999  0.00  0.00    -0.572 OA
ATOM     84  N   SGN d 302      -8.124  -3.995  55.816  0.00  0.00    -0.210 NA
ATOM     85  O5S SGN d 302      -9.936   2.926  60.050  0.00  0.00    -0.572 OA
ATOM     86  C4  SGN d 302      -9.381  -0.679  56.711  0.00  0.00     0.095 C 
ATOM     87  O3  SGN d 302     -10.333  -2.329  55.328  0.00  0.00    -0.391 OA
ATOM     88  C2  SGN d 302      -8.547  -3.019  56.774  0.00  0.00     0.081 C 
ATOM     89  O2S SGN d 302      -9.095  -6.003  57.039  0.00  0.00    -0.296 OA
ATOM     90  O1  SGN d 302      -6.245  -2.381  56.549  0.00  0.00    -0.348 OA
ATOM     91  C5  SGN d 302      -8.058  -0.314  57.385  0.00  0.00     0.091 C 
ATOM     92  S1  SGN d 302      -7.925  -5.627  56.373  0.00  0.00     0.156 S 
ATOM     93  C6  SGN d 302      -8.236   0.878  58.252  0.00  0.00     0.067 C 
ATOM     94  O4S SGN d 302     -10.795   0.988  60.990  0.00  0.00    -0.572 OA
ATOM     95  C3  SGN d 302      -9.116  -1.916  55.906  0.00  0.00     0.083 C 
ATOM     96  H   SGN d 302      -6.941  -3.303  58.210  0.00  0.00     0.131 H 
ATOM     97  H   SGN d 302      -6.032  -5.413  56.850  0.00  0.00     0.231 HD
ATOM     98  H   SGN d 302      -6.865  -6.193  54.810  0.00  0.00     0.231 HD
ATOM     99  H   SGN d 302      -7.226  -3.688  55.443  0.00  0.00     0.140 HD
ATOM    100  H   SGN d 302     -10.157  -0.781  57.441  0.00  0.00     0.091 H 
ATOM    101  H   SGN d 302     -10.687  -1.616  54.774  0.00  0.00     0.210 HD
ATOM    102  H   SGN d 302      -9.261  -3.342  57.503  0.00  0.00     0.076 H 
ATOM    103  H   SGN d 302      -9.006  -6.913  57.360  0.00  0.00     0.231 HD
ATOM    104  H   SGN d 302      -7.350  -0.121  56.606  0.00  0.00     0.090 H 
ATOM    105  H   SGN d 302      -7.508   0.878  59.036  0.00  0.00     0.080 H 
ATOM    106  H   SGN d 302      -8.110   1.786  57.701  0.00  0.00     0.080 H 
ATOM    107  H   SGN d 302      -8.395  -1.703  55.145  0.00  0.00     0.089 H 
ATOM    108  O2S SGN d 304       2.546   2.699  56.854  0.00  0.00    -0.296 OA
ATOM    109  C1  SGN d 304       0.521   0.714  53.112  0.00  0.00     0.150 C 
ATOM    110  S2  SGN d 304      -3.683   0.946  50.973  0.00  0.00     0.251 S 
ATOM    111  O4  SGN d 304      -2.262  -1.992  54.517  0.00  0.00    -0.348 OA
ATOM    112  C6  SGN d 304      -2.277  -1.326  51.741  0.00  0.00     0.067 C 
ATOM    113  O4S SGN d 304      -4.959   0.332  51.165  0.00  0.00    -0.572 OA
ATOM    114  O1  SGN d 304       1.502  -0.301  53.063  0.00  0.00    -0.348 OA
ATOM    115  O5  SGN d 304      -0.608   0.348  52.334  0.00  0.00    -0.349 OA
ATOM    116  S1  SGN d 304       1.702   2.760  55.701  0.00  0.00     0.156 S 
ATOM    117  O5S SGN d 304      -3.717   1.794  49.820  0.00  0.00    -0.572 OA
ATOM    118  C3  SGN d 304      -0.492  -0.448  55.036  0.00  0.00     0.083 C 
ATOM    119  N   SGN d 304       1.293   1.079  55.322  0.00  0.00    -0.210 NA
ATOM    120  O1S SGN d 304       2.382   3.393  54.605  0.00  0.00    -0.296 OA
ATOM    121  O6  SGN d 304      -2.476  -0.336  50.729  0.00  0.00    -0.254 OA
ATOM    122  C4  SGN d 304      -1.670  -0.768  54.127  0.00  0.00     0.095 C 
ATOM    123  C5  SGN d 304      -1.179  -0.898  52.705  0.00  0.00     0.091 C 
ATOM    124  C2  SGN d 304       0.105   0.842  54.554  0.00  0.00     0.081 C 
ATOM    125  O6S SGN d 304      -3.339   1.732  52.130  0.00  0.00    -0.572 OA
ATOM    126  O3  SGN d 304      -0.900  -0.272  56.375  0.00  0.00    -0.391 OA
ATOM    127  O3S SGN d 304       0.498   3.489  56.004  0.00  0.00    -0.296 OA
ATOM    128  H   SGN d 304       3.353   2.206  56.638  0.00  0.00     0.231 HD
ATOM    129  H   SGN d 304       0.909   1.634  52.727  0.00  0.00     0.131 H 
ATOM    130  H   SGN d 304      -3.189  -1.460  52.285  0.00  0.00     0.080 H 
ATOM    131  H   SGN d 304      -1.985  -2.243  51.273  0.00  0.00     0.080 H 
ATOM    132  H   SGN d 304       0.206  -1.258  55.003  0.00  0.00     0.089 H 
ATOM    133  H   SGN d 304       1.189   0.583  56.207  0.00  0.00     0.140 HD
ATOM    134  H   SGN d 304       3.194   2.903  54.401  0.00  0.00     0.231 HD
ATOM    135  H   SGN d 304      -2.392   0.018  54.200  0.00  0.00     0.091 H 
ATOM    136  H   SGN d 304      -0.446  -1.676  52.650  0.00  0.00     0.090 H 
ATOM    137  H   SGN d 304      -0.610   1.631  54.657  0.00  0.00     0.076 H 
ATOM    138  H   SGN d 304      -1.534   0.460  56.426  0.00  0.00     0.210 HD
ATOM    139  H   SGN d 304       0.039   3.062  56.744  0.00  0.00     0.231 HD
ATOM    140  O1S UAP d 301     -11.012   4.582  56.736  0.00  0.00    -0.572 OA
ATOM    141  C3  UAP d 301     -11.055   1.579  53.489  0.00  0.00     0.086 C 
ATOM    142  O62 UAP d 301     -14.247  -1.048  55.644  0.00  0.00    -0.642 OA
ATOM    143  C2  UAP d 301     -10.890   2.179  54.863  0.00  0.00     0.135 C 
ATOM    144  O61 UAP d 301     -14.174  -1.037  53.488  0.00  0.00    -0.642 OA
ATOM    145  C1  UAP d 301     -10.843   1.109  55.933  0.00  0.00     0.167 C 
ATOM    146  C5  UAP d 301     -12.502  -0.030  54.613  0.00  0.00     0.147 C 
ATOM    147  C4  UAP d 301     -11.995   0.473  53.468  0.00  0.00    -0.034 C 
ATOM    148  O3S UAP d 301     -11.263   5.265  54.485  0.00  0.00    -0.572 OA
ATOM    149  C6  UAP d 301     -13.649  -0.772  54.578  0.00  0.00     0.233 C 
ATOM    150  O5  UAP d 301     -12.054   0.371  55.843  0.00  0.00    -0.311 OA
ATOM    151  O2S UAP d 301     -13.124   5.118  55.958  0.00  0.00    -0.572 OA
ATOM    152  O2  UAP d 301     -12.051   2.914  55.122  0.00  0.00    -0.244 OA
ATOM    153  O3  UAP d 301      -9.807   1.260  52.987  0.00  0.00    -0.389 OA
ATOM    154  S   UAP d 301     -11.859   4.581  55.596  0.00  0.00     0.252 S 
ATOM    155  H   UAP d 301     -11.499   2.304  52.839  0.00  0.00     0.093 H 
ATOM    156  H   UAP d 301      -9.989   2.755  54.881  0.00  0.00     0.097 H 
ATOM    157  H   UAP d 301     -10.773   1.511  56.922  0.00  0.00     0.134 H 
ATOM    158  H   UAP d 301     -12.281   0.067  52.564  0.00  0.00     0.085 H 
ATOM    159  H   UAP d 301      -9.385   0.604  53.562  0.00  0.00     0.210 HD
ENDROOT
TORSDOF 50
ENDMDL
MODEL 49
REMARK VINA RESULT:      -6.7      3.088      5.728
REMARK  0 active torsions:
REMARK  status: ('A' for Active; 'I' for Inactive)
REMARK       I    between atoms: C3_1  and  O3_85 
REMARK       I    between atoms: C6_2  and  C5_22 
REMARK       I    between atoms: C6_3  and  C5_14 
REMARK       I    between atoms: C6_3  and  O6_30 
REMARK       I    between atoms: C1_4  and  O1_84 
REMARK       I    between atoms: O2S_6  and  S1_45 
REMARK       I    between atoms: C1_7  and  O1_36 
REMARK       I    between atoms: S1_10  and  N_69 
REMARK       I    between atoms: S1_10  and  O1S_27 
REMARK       I    between atoms: S1_10  and  O2S_71 
REMARK       I    between atoms: S1_10  and  O3S_88 
REMARK       I    between atoms: O4_11  and  C1_42 
REMARK       I    between atoms: O4_11  and  C4_63 
REMARK       I    between atoms: O6_12  and  C6_94 
REMARK       I    between atoms: O6_12  and  S2_28 
REMARK       I    between atoms: C1_13  and  O4_51 
REMARK       I    between atoms: S2_16  and  O6_76 
REMARK       I    between atoms: C3_18  and  O3_103 
REMARK       I    between atoms: C1_19  and  O1_37 
REMARK       I    between atoms: O4_20  and  C1_23 
REMARK       I    between atoms: O4_20  and  C4_77 
REMARK       I    between atoms: O3S_21  and  S1_92 
REMARK       I    between atoms: C3_24  and  O3_87 
REMARK       I    between atoms: O3_25  and  C3_46 
REMARK       I    between atoms: C6_29  and  C5_79 
REMARK       I    between atoms: C6_29  and  O6_76 
REMARK       I    between atoms: O6_30  and  S2_31 
REMARK       I    between atoms: O1_36  and  C4_81 
REMARK       I    between atoms: C2_38  and  O2_72 
REMARK       I    between atoms: S1_45  and  N_74 
REMARK       I    between atoms: S1_45  and  O1S_75 
REMARK       I    between atoms: S1_45  and  O3S_101 
REMARK       I    between atoms: O1S_47  and  S1_92 
REMARK       I    between atoms: S_48  and  O2_91 
REMARK       I    between atoms: C5_49  and  C6_67 
REMARK       I    between atoms: O4_51  and  C4_57 
REMARK       I    between atoms: N_52  and  C2_73 
REMARK       I    between atoms: N_52  and  S1_92 
REMARK       I    between atoms: C5_53  and  C6_61 
REMARK       I    between atoms: C4_56  and  O1_84 
REMARK       I    between atoms: C2_62  and  O2_91 
REMARK       I    between atoms: S_66  and  O2_105 
REMARK       I    between atoms: O3_68  and  C3_102 
REMARK       I    between atoms: N_69  and  C2_83 
REMARK       I    between atoms: C3_70  and  O3_98 
REMARK       I    between atoms: O2_72  and  S_96 
REMARK       I    between atoms: N_74  and  C2_86 
REMARK       I    between atoms: O2S_80  and  S1_92 
REMARK       I    between atoms: C5_89  and  C6_94 
REMARK       I    between atoms: C2_104  and  O2_105 
ROOT
ATOM      1  C3  IDS d 305      -1.682   6.152  56.005  0.00  0.00     0.094 C 
ATOM      2  O3S IDS d 305      -4.510   8.826  58.843  0.00  0.00    -0.572 OA
ATOM      3  C1  IDS d 305      -3.971   5.731  56.792  0.00  0.00     0.161 C 
ATOM      4  O62 IDS d 305      -3.215   2.278  54.966  0.00  0.00    -0.646 OA
ATOM      5  O5  IDS d 305      -3.700   4.539  56.087  0.00  0.00    -0.340 OA
ATOM      6  O61 IDS d 305      -1.724   1.688  56.502  0.00  0.00    -0.646 OA
ATOM      7  O1S IDS d 305      -2.462  10.000  58.471  0.00  0.00    -0.572 OA
ATOM      8  C5  IDS d 305      -2.562   3.884  56.619  0.00  0.00     0.152 C 
ATOM      9  S   IDS d 305      -3.096   8.701  58.526  0.00  0.00     0.252 S 
ATOM     10  C6  IDS d 305      -2.513   2.499  55.987  0.00  0.00     0.206 C 
ATOM     11  C4  IDS d 305      -1.313   4.696  56.222  0.00  0.00     0.103 C 
ATOM     12  O3  IDS d 305      -0.550   6.939  56.182  0.00  0.00    -0.390 OA
ATOM     13  O2S IDS d 305      -2.439   7.884  59.505  0.00  0.00    -0.572 OA
ATOM     14  C2  IDS d 305      -2.663   6.486  57.072  0.00  0.00     0.134 C 
ATOM     15  O2  IDS d 305      -2.871   7.874  56.987  0.00  0.00    -0.244 OA
ATOM     16  H   IDS d 305      -2.078   6.320  55.025  0.00  0.00     0.091 H 
ATOM     17  H   IDS d 305      -4.609   6.389  56.238  0.00  0.00     0.133 H 
ATOM     18  H   IDS d 305      -2.602   3.802  57.686  0.00  0.00     0.104 H 
ATOM     19  H   IDS d 305      -0.606   4.597  57.019  0.00  0.00     0.092 H 
ATOM     20  H   IDS d 305      -0.188   6.790  57.069  0.00  0.00     0.210 HD
ATOM     21  H   IDS d 305      -2.317   6.209  58.047  0.00  0.00     0.097 H 
ATOM     22  C6  IDS d 303       4.003   1.222  50.109  0.00  0.00     0.206 C 
ATOM     23  O61 IDS d 303       3.824   1.102  48.905  0.00  0.00    -0.646 OA
ATOM     24  C5  IDS d 303       3.184   0.407  51.046  0.00  0.00     0.152 C 
ATOM     25  C1  IDS d 303       2.700   0.109  53.339  0.00  0.00     0.161 C 
ATOM     26  O3  IDS d 303       0.881  -1.295  51.377  0.00  0.00    -0.390 OA
ATOM     27  O2S IDS d 303       2.322  -3.676  54.968  0.00  0.00    -0.572 OA
ATOM     28  O5  IDS d 303       3.636   0.629  52.388  0.00  0.00    -0.340 OA
ATOM     29  C3  IDS d 303       2.163  -1.738  51.666  0.00  0.00     0.094 C 
ATOM     30  S   IDS d 303       3.337  -2.699  55.097  0.00  0.00     0.252 S 
ATOM     31  C4  IDS d 303       3.208  -1.084  50.738  0.00  0.00     0.103 C 
ATOM     32  O1S IDS d 303       4.572  -3.249  55.496  0.00  0.00    -0.572 OA
ATOM     33  C2  IDS d 303       2.467  -1.382  53.090  0.00  0.00     0.134 C 
ATOM     34  O3S IDS d 303       2.839  -1.761  56.032  0.00  0.00    -0.572 OA
ATOM     35  O2  IDS d 303       3.554  -2.070  53.521  0.00  0.00    -0.244 OA
ATOM     36  O62 IDS d 303       4.662   2.108  50.608  0.00  0.00    -0.646 OA
ATOM     37  H   IDS d 303       2.170   0.725  50.926  0.00  0.00     0.104 H 
ATOM     38  H   IDS d 303       3.126   0.230  54.313  0.00  0.00     0.133 H 
ATOM     39  H   IDS d 303       0.248  -1.722  51.974  0.00  0.00     0.210 HD
ATOM     40  H   IDS d 303       2.210  -2.797  51.515  0.00  0.00     0.091 H 
ATOM     41  H   IDS d 303       2.981  -1.316  49.718  0.00  0.00     0.092 H 
ATOM     42  H   IDS d 303       1.590  -1.651  53.640  0.00  0.00     0.097 H 
ATOM     43  C6  SGN d 306      -6.636   7.119  57.123  0.00  0.00     0.067 C 
ATOM     44  S1  SGN d 306      -9.130   1.254  59.793  0.00  0.00     0.156 S 
ATOM     45  C5  SGN d 306      -6.818   6.053  58.190  0.00  0.00     0.091 C 
ATOM     46  C3  SGN d 306      -6.159   3.725  58.807  0.00  0.00     0.083 C 
ATOM     47  C1  SGN d 306      -8.507   4.602  59.126  0.00  0.00     0.147 C 
ATOM     48  O1S SGN d 306      -9.114   0.468  61.000  0.00  0.00    -0.296 OA
ATOM     49  O6  SGN d 306      -6.587   6.491  55.844  0.00  0.00    -0.254 OA
ATOM     50  S2  SGN d 306      -6.864   7.448  54.379  0.00  0.00     0.251 S 
ATOM     51  O4S SGN d 306      -5.619   7.752  53.731  0.00  0.00    -0.572 OA
ATOM     52  O1  SGN d 306      -8.262   5.034  60.457  0.00  0.00    -0.369 OA
ATOM     53  O4  SGN d 306      -4.561   5.319  58.006  0.00  0.00    -0.348 OA
ATOM     54  C4  SGN d 306      -5.909   4.882  57.852  0.00  0.00     0.095 C 
ATOM     55  N   SGN d 306      -7.832   2.439  59.905  0.00  0.00    -0.210 NA
ATOM     56  O2S SGN d 306      -8.867   0.422  58.653  0.00  0.00    -0.296 OA
ATOM     57  O5  SGN d 306      -8.199   5.622  58.185  0.00  0.00    -0.350 OA
ATOM     58  O6S SGN d 306      -7.677   6.661  53.492  0.00  0.00    -0.572 OA
ATOM     59  C2  SGN d 306      -7.644   3.381  58.821  0.00  0.00     0.081 C 
ATOM     60  O3S SGN d 306     -10.402   1.916  59.661  0.00  0.00    -0.296 OA
ATOM     61  O5S SGN d 306      -7.570   8.652  54.742  0.00  0.00    -0.572 OA
ATOM     62  O3  SGN d 306      -5.503   2.585  58.268  0.00  0.00    -0.391 OA
ATOM     63  H   SGN d 306      -5.724   7.650  57.298  0.00  0.00     0.080 H 
ATOM     64  H   SGN d 306      -7.454   7.808  57.157  0.00  0.00     0.080 H 
ATOM     65  H   SGN d 306      -6.571   6.435  59.158  0.00  0.00     0.090 H 
ATOM     66  H   SGN d 306      -5.816   3.986  59.786  0.00  0.00     0.089 H 
ATOM     67  H   SGN d 306      -9.547   4.361  59.045  0.00  0.00     0.131 H 
ATOM     68  H   SGN d 306      -8.256   0.023  61.085  0.00  0.00     0.231 HD
ATOM     69  H   SGN d 306      -7.323   5.259  60.556  0.00  0.00     0.212 HD
ATOM     70  H   SGN d 306      -6.101   4.553  56.853  0.00  0.00     0.091 H 
ATOM     71  H   SGN d 306      -6.960   1.919  60.004  0.00  0.00     0.140 HD
ATOM     72  H   SGN d 306      -8.008  -0.013  58.762  0.00  0.00     0.231 HD
ATOM     73  H   SGN d 306      -7.928   2.998  57.863  0.00  0.00     0.076 H 
ATOM     74  H   SGN d 306     -10.560   2.472  60.441  0.00  0.00     0.231 HD
ATOM     75  H   SGN d 306      -5.854   2.398  57.383  0.00  0.00     0.210 HD
ATOM     76  C1  SGN d 302       5.234  -2.233  50.034  0.00  0.00     0.150 C 
ATOM     77  O4  SGN d 302       8.902  -1.042  51.571  0.00  0.00    -0.348 OA
ATOM     78  O6  SGN d 302       8.791  -0.519  48.525  0.00  0.00    -0.254 OA
ATOM     79  O3S SGN d 302       3.273  -4.657  50.349  0.00  0.00    -0.296 OA
ATOM     80  S2  SGN d 302       9.229   0.077  46.979  0.00  0.00     0.251 S 
ATOM     81  O5  SGN d 302       6.076  -1.361  49.276  0.00  0.00    -0.349 OA
ATOM     82  O1S SGN d 302       3.704  -5.804  52.348  0.00  0.00    -0.296 OA
ATOM     83  O6S SGN d 302       8.045   0.625  46.375  0.00  0.00    -0.572 OA
ATOM     84  N   SGN d 302       5.331  -3.911  51.697  0.00  0.00    -0.210 NA
ATOM     85  O5S SGN d 302      10.171   1.119  47.182  0.00  0.00    -0.572 OA
ATOM     86  C4  SGN d 302       8.062  -1.721  50.637  0.00  0.00     0.095 C 
ATOM     87  O3  SGN d 302       8.112  -3.646  51.991  0.00  0.00    -0.391 OA
ATOM     88  C2  SGN d 302       6.130  -3.283  50.689  0.00  0.00     0.081 C 
ATOM     89  O2S SGN d 302       5.025  -6.111  50.458  0.00  0.00    -0.296 OA
ATOM     90  O1  SGN d 302       4.519  -1.543  51.057  0.00  0.00    -0.348 OA
ATOM     91  C5  SGN d 302       7.078  -0.710  50.048  0.00  0.00     0.091 C 
ATOM     92  S1  SGN d 302       4.272  -5.192  51.194  0.00  0.00     0.156 S 
ATOM     93  C6  SGN d 302       7.787   0.228  49.142  0.00  0.00     0.067 C 
ATOM     94  O4S SGN d 302       9.826  -0.969  46.232  0.00  0.00    -0.572 OA
ATOM     95  C3  SGN d 302       7.250  -2.651  51.489  0.00  0.00     0.083 C 
ATOM     96  H   SGN d 302       4.513  -2.668  49.375  0.00  0.00     0.131 H 
ATOM     97  H   SGN d 302       2.739  -4.016  50.845  0.00  0.00     0.231 HD
ATOM     98  H   SGN d 302       3.188  -5.147  52.841  0.00  0.00     0.231 HD
ATOM     99  H   SGN d 302       4.753  -3.187  52.124  0.00  0.00     0.140 HD
ATOM    100  H   SGN d 302       8.617  -2.201  49.858  0.00  0.00     0.091 H 
ATOM    101  H   SGN d 302       8.824  -3.230  52.501  0.00  0.00     0.210 HD
ATOM    102  H   SGN d 302       6.517  -3.919  49.920  0.00  0.00     0.076 H 
ATOM    103  H   SGN d 302       4.452  -6.837  50.167  0.00  0.00     0.231 HD
ATOM    104  H   SGN d 302       6.631  -0.189  50.869  0.00  0.00     0.090 H 
ATOM    105  H   SGN d 302       7.112   0.619  48.410  0.00  0.00     0.080 H 
ATOM    106  H   SGN d 302       8.192   1.060  49.678  0.00  0.00     0.080 H 
ATOM    107  H   SGN d 302       6.802  -2.106  52.292  0.00  0.00     0.089 H 
ATOM    108  O2S SGN d 304      -0.340   7.375  51.237  0.00  0.00    -0.296 OA
ATOM    109  C1  SGN d 304       0.619   4.569  54.877  0.00  0.00     0.150 C 
ATOM    110  S2  SGN d 304       4.470   2.545  56.714  0.00  0.00     0.251 S 
ATOM    111  O4  SGN d 304       1.479   0.832  53.349  0.00  0.00    -0.348 OA
ATOM    112  C6  SGN d 304       2.036   1.350  56.100  0.00  0.00     0.067 C 
ATOM    113  O4S SGN d 304       5.223   1.359  56.450  0.00  0.00    -0.572 OA
ATOM    114  O1  SGN d 304      -0.742   4.212  55.019  0.00  0.00    -0.348 OA
ATOM    115  O5  SGN d 304       1.445   3.657  55.584  0.00  0.00    -0.349 OA
ATOM    116  S1  SGN d 304       0.492   6.970  52.327  0.00  0.00     0.156 S 
ATOM    117  O5S SGN d 304       5.023   3.233  57.841  0.00  0.00    -0.572 OA
ATOM    118  C3  SGN d 304       0.738   3.079  52.917  0.00  0.00     0.083 C 
ATOM    119  N   SGN d 304      -0.007   5.316  52.718  0.00  0.00    -0.210 NA
ATOM    120  O1S SGN d 304       0.322   7.848  53.451  0.00  0.00    -0.296 OA
ATOM    121  O6  SGN d 304       2.793   2.075  57.072  0.00  0.00    -0.254 OA
ATOM    122  C4  SGN d 304       1.640   2.178  53.750  0.00  0.00     0.095 C 
ATOM    123  C5  SGN d 304       1.256   2.301  55.205  0.00  0.00     0.091 C 
ATOM    124  C2  SGN d 304       0.936   4.484  53.407  0.00  0.00     0.081 C 
ATOM    125  O6S SGN d 304       4.503   3.413  55.565  0.00  0.00    -0.572 OA
ATOM    126  O3  SGN d 304       1.081   3.037  51.549  0.00  0.00    -0.391 OA
ATOM    127  O3S SGN d 304       1.875   6.970  51.924  0.00  0.00    -0.296 OA
ATOM    128  H   SGN d 304      -1.268   7.371  51.520  0.00  0.00     0.231 HD
ATOM    129  H   SGN d 304       0.794   5.550  55.266  0.00  0.00     0.131 H 
ATOM    130  H   SGN d 304       2.703   0.769  55.498  0.00  0.00     0.080 H 
ATOM    131  H   SGN d 304       1.344   0.712  56.610  0.00  0.00     0.080 H 
ATOM    132  H   SGN d 304      -0.275   2.750  53.017  0.00  0.00     0.089 H 
ATOM    133  H   SGN d 304      -0.240   4.852  51.840  0.00  0.00     0.140 HD
ATOM    134  H   SGN d 304      -0.609   7.848  53.723  0.00  0.00     0.231 HD
ATOM    135  H   SGN d 304       2.658   2.475  53.607  0.00  0.00     0.091 H 
ATOM    136  H   SGN d 304       0.231   2.018  55.329  0.00  0.00     0.090 H 
ATOM    137  H   SGN d 304       1.948   4.786  53.236  0.00  0.00     0.076 H 
ATOM    138  H   SGN d 304       1.998   3.333  51.436  0.00  0.00     0.210 HD
ATOM    139  H   SGN d 304       1.990   6.378  51.165  0.00  0.00     0.231 HD
ATOM    140  O1S UAP d 301      12.186   1.921  50.372  0.00  0.00    -0.572 OA
ATOM    141  C3  UAP d 301      10.892  -0.715  53.680  0.00  0.00     0.086 C 
ATOM    142  O62 UAP d 301      12.087  -4.586  51.374  0.00  0.00    -0.642 OA
ATOM    143  C2  UAP d 301      10.966  -0.095  52.307  0.00  0.00     0.135 C 
ATOM    144  O61 UAP d 301      12.185  -4.571  53.529  0.00  0.00    -0.642 OA
ATOM    145  C1  UAP d 301      10.293  -0.968  51.269  0.00  0.00     0.167 C 
ATOM    146  C5  UAP d 301      11.206  -2.824  52.498  0.00  0.00     0.147 C 
ATOM    147  C4  UAP d 301      11.119  -2.148  53.663  0.00  0.00    -0.034 C 
ATOM    148  O3S UAP d 301      12.916   2.339  52.583  0.00  0.00    -0.572 OA
ATOM    149  C6  UAP d 301      11.798  -4.055  52.471  0.00  0.00     0.233 C 
ATOM    150  O5  UAP d 301      10.945  -2.230  51.293  0.00  0.00    -0.311 OA
ATOM    151  O2S UAP d 301      14.318   1.267  50.989  0.00  0.00    -0.572 OA
ATOM    152  O2  UAP d 301      12.317  -0.068  51.950  0.00  0.00    -0.244 OA
ATOM    153  O3  UAP d 301       9.701  -0.345  54.275  0.00  0.00    -0.389 OA
ATOM    154  S   UAP d 301      12.987   1.462  51.451  0.00  0.00     0.252 S 
ATOM    155  H   UAP d 301      11.693  -0.337  54.280  0.00  0.00     0.093 H 
ATOM    156  H   UAP d 301      10.497   0.866  52.337  0.00  0.00     0.097 H 
ATOM    157  H   UAP d 301      10.371  -0.573  50.278  0.00  0.00     0.134 H 
ATOM    158  H   UAP d 301      11.215  -2.658  54.555  0.00  0.00     0.085 H 
ATOM    159  H   UAP d 301       8.958  -0.677  53.746  0.00  0.00     0.210 HD
ENDROOT
TORSDOF 50
ENDMDL
MODEL 50
REMARK VINA RESULT:      -6.7      4.395      8.491
REMARK  0 active torsions:
REMARK  status: ('A' for Active; 'I' for Inactive)
REMARK       I    between atoms: C3_1  and  O3_85 
REMARK       I    between atoms: C6_2  and  C5_22 
REMARK       I    between atoms: C6_3  and  C5_14 
REMARK       I    between atoms: C6_3  and  O6_30 
REMARK       I    between atoms: C1_4  and  O1_84 
REMARK       I    between atoms: O2S_6  and  S1_45 
REMARK       I    between atoms: C1_7  and  O1_36 
REMARK       I    between atoms: S1_10  and  N_69 
REMARK       I    between atoms: S1_10  and  O1S_27 
REMARK       I    between atoms: S1_10  and  O2S_71 
REMARK       I    between atoms: S1_10  and  O3S_88 
REMARK       I    between atoms: O4_11  and  C1_42 
REMARK       I    between atoms: O4_11  and  C4_63 
REMARK       I    between atoms: O6_12  and  C6_94 
REMARK       I    between atoms: O6_12  and  S2_28 
REMARK       I    between atoms: C1_13  and  O4_51 
REMARK       I    between atoms: S2_16  and  O6_76 
REMARK       I    between atoms: C3_18  and  O3_103 
REMARK       I    between atoms: C1_19  and  O1_37 
REMARK       I    between atoms: O4_20  and  C1_23 
REMARK       I    between atoms: O4_20  and  C4_77 
REMARK       I    between atoms: O3S_21  and  S1_92 
REMARK       I    between atoms: C3_24  and  O3_87 
REMARK       I    between atoms: O3_25  and  C3_46 
REMARK       I    between atoms: C6_29  and  C5_79 
REMARK       I    between atoms: C6_29  and  O6_76 
REMARK       I    between atoms: O6_30  and  S2_31 
REMARK       I    between atoms: O1_36  and  C4_81 
REMARK       I    between atoms: C2_38  and  O2_72 
REMARK       I    between atoms: S1_45  and  N_74 
REMARK       I    between atoms: S1_45  and  O1S_75 
REMARK       I    between atoms: S1_45  and  O3S_101 
REMARK       I    between atoms: O1S_47  and  S1_92 
REMARK       I    between atoms: S_48  and  O2_91 
REMARK       I    between atoms: C5_49  and  C6_67 
REMARK       I    between atoms: O4_51  and  C4_57 
REMARK       I    between atoms: N_52  and  C2_73 
REMARK       I    between atoms: N_52  and  S1_92 
REMARK       I    between atoms: C5_53  and  C6_61 
REMARK       I    between atoms: C4_56  and  O1_84 
REMARK       I    between atoms: C2_62  and  O2_91 
REMARK       I    between atoms: S_66  and  O2_105 
REMARK       I    between atoms: O3_68  and  C3_102 
REMARK       I    between atoms: N_69  and  C2_83 
REMARK       I    between atoms: C3_70  and  O3_98 
REMARK       I    between atoms: O2_72  and  S_96 
REMARK       I    between atoms: N_74  and  C2_86 
REMARK       I    between atoms: O2S_80  and  S1_92 
REMARK       I    between atoms: C5_89  and  C6_94 
REMARK       I    between atoms: C2_104  and  O2_105 
ROOT
ATOM      1  C3  IDS d 305      -7.726   0.223  51.882  0.00  0.00     0.094 C 
ATOM      2  O3S IDS d 305     -12.200   1.970  51.521  0.00  0.00    -0.572 OA
ATOM      3  C1  IDS d 305      -9.719  -0.262  53.234  0.00  0.00     0.161 C 
ATOM      4  O62 IDS d 305      -6.975  -2.286  55.285  0.00  0.00    -0.646 OA
ATOM      5  O5  IDS d 305      -8.739  -1.020  53.910  0.00  0.00    -0.340 OA
ATOM      6  O61 IDS d 305      -5.982  -0.421  55.970  0.00  0.00    -0.646 OA
ATOM      7  O1S IDS d 305     -10.875   2.875  49.750  0.00  0.00    -0.572 OA
ATOM      8  C5  IDS d 305      -7.678  -0.193  54.356  0.00  0.00     0.152 C 
ATOM      9  S   IDS d 305     -10.857   2.323  51.087  0.00  0.00     0.252 S 
ATOM     10  C6  IDS d 305      -6.823  -1.036  55.292  0.00  0.00     0.206 C 
ATOM     11  C4  IDS d 305      -6.855   0.236  53.124  0.00  0.00     0.103 C 
ATOM     12  O3  IDS d 305      -7.181   1.083  50.935  0.00  0.00    -0.390 OA
ATOM     13  O2S IDS d 305     -10.277   3.272  51.993  0.00  0.00    -0.572 OA
ATOM     14  C2  IDS d 305      -9.046   0.760  52.305  0.00  0.00     0.134 C 
ATOM     15  O2  IDS d 305      -9.797   0.918  51.126  0.00  0.00    -0.244 OA
ATOM     16  H   IDS d 305      -7.805  -0.758  51.462  0.00  0.00     0.091 H 
ATOM     17  H   IDS d 305     -10.354  -0.876  52.630  0.00  0.00     0.133 H 
ATOM     18  H   IDS d 305      -8.030   0.681  54.863  0.00  0.00     0.104 H 
ATOM     19  H   IDS d 305      -6.486   1.221  53.320  0.00  0.00     0.092 H 
ATOM     20  H   IDS d 305      -7.109   1.974  51.312  0.00  0.00     0.210 HD
ATOM     21  H   IDS d 305      -8.961   1.688  52.832  0.00  0.00     0.097 H 
ATOM     22  C6  IDS d 303       1.138  -3.348  52.144  0.00  0.00     0.206 C 
ATOM     23  O61 IDS d 303       1.441  -4.488  51.821  0.00  0.00    -0.646 OA
ATOM     24  C5  IDS d 303       0.497  -3.117  53.466  0.00  0.00     0.152 C 
ATOM     25  C1  IDS d 303      -0.542  -1.451  54.781  0.00  0.00     0.161 C 
ATOM     26  O3  IDS d 303      -0.799  -4.300  55.754  0.00  0.00    -0.390 OA
ATOM     27  O2S IDS d 303       0.250  -1.123  58.829  0.00  0.00    -0.572 OA
ATOM     28  O5  IDS d 303       0.331  -1.709  53.675  0.00  0.00    -0.340 OA
ATOM     29  C3  IDS d 303       0.371  -3.565  55.877  0.00  0.00     0.094 C 
ATOM     30  S   IDS d 303       0.630  -0.314  57.733  0.00  0.00     0.252 S 
ATOM     31  C4  IDS d 303       1.268  -3.720  54.632  0.00  0.00     0.103 C 
ATOM     32  O1S IDS d 303       1.770   0.469  58.007  0.00  0.00    -0.572 OA
ATOM     33  C2  IDS d 303      -0.004  -2.122  56.045  0.00  0.00     0.134 C 
ATOM     34  O3S IDS d 303      -0.506   0.476  57.437  0.00  0.00    -0.572 OA
ATOM     35  O2  IDS d 303       1.062  -1.413  56.495  0.00  0.00    -0.244 OA
ATOM     36  O62 IDS d 303       1.137  -2.407  51.379  0.00  0.00    -0.646 OA
ATOM     37  H   IDS d 303      -0.450  -3.614  53.441  0.00  0.00     0.104 H 
ATOM     38  H   IDS d 303      -0.562  -0.393  54.939  0.00  0.00     0.133 H 
ATOM     39  H   IDS d 303      -1.340  -4.182  56.550  0.00  0.00     0.210 HD
ATOM     40  H   IDS d 303       0.922  -3.921  56.723  0.00  0.00     0.091 H 
ATOM     41  H   IDS d 303       1.519  -4.751  54.494  0.00  0.00     0.092 H 
ATOM     42  H   IDS d 303      -0.803  -2.122  56.756  0.00  0.00     0.097 H 
ATOM     43  C6  SGN d 306     -12.663  -0.885  52.944  0.00  0.00     0.067 C 
ATOM     44  S1  SGN d 306     -13.081  -1.136  59.838  0.00  0.00     0.156 S 
ATOM     45  C5  SGN d 306     -12.705  -0.308  54.349  0.00  0.00     0.091 C 
ATOM     46  C3  SGN d 306     -11.344  -0.024  56.423  0.00  0.00     0.083 C 
ATOM     47  C1  SGN d 306     -13.797  -0.630  56.479  0.00  0.00     0.147 C 
ATOM     48  O1S SGN d 306     -13.127  -0.282  60.996  0.00  0.00    -0.296 OA
ATOM     49  O6  SGN d 306     -11.922  -2.104  52.965  0.00  0.00    -0.254 OA
ATOM     50  S2  SGN d 306     -12.084  -3.258  51.633  0.00  0.00     0.251 S 
ATOM     51  O4S SGN d 306     -10.959  -3.166  50.745  0.00  0.00    -0.572 OA
ATOM     52  O1  SGN d 306     -14.222   0.722  56.562  0.00  0.00    -0.369 OA
ATOM     53  O4  SGN d 306     -10.436   0.407  54.249  0.00  0.00    -0.348 OA
ATOM     54  C4  SGN d 306     -11.323  -0.452  54.964  0.00  0.00     0.095 C 
ATOM     55  N   SGN d 306     -12.549  -0.161  58.470  0.00  0.00    -0.210 NA
ATOM     56  O2S SGN d 306     -12.120  -2.184  60.028  0.00  0.00    -0.296 OA
ATOM     57  O5  SGN d 306     -13.671  -1.052  55.128  0.00  0.00    -0.350 OA
ATOM     58  O6S SGN d 306     -12.126  -4.579  52.203  0.00  0.00    -0.572 OA
ATOM     59  C2  SGN d 306     -12.442  -0.779  57.165  0.00  0.00     0.081 C 
ATOM     60  O3S SGN d 306     -14.390  -1.681  59.584  0.00  0.00    -0.296 OA
ATOM     61  O5S SGN d 306     -13.320  -2.992  50.939  0.00  0.00    -0.572 OA
ATOM     62  O3  SGN d 306     -10.120  -0.449  57.006  0.00  0.00    -0.391 OA
ATOM     63  H   SGN d 306     -12.189  -0.189  52.284  0.00  0.00     0.080 H 
ATOM     64  H   SGN d 306     -13.659  -1.072  52.600  0.00  0.00     0.080 H 
ATOM     65  H   SGN d 306     -12.987   0.724  54.330  0.00  0.00     0.090 H 
ATOM     66  H   SGN d 306     -11.497   1.034  56.485  0.00  0.00     0.089 H 
ATOM     67  H   SGN d 306     -14.534  -1.237  56.962  0.00  0.00     0.131 H 
ATOM     68  H   SGN d 306     -12.244   0.083  61.163  0.00  0.00     0.231 HD
ATOM     69  H   SGN d 306     -13.568   1.294  56.130  0.00  0.00     0.212 HD
ATOM     70  H   SGN d 306     -11.007  -1.472  54.909  0.00  0.00     0.091 H 
ATOM     71  H   SGN d 306     -11.626   0.204  58.704  0.00  0.00     0.140 HD
ATOM     72  H   SGN d 306     -11.247  -1.796  60.197  0.00  0.00     0.231 HD
ATOM     73  H   SGN d 306     -12.193  -1.819  57.199  0.00  0.00     0.076 H 
ATOM     74  H   SGN d 306     -15.023  -0.957  59.458  0.00  0.00     0.231 HD
ATOM     75  H   SGN d 306     -10.038  -1.412  56.919  0.00  0.00     0.210 HD
ATOM     76  C1  SGN d 302       3.698  -3.655  54.753  0.00  0.00     0.150 C 
ATOM     77  O4  SGN d 302       5.736  -0.365  53.252  0.00  0.00    -0.348 OA
ATOM     78  O6  SGN d 302       6.428  -2.897  51.617  0.00  0.00    -0.254 OA
ATOM     79  O3S SGN d 302       3.009  -4.863  57.562  0.00  0.00    -0.296 OA
ATOM     80  S2  SGN d 302       7.049  -3.876  50.355  0.00  0.00     0.251 S 
ATOM     81  O5  SGN d 302       4.274  -3.709  53.447  0.00  0.00    -0.349 OA
ATOM     82  O1S SGN d 302       3.204  -3.225  59.228  0.00  0.00    -0.296 OA
ATOM     83  O6S SGN d 302       6.020  -4.811  49.986  0.00  0.00    -0.572 OA
ATOM     84  N   SGN d 302       3.957  -2.584  56.845  0.00  0.00    -0.210 NA
ATOM     85  O5S SGN d 302       7.315  -3.022  49.254  0.00  0.00    -0.572 OA
ATOM     86  C4  SGN d 302       5.639  -1.712  53.717  0.00  0.00     0.095 C 
ATOM     87  O3  SGN d 302       6.070  -0.984  55.914  0.00  0.00    -0.391 OA
ATOM     88  C2  SGN d 302       4.687  -2.928  55.663  0.00  0.00     0.081 C 
ATOM     89  O2S SGN d 302       5.071  -4.302  58.354  0.00  0.00    -0.296 OA
ATOM     90  O1  SGN d 302       2.459  -2.949  54.772  0.00  0.00    -0.348 OA
ATOM     91  C5  SGN d 302       4.572  -2.433  52.894  0.00  0.00     0.091 C 
ATOM     92  S1  SGN d 302       3.797  -3.804  58.070  0.00  0.00     0.156 S 
ATOM     93  C6  SGN d 302       5.058  -2.658  51.509  0.00  0.00     0.067 C 
ATOM     94  O4S SGN d 302       8.253  -4.484  50.790  0.00  0.00    -0.572 OA
ATOM     95  C3  SGN d 302       5.083  -1.578  55.103  0.00  0.00     0.083 C 
ATOM     96  H   SGN d 302       3.503  -4.655  55.081  0.00  0.00     0.131 H 
ATOM     97  H   SGN d 302       2.118  -4.536  57.359  0.00  0.00     0.231 HD
ATOM     98  H   SGN d 302       2.323  -2.888  59.005  0.00  0.00     0.231 HD
ATOM     99  H   SGN d 302       3.016  -2.315  56.556  0.00  0.00     0.140 HD
ATOM    100  H   SGN d 302       6.572  -2.234  53.660  0.00  0.00     0.091 H 
ATOM    101  H   SGN d 302       6.315  -0.120  55.546  0.00  0.00     0.210 HD
ATOM    102  H   SGN d 302       5.544  -3.556  55.796  0.00  0.00     0.076 H 
ATOM    103  H   SGN d 302       5.006  -4.987  59.037  0.00  0.00     0.231 HD
ATOM    104  H   SGN d 302       3.698  -1.814  52.899  0.00  0.00     0.090 H 
ATOM    105  H   SGN d 302       4.566  -3.504  51.076  0.00  0.00     0.080 H 
ATOM    106  H   SGN d 302       4.856  -1.817  50.880  0.00  0.00     0.080 H 
ATOM    107  H   SGN d 302       4.203  -0.970  55.081  0.00  0.00     0.089 H 
ATOM    108  O2S SGN d 304      -5.550  -2.944  48.526  0.00  0.00    -0.296 OA
ATOM    109  C1  SGN d 304      -4.736  -0.050  52.131  0.00  0.00     0.150 C 
ATOM    110  S2  SGN d 304      -1.245   2.825  53.487  0.00  0.00     0.251 S 
ATOM    111  O4  SGN d 304      -1.881  -1.837  54.517  0.00  0.00    -0.348 OA
ATOM    112  C6  SGN d 304      -2.556   0.894  54.998  0.00  0.00     0.067 C 
ATOM    113  O4S SGN d 304      -0.011   2.669  54.191  0.00  0.00    -0.572 OA
ATOM    114  O1  SGN d 304      -5.766  -0.642  52.897  0.00  0.00    -0.348 OA
ATOM    115  O5  SGN d 304      -3.883   0.722  52.962  0.00  0.00    -0.349 OA
ATOM    116  S1  SGN d 304      -5.040  -1.723  49.067  0.00  0.00     0.156 S 
ATOM    117  O5S SGN d 304      -1.457   4.206  53.176  0.00  0.00    -0.572 OA
ATOM    118  C3  SGN d 304      -3.336  -2.021  52.609  0.00  0.00     0.083 C 
ATOM    119  N   SGN d 304      -4.867  -2.009  50.806  0.00  0.00    -0.210 NA
ATOM    120  O1S SGN d 304      -5.939  -0.634  48.802  0.00  0.00    -0.296 OA
ATOM    121  O6  SGN d 304      -2.562   2.246  54.532  0.00  0.00    -0.254 OA
ATOM    122  C4  SGN d 304      -2.466  -1.104  53.458  0.00  0.00     0.095 C 
ATOM    123  C5  SGN d 304      -3.325  -0.008  54.045  0.00  0.00     0.091 C 
ATOM    124  C2  SGN d 304      -3.946  -1.180  51.526  0.00  0.00     0.081 C 
ATOM    125  O6S SGN d 304      -1.213   2.063  52.266  0.00  0.00    -0.572 OA
ATOM    126  O3  SGN d 304      -2.576  -3.041  52.000  0.00  0.00    -0.391 OA
ATOM    127  O3S SGN d 304      -3.750  -1.428  48.499  0.00  0.00    -0.296 OA
ATOM    128  H   SGN d 304      -6.419  -3.133  48.914  0.00  0.00     0.231 HD
ATOM    129  H   SGN d 304      -5.146   0.595  51.382  0.00  0.00     0.131 H 
ATOM    130  H   SGN d 304      -1.544   0.551  55.067  0.00  0.00     0.080 H 
ATOM    131  H   SGN d 304      -3.026   0.860  55.959  0.00  0.00     0.080 H 
ATOM    132  H   SGN d 304      -4.073  -2.481  53.233  0.00  0.00     0.089 H 
ATOM    133  H   SGN d 304      -4.568  -2.977  50.928  0.00  0.00     0.140 HD
ATOM    134  H   SGN d 304      -6.809  -0.833  49.183  0.00  0.00     0.231 HD
ATOM    135  H   SGN d 304      -1.697  -0.685  52.845  0.00  0.00     0.091 H 
ATOM    136  H   SGN d 304      -4.100  -0.443  54.641  0.00  0.00     0.090 H 
ATOM    137  H   SGN d 304      -3.174  -0.787  50.898  0.00  0.00     0.076 H 
ATOM    138  H   SGN d 304      -1.900  -2.644  51.428  0.00  0.00     0.210 HD
ATOM    139  H   SGN d 304      -3.143  -2.163  48.678  0.00  0.00     0.231 HD
ATOM    140  O1S UAP d 301       7.590   0.826  49.234  0.00  0.00    -0.572 OA
ATOM    141  C3  UAP d 301       6.556   2.435  53.222  0.00  0.00     0.086 C 
ATOM    142  O62 UAP d 301      10.009   0.106  55.315  0.00  0.00    -0.642 OA
ATOM    143  C2  UAP d 301       6.805   1.442  52.115  0.00  0.00     0.135 C 
ATOM    144  O61 UAP d 301       9.368   1.996  56.132  0.00  0.00    -0.642 OA
ATOM    145  C1  UAP d 301       6.967   0.037  52.658  0.00  0.00     0.167 C 
ATOM    146  C5  UAP d 301       8.131   1.074  54.492  0.00  0.00     0.147 C 
ATOM    147  C4  UAP d 301       7.376   2.188  54.394  0.00  0.00    -0.034 C 
ATOM    148  O3S UAP d 301       7.283   3.152  49.537  0.00  0.00    -0.572 OA
ATOM    149  C6  UAP d 301       9.171   1.035  55.377  0.00  0.00     0.233 C 
ATOM    150  O5  UAP d 301       8.054   0.063  53.572  0.00  0.00    -0.311 OA
ATOM    151  O2S UAP d 301       9.453   2.185  49.421  0.00  0.00    -0.572 OA
ATOM    152  O2  UAP d 301       8.042   1.768  51.552  0.00  0.00    -0.244 OA
ATOM    153  O3  UAP d 301       5.200   2.480  53.488  0.00  0.00    -0.389 OA
ATOM    154  S   UAP d 301       8.101   2.010  49.827  0.00  0.00     0.252 S 
ATOM    155  H   UAP d 301       6.862   3.408  52.897  0.00  0.00     0.093 H 
ATOM    156  H   UAP d 301       5.984   1.476  51.430  0.00  0.00     0.097 H 
ATOM    157  H   UAP d 301       7.190  -0.681  51.897  0.00  0.00     0.134 H 
ATOM    158  H   UAP d 301       7.382   2.875  55.164  0.00  0.00     0.085 H 
ATOM    159  H   UAP d 301       4.900   1.606  53.784  0.00  0.00     0.210 HD
ENDROOT
TORSDOF 50
ENDMDL
MODEL 51
REMARK VINA RESULT:      -6.7      3.583      6.195
REMARK  0 active torsions:
REMARK  status: ('A' for Active; 'I' for Inactive)
REMARK       I    between atoms: C3_1  and  O3_85 
REMARK       I    between atoms: C6_2  and  C5_22 
REMARK       I    between atoms: C6_3  and  C5_14 
REMARK       I    between atoms: C6_3  and  O6_30 
REMARK       I    between atoms: C1_4  and  O1_84 
REMARK       I    between atoms: O2S_6  and  S1_45 
REMARK       I    between atoms: C1_7  and  O1_36 
REMARK       I    between atoms: S1_10  and  N_69 
REMARK       I    between atoms: S1_10  and  O1S_27 
REMARK       I    between atoms: S1_10  and  O2S_71 
REMARK       I    between atoms: S1_10  and  O3S_88 
REMARK       I    between atoms: O4_11  and  C1_42 
REMARK       I    between atoms: O4_11  and  C4_63 
REMARK       I    between atoms: O6_12  and  C6_94 
REMARK       I    between atoms: O6_12  and  S2_28 
REMARK       I    between atoms: C1_13  and  O4_51 
REMARK       I    between atoms: S2_16  and  O6_76 
REMARK       I    between atoms: C3_18  and  O3_103 
REMARK       I    between atoms: C1_19  and  O1_37 
REMARK       I    between atoms: O4_20  and  C1_23 
REMARK       I    between atoms: O4_20  and  C4_77 
REMARK       I    between atoms: O3S_21  and  S1_92 
REMARK       I    between atoms: C3_24  and  O3_87 
REMARK       I    between atoms: O3_25  and  C3_46 
REMARK       I    between atoms: C6_29  and  C5_79 
REMARK       I    between atoms: C6_29  and  O6_76 
REMARK       I    between atoms: O6_30  and  S2_31 
REMARK       I    between atoms: O1_36  and  C4_81 
REMARK       I    between atoms: C2_38  and  O2_72 
REMARK       I    between atoms: S1_45  and  N_74 
REMARK       I    between atoms: S1_45  and  O1S_75 
REMARK       I    between atoms: S1_45  and  O3S_101 
REMARK       I    between atoms: O1S_47  and  S1_92 
REMARK       I    between atoms: S_48  and  O2_91 
REMARK       I    between atoms: C5_49  and  C6_67 
REMARK       I    between atoms: O4_51  and  C4_57 
REMARK       I    between atoms: N_52  and  C2_73 
REMARK       I    between atoms: N_52  and  S1_92 
REMARK       I    between atoms: C5_53  and  C6_61 
REMARK       I    between atoms: C4_56  and  O1_84 
REMARK       I    between atoms: C2_62  and  O2_91 
REMARK       I    between atoms: S_66  and  O2_105 
REMARK       I    between atoms: O3_68  and  C3_102 
REMARK       I    between atoms: N_69  and  C2_83 
REMARK       I    between atoms: C3_70  and  O3_98 
REMARK       I    between atoms: O2_72  and  S_96 
REMARK       I    between atoms: N_74  and  C2_86 
REMARK       I    between atoms: O2S_80  and  S1_92 
REMARK       I    between atoms: C5_89  and  C6_94 
REMARK       I    between atoms: C2_104  and  O2_105 
ROOT
ATOM      1  C3  IDS d 305      -3.090   1.701  56.323  0.00  0.00     0.094 C 
ATOM      2  O3S IDS d 305      -6.831   2.009  59.340  0.00  0.00    -0.572 OA
ATOM      3  C1  IDS d 305      -5.020   0.206  56.593  0.00  0.00     0.161 C 
ATOM      4  O62 IDS d 305      -2.870  -1.897  53.989  0.00  0.00    -0.646 OA
ATOM      5  O5  IDS d 305      -4.267  -0.492  55.625  0.00  0.00    -0.340 OA
ATOM      6  O61 IDS d 305      -1.304  -2.338  55.500  0.00  0.00    -0.646 OA
ATOM      7  O1S IDS d 305      -5.439   3.927  59.642  0.00  0.00    -0.572 OA
ATOM      8  C5  IDS d 305      -2.973  -0.797  56.114  0.00  0.00     0.152 C 
ATOM      9  S   IDS d 305      -5.484   2.544  59.222  0.00  0.00     0.252 S 
ATOM     10  C6  IDS d 305      -2.344  -1.770  55.125  0.00  0.00     0.206 C 
ATOM     11  C4  IDS d 305      -2.159   0.512  56.165  0.00  0.00     0.103 C 
ATOM     12  O3  IDS d 305      -2.385   2.757  56.891  0.00  0.00    -0.390 OA
ATOM     13  O2S IDS d 305      -4.571   1.770  60.013  0.00  0.00    -0.572 OA
ATOM     14  C2  IDS d 305      -4.145   1.267  57.277  0.00  0.00     0.134 C 
ATOM     15  O2  IDS d 305      -4.903   2.416  57.564  0.00  0.00    -0.244 OA
ATOM     16  H   IDS d 305      -3.497   2.014  55.384  0.00  0.00     0.091 H 
ATOM     17  H   IDS d 305      -5.859   0.711  56.161  0.00  0.00     0.133 H 
ATOM     18  H   IDS d 305      -3.000  -1.231  57.092  0.00  0.00     0.104 H 
ATOM     19  H   IDS d 305      -1.493   0.437  56.998  0.00  0.00     0.092 H 
ATOM     20  H   IDS d 305      -2.015   2.477  57.742  0.00  0.00     0.210 HD
ATOM     21  H   IDS d 305      -3.738   0.843  58.171  0.00  0.00     0.097 H 
ATOM     22  C6  IDS d 303       4.254   1.530  50.204  0.00  0.00     0.206 C 
ATOM     23  O61 IDS d 303       4.168   1.750  49.004  0.00  0.00    -0.646 OA
ATOM     24  C5  IDS d 303       3.822   0.207  50.729  0.00  0.00     0.152 C 
ATOM     25  C1  IDS d 303       3.449  -0.983  52.736  0.00  0.00     0.161 C 
ATOM     26  O3  IDS d 303       2.414  -2.253  50.197  0.00  0.00    -0.390 OA
ATOM     27  O2S IDS d 303       4.624  -4.931  53.127  0.00  0.00    -0.572 OA
ATOM     28  O5  IDS d 303       4.111   0.135  52.131  0.00  0.00    -0.340 OA
ATOM     29  C3  IDS d 303       3.758  -2.241  50.539  0.00  0.00     0.094 C 
ATOM     30  S   IDS d 303       5.145  -3.740  53.686  0.00  0.00     0.252 S 
ATOM     31  C4  IDS d 303       4.463  -0.974  50.012  0.00  0.00     0.103 C 
ATOM     32  O1S IDS d 303       6.487  -3.875  54.095  0.00  0.00    -0.572 OA
ATOM     33  C2  IDS d 303       3.857  -2.280  52.035  0.00  0.00     0.134 C 
ATOM     34  O3S IDS d 303       4.283  -3.424  54.764  0.00  0.00    -0.572 OA
ATOM     35  O2  IDS d 303       5.120  -2.600  52.412  0.00  0.00    -0.244 OA
ATOM     36  O62 IDS d 303       4.479   2.385  51.033  0.00  0.00    -0.646 OA
ATOM     37  H   IDS d 303       2.769   0.133  50.551  0.00  0.00     0.104 H 
ATOM     38  H   IDS d 303       3.766  -1.033  53.757  0.00  0.00     0.133 H 
ATOM     39  H   IDS d 303       2.000  -3.059  50.541  0.00  0.00     0.210 HD
ATOM     40  H   IDS d 303       4.240  -3.089  50.099  0.00  0.00     0.091 H 
ATOM     41  H   IDS d 303       4.375  -0.928  48.946  0.00  0.00     0.092 H 
ATOM     42  H   IDS d 303       3.155  -3.027  52.342  0.00  0.00     0.097 H 
ATOM     43  C6  SGN d 306      -8.027   0.281  56.896  0.00  0.00     0.067 C 
ATOM     44  S1  SGN d 306      -7.950  -6.615  57.346  0.00  0.00     0.156 S 
ATOM     45  C5  SGN d 306      -7.779  -1.059  57.569  0.00  0.00     0.091 C 
ATOM     46  C3  SGN d 306      -6.235  -3.021  57.583  0.00  0.00     0.083 C 
ATOM     47  C1  SGN d 306      -8.744  -3.264  57.776  0.00  0.00     0.147 C 
ATOM     48  O1S SGN d 306      -7.640  -7.682  58.263  0.00  0.00    -0.296 OA
ATOM     49  O6  SGN d 306      -7.695   0.173  55.513  0.00  0.00    -0.254 OA
ATOM     50  S2  SGN d 306      -8.307   1.372  54.362  0.00  0.00     0.251 S 
ATOM     51  O4S SGN d 306      -7.283   2.321  54.028  0.00  0.00    -0.572 OA
ATOM     52  O1  SGN d 306      -8.728  -3.230  59.196  0.00  0.00    -0.369 OA
ATOM     53  O4  SGN d 306      -5.416  -0.771  57.531  0.00  0.00    -0.348 OA
ATOM     54  C4  SGN d 306      -6.462  -1.614  57.052  0.00  0.00     0.095 C 
ATOM     55  N   SGN d 306      -7.257  -5.130  57.993  0.00  0.00    -0.210 NA
ATOM     56  O2S SGN d 306      -7.342  -6.862  56.070  0.00  0.00    -0.296 OA
ATOM     57  O5  SGN d 306      -8.860  -1.957  57.228  0.00  0.00    -0.350 OA
ATOM     58  O6S SGN d 306      -8.704   0.669  53.172  0.00  0.00    -0.572 OA
ATOM     59  C2  SGN d 306      -7.448  -3.891  57.269  0.00  0.00     0.081 C 
ATOM     60  O3S SGN d 306      -9.378  -6.485  57.216  0.00  0.00    -0.296 OA
ATOM     61  O5S SGN d 306      -9.454   2.025  54.943  0.00  0.00    -0.572 OA
ATOM     62  O3  SGN d 306      -5.157  -3.581  56.846  0.00  0.00    -0.391 OA
ATOM     63  H   SGN d 306      -7.418   1.031  57.354  0.00  0.00     0.080 H 
ATOM     64  H   SGN d 306      -9.057   0.553  57.001  0.00  0.00     0.080 H 
ATOM     65  H   SGN d 306      -7.733  -0.949  58.632  0.00  0.00     0.090 H 
ATOM     66  H   SGN d 306      -6.052  -2.983  58.636  0.00  0.00     0.089 H 
ATOM     67  H   SGN d 306      -9.589  -3.843  57.470  0.00  0.00     0.131 H 
ATOM     68  H   SGN d 306      -6.677  -7.766  58.347  0.00  0.00     0.231 HD
ATOM     69  H   SGN d 306      -7.967  -2.709  59.499  0.00  0.00     0.212 HD
ATOM     70  H   SGN d 306      -6.478  -1.647  55.983  0.00  0.00     0.091 H 
ATOM     71  H   SGN d 306      -6.250  -5.278  58.071  0.00  0.00     0.140 HD
ATOM     72  H   SGN d 306      -6.382  -6.945  56.179  0.00  0.00     0.231 HD
ATOM     73  H   SGN d 306      -7.527  -4.018  56.210  0.00  0.00     0.076 H 
ATOM     74  H   SGN d 306      -9.768  -6.319  58.089  0.00  0.00     0.231 HD
ATOM     75  H   SGN d 306      -5.380  -3.588  55.901  0.00  0.00     0.210 HD
ATOM     76  C1  SGN d 302       6.798  -0.963  49.327  0.00  0.00     0.150 C 
ATOM     77  O4  SGN d 302       9.616   0.966  51.687  0.00  0.00    -0.348 OA
ATOM     78  O6  SGN d 302       9.370   2.369  48.942  0.00  0.00    -0.254 OA
ATOM     79  O3S SGN d 302       6.000  -3.912  48.625  0.00  0.00    -0.296 OA
ATOM     80  S2  SGN d 302       9.559   3.555  47.720  0.00  0.00     0.251 S 
ATOM     81  O5  SGN d 302       7.224   0.359  48.991  0.00  0.00    -0.349 OA
ATOM     82  O1S SGN d 302       6.819  -5.390  50.250  0.00  0.00    -0.296 OA
ATOM     83  O6S SGN d 302       8.268   3.774  47.125  0.00  0.00    -0.572 OA
ATOM     84  N   SGN d 302       7.538  -2.919  50.431  0.00  0.00    -0.210 NA
ATOM     85  O5S SGN d 302       9.984   4.750  48.356  0.00  0.00    -0.572 OA
ATOM     86  C4  SGN d 302       9.150   0.363  50.480  0.00  0.00     0.095 C 
ATOM     87  O3  SGN d 302       9.957  -1.724  51.212  0.00  0.00    -0.391 OA
ATOM     88  C2  SGN d 302       8.031  -1.742  49.781  0.00  0.00     0.081 C 
ATOM     89  O2S SGN d 302       8.192  -4.536  48.579  0.00  0.00    -0.296 OA
ATOM     90  O1  SGN d 302       5.840  -0.973  50.383  0.00  0.00    -0.348 OA
ATOM     91  C5  SGN d 302       7.852   1.053  50.062  0.00  0.00     0.091 C 
ATOM     92  S1  SGN d 302       7.112  -4.268  49.423  0.00  0.00     0.156 S 
ATOM     93  C6  SGN d 302       8.134   2.430  49.586  0.00  0.00     0.067 C 
ATOM     94  O4S SGN d 302      10.550   3.122  46.804  0.00  0.00    -0.572 OA
ATOM     95  C3  SGN d 302       8.774  -1.029  50.892  0.00  0.00     0.083 C 
ATOM     96  H   SGN d 302       6.335  -1.400  48.468  0.00  0.00     0.131 H 
ATOM     97  H   SGN d 302       5.239  -3.722  49.196  0.00  0.00     0.231 HD
ATOM     98  H   SGN d 302       6.067  -5.180  50.826  0.00  0.00     0.231 HD
ATOM     99  H   SGN d 302       6.704  -2.653  50.954  0.00  0.00     0.140 HD
ATOM    100  H   SGN d 302       9.871   0.414  49.690  0.00  0.00     0.091 H 
ATOM    101  H   SGN d 302      10.423  -1.258  51.924  0.00  0.00     0.210 HD
ATOM    102  H   SGN d 302       8.663  -1.894  48.932  0.00  0.00     0.076 H 
ATOM    103  H   SGN d 302       7.975  -5.287  48.006  0.00  0.00     0.231 HD
ATOM    104  H   SGN d 302       7.212   1.066  50.920  0.00  0.00     0.090 H 
ATOM    105  H   SGN d 302       7.374   2.750  48.903  0.00  0.00     0.080 H 
ATOM    106  H   SGN d 302       8.148   3.130  50.395  0.00  0.00     0.080 H 
ATOM    107  H   SGN d 302       8.123  -0.990  51.739  0.00  0.00     0.089 H 
ATOM    108  O2S SGN d 304      -2.259   4.824  52.375  0.00  0.00    -0.296 OA
ATOM    109  C1  SGN d 304      -0.316   1.578  55.154  0.00  0.00     0.150 C 
ATOM    110  S2  SGN d 304       3.983   0.701  56.900  0.00  0.00     0.251 S 
ATOM    111  O4  SGN d 304       2.040  -0.828  52.766  0.00  0.00    -0.348 OA
ATOM    112  C6  SGN d 304       2.271  -1.063  55.601  0.00  0.00     0.067 C 
ATOM    113  O4S SGN d 304       5.163   0.049  56.424  0.00  0.00    -0.572 OA
ATOM    114  O1  SGN d 304      -1.412   0.704  54.976  0.00  0.00    -0.348 OA
ATOM    115  O5  SGN d 304       0.796   0.875  55.687  0.00  0.00    -0.349 OA
ATOM    116  S1  SGN d 304      -1.360   4.437  53.416  0.00  0.00     0.156 S 
ATOM    117  O5S SGN d 304       4.178   1.140  58.248  0.00  0.00    -0.572 OA
ATOM    118  C3  SGN d 304       0.450   0.974  52.891  0.00  0.00     0.083 C 
ATOM    119  N   SGN d 304      -1.144   2.689  53.233  0.00  0.00    -0.210 NA
ATOM    120  O1S SGN d 304      -1.902   4.765  54.706  0.00  0.00    -0.296 OA
ATOM    121  O6  SGN d 304       2.640  -0.463  56.845  0.00  0.00    -0.254 OA
ATOM    122  C4  SGN d 304       1.623   0.268  53.557  0.00  0.00     0.095 C 
ATOM    123  C5  SGN d 304       1.190  -0.247  54.909  0.00  0.00     0.091 C 
ATOM    124  C2  SGN d 304       0.042   2.104  53.789  0.00  0.00     0.081 C 
ATOM    125  O6S SGN d 304       3.683   1.838  56.069  0.00  0.00    -0.572 OA
ATOM    126  O3  SGN d 304       0.812   1.514  51.638  0.00  0.00    -0.391 OA
ATOM    127  O3S SGN d 304      -0.090   5.096  53.248  0.00  0.00    -0.296 OA
ATOM    128  H   SGN d 304      -3.110   4.375  52.498  0.00  0.00     0.231 HD
ATOM    129  H   SGN d 304      -0.568   2.367  55.831  0.00  0.00     0.131 H 
ATOM    130  H   SGN d 304       3.132  -1.115  54.967  0.00  0.00     0.080 H 
ATOM    131  H   SGN d 304       1.891  -2.045  55.792  0.00  0.00     0.080 H 
ATOM    132  H   SGN d 304      -0.340   0.270  52.735  0.00  0.00     0.089 H 
ATOM    133  H   SGN d 304      -1.145   2.484  52.233  0.00  0.00     0.140 HD
ATOM    134  H   SGN d 304      -2.757   4.321  54.819  0.00  0.00     0.231 HD
ATOM    135  H   SGN d 304       2.432   0.960  53.665  0.00  0.00     0.091 H 
ATOM    136  H   SGN d 304       0.369  -0.923  54.787  0.00  0.00     0.090 H 
ATOM    137  H   SGN d 304       0.844   2.808  53.870  0.00  0.00     0.076 H 
ATOM    138  H   SGN d 304       1.528   2.157  51.758  0.00  0.00     0.210 HD
ATOM    139  H   SGN d 304       0.275   4.876  52.378  0.00  0.00     0.231 HD
ATOM    140  O1S UAP d 301      11.417   5.175  51.913  0.00  0.00    -0.572 OA
ATOM    141  C3  UAP d 301      11.246   1.323  54.081  0.00  0.00     0.086 C 
ATOM    142  O62 UAP d 301      13.980  -0.817  50.970  0.00  0.00    -0.642 OA
ATOM    143  C2  UAP d 301      11.090   2.334  52.973  0.00  0.00     0.135 C 
ATOM    144  O61 UAP d 301      14.013  -1.469  53.026  0.00  0.00    -0.642 OA
ATOM    145  C1  UAP d 301      10.859   1.661  51.637  0.00  0.00     0.167 C 
ATOM    146  C5  UAP d 301      12.426   0.003  52.404  0.00  0.00     0.147 C 
ATOM    147  C4  UAP d 301      12.042   0.175  53.687  0.00  0.00    -0.034 C 
ATOM    148  O3S UAP d 301      11.860   5.095  54.236  0.00  0.00    -0.572 OA
ATOM    149  C6  UAP d 301      13.473  -0.826  52.116  0.00  0.00     0.233 C 
ATOM    150  O5  UAP d 301      11.972   0.811  51.396  0.00  0.00    -0.311 OA
ATOM    151  O2S UAP d 301      13.615   5.222  52.635  0.00  0.00    -0.572 OA
ATOM    152  O2  UAP d 301      12.319   2.990  52.851  0.00  0.00    -0.244 OA
ATOM    153  O3  UAP d 301       9.994   0.994  54.567  0.00  0.00    -0.389 OA
ATOM    154  S   UAP d 301      12.311   4.732  52.923  0.00  0.00     0.252 S 
ATOM    155  H   UAP d 301      11.807   1.760  54.881  0.00  0.00     0.093 H 
ATOM    156  H   UAP d 301      10.267   2.977  53.206  0.00  0.00     0.097 H 
ATOM    157  H   UAP d 301      10.791   2.355  50.826  0.00  0.00     0.134 H 
ATOM    158  H   UAP d 301      12.319  -0.519  54.398  0.00  0.00     0.085 H 
ATOM    159  H   UAP d 301       9.466   0.596  53.857  0.00  0.00     0.210 HD
ENDROOT
TORSDOF 50
ENDMDL
MODEL 52
REMARK VINA RESULT:      -6.7      3.024      5.951
REMARK  0 active torsions:
REMARK  status: ('A' for Active; 'I' for Inactive)
REMARK       I    between atoms: C3_1  and  O3_85 
REMARK       I    between atoms: C6_2  and  C5_22 
REMARK       I    between atoms: C6_3  and  C5_14 
REMARK       I    between atoms: C6_3  and  O6_30 
REMARK       I    between atoms: C1_4  and  O1_84 
REMARK       I    between atoms: O2S_6  and  S1_45 
REMARK       I    between atoms: C1_7  and  O1_36 
REMARK       I    between atoms: S1_10  and  N_69 
REMARK       I    between atoms: S1_10  and  O1S_27 
REMARK       I    between atoms: S1_10  and  O2S_71 
REMARK       I    between atoms: S1_10  and  O3S_88 
REMARK       I    between atoms: O4_11  and  C1_42 
REMARK       I    between atoms: O4_11  and  C4_63 
REMARK       I    between atoms: O6_12  and  C6_94 
REMARK       I    between atoms: O6_12  and  S2_28 
REMARK       I    between atoms: C1_13  and  O4_51 
REMARK       I    between atoms: S2_16  and  O6_76 
REMARK       I    between atoms: C3_18  and  O3_103 
REMARK       I    between atoms: C1_19  and  O1_37 
REMARK       I    between atoms: O4_20  and  C1_23 
REMARK       I    between atoms: O4_20  and  C4_77 
REMARK       I    between atoms: O3S_21  and  S1_92 
REMARK       I    between atoms: C3_24  and  O3_87 
REMARK       I    between atoms: O3_25  and  C3_46 
REMARK       I    between atoms: C6_29  and  C5_79 
REMARK       I    between atoms: C6_29  and  O6_76 
REMARK       I    between atoms: O6_30  and  S2_31 
REMARK       I    between atoms: O1_36  and  C4_81 
REMARK       I    between atoms: C2_38  and  O2_72 
REMARK       I    between atoms: S1_45  and  N_74 
REMARK       I    between atoms: S1_45  and  O1S_75 
REMARK       I    between atoms: S1_45  and  O3S_101 
REMARK       I    between atoms: O1S_47  and  S1_92 
REMARK       I    between atoms: S_48  and  O2_91 
REMARK       I    between atoms: C5_49  and  C6_67 
REMARK       I    between atoms: O4_51  and  C4_57 
REMARK       I    between atoms: N_52  and  C2_73 
REMARK       I    between atoms: N_52  and  S1_92 
REMARK       I    between atoms: C5_53  and  C6_61 
REMARK       I    between atoms: C4_56  and  O1_84 
REMARK       I    between atoms: C2_62  and  O2_91 
REMARK       I    between atoms: S_66  and  O2_105 
REMARK       I    between atoms: O3_68  and  C3_102 
REMARK       I    between atoms: N_69  and  C2_83 
REMARK       I    between atoms: C3_70  and  O3_98 
REMARK       I    between atoms: O2_72  and  S_96 
REMARK       I    between atoms: N_74  and  C2_86 
REMARK       I    between atoms: O2S_80  and  S1_92 
REMARK       I    between atoms: C5_89  and  C6_94 
REMARK       I    between atoms: C2_104  and  O2_105 
ROOT
ATOM      1  C3  IDS d 305      -4.126   4.093  56.630  0.00  0.00     0.094 C 
ATOM      2  O3S IDS d 305      -7.403   5.924  59.647  0.00  0.00    -0.572 OA
ATOM      3  C1  IDS d 305      -6.292   3.180  57.343  0.00  0.00     0.161 C 
ATOM      4  O62 IDS d 305      -4.900   0.106  55.235  0.00  0.00    -0.646 OA
ATOM      5  O5  IDS d 305      -5.802   2.127  56.541  0.00  0.00    -0.340 OA
ATOM      6  O61 IDS d 305      -3.321  -0.325  56.736  0.00  0.00    -0.646 OA
ATOM      7  O1S IDS d 305      -5.615   7.492  59.409  0.00  0.00    -0.572 OA
ATOM      8  C5  IDS d 305      -4.559   1.654  57.031  0.00  0.00     0.152 C 
ATOM      9  S   IDS d 305      -5.991   6.096  59.341  0.00  0.00     0.252 S 
ATOM     10  C6  IDS d 305      -4.250   0.365  56.281  0.00  0.00     0.206 C 
ATOM     11  C4  IDS d 305      -3.487   2.720  56.724  0.00  0.00     0.103 C 
ATOM     12  O3  IDS d 305      -3.162   5.061  56.891  0.00  0.00    -0.390 OA
ATOM     13  O2S IDS d 305      -5.189   5.335  60.255  0.00  0.00    -0.572 OA
ATOM     14  C2  IDS d 305      -5.149   4.140  57.707  0.00  0.00     0.134 C 
ATOM     15  O2  IDS d 305      -5.617   5.466  57.740  0.00  0.00    -0.244 OA
ATOM     16  H   IDS d 305      -4.548   4.269  55.663  0.00  0.00     0.091 H 
ATOM     17  H   IDS d 305      -7.043   3.752  56.839  0.00  0.00     0.133 H 
ATOM     18  H   IDS d 305      -4.581   1.472  58.085  0.00  0.00     0.104 H 
ATOM     19  H   IDS d 305      -2.773   2.686  57.520  0.00  0.00     0.092 H 
ATOM     20  H   IDS d 305      -2.777   4.905  57.768  0.00  0.00     0.210 HD
ATOM     21  H   IDS d 305      -4.756   3.849  58.659  0.00  0.00     0.097 H 
ATOM     22  C6  IDS d 303       2.379   0.863  50.412  0.00  0.00     0.206 C 
ATOM     23  O61 IDS d 303       2.224   0.819  49.200  0.00  0.00    -0.646 OA
ATOM     24  C5  IDS d 303       1.731  -0.171  51.263  0.00  0.00     0.152 C 
ATOM     25  C1  IDS d 303       1.315  -0.756  53.514  0.00  0.00     0.161 C 
ATOM     26  O3  IDS d 303      -0.209  -2.299  51.409  0.00  0.00    -0.390 OA
ATOM     27  O2S IDS d 303       1.664  -4.673  54.801  0.00  0.00    -0.572 OA
ATOM     28  O5  IDS d 303       2.135   0.013  52.625  0.00  0.00    -0.340 OA
ATOM     29  C3  IDS d 303       1.135  -2.516  51.678  0.00  0.00     0.094 C 
ATOM     30  S   IDS d 303       2.476  -3.537  55.030  0.00  0.00     0.252 S 
ATOM     31  C4  IDS d 303       2.035  -1.598  50.827  0.00  0.00     0.103 C 
ATOM     32  O1S IDS d 303       3.794  -3.878  55.398  0.00  0.00    -0.572 OA
ATOM     33  C2  IDS d 303       1.369  -2.236  53.132  0.00  0.00     0.134 C 
ATOM     34  O3S IDS d 303       1.811  -2.796  56.036  0.00  0.00    -0.572 OA
ATOM     35  O2  IDS d 303       2.567  -2.742  53.518  0.00  0.00    -0.244 OA
ATOM     36  O62 IDS d 303       2.860   1.811  50.997  0.00  0.00    -0.646 OA
ATOM     37  H   IDS d 303       0.675  -0.041  51.155  0.00  0.00     0.104 H 
ATOM     38  H   IDS d 303       1.713  -0.644  54.501  0.00  0.00     0.133 H 
ATOM     39  H   IDS d 303      -0.748  -2.889  51.958  0.00  0.00     0.210 HD
ATOM     40  H   IDS d 303       1.381  -3.529  51.436  0.00  0.00     0.091 H 
ATOM     41  H   IDS d 303       1.855  -1.777  49.787  0.00  0.00     0.092 H 
ATOM     42  H   IDS d 303       0.559  -2.713  53.643  0.00  0.00     0.097 H 
ATOM     43  C6  SGN d 306      -9.171   4.006  57.754  0.00  0.00     0.067 C 
ATOM     44  S1  SGN d 306     -10.505  -2.437  59.866  0.00  0.00     0.156 S 
ATOM     45  C5  SGN d 306      -9.146   2.834  58.721  0.00  0.00     0.091 C 
ATOM     46  C3  SGN d 306      -8.057   0.627  59.142  0.00  0.00     0.083 C 
ATOM     47  C1  SGN d 306     -10.529   1.014  59.502  0.00  0.00     0.147 C 
ATOM     48  O1S SGN d 306     -10.339  -3.310  61.000  0.00  0.00    -0.296 OA
ATOM     49  O6  SGN d 306      -9.006   3.514  56.425  0.00  0.00    -0.254 OA
ATOM     50  S2  SGN d 306      -9.462   4.527  55.046  0.00  0.00     0.251 S 
ATOM     51  O4S SGN d 306      -8.298   5.116  54.445  0.00  0.00    -0.572 OA
ATOM     52  O1  SGN d 306     -10.366   1.365  60.869  0.00  0.00    -0.369 OA
ATOM     53  O4  SGN d 306      -6.791   2.559  58.508  0.00  0.00    -0.348 OA
ATOM     54  C4  SGN d 306      -8.033   1.890  58.296  0.00  0.00     0.095 C 
ATOM     55  N   SGN d 306      -9.455  -1.043  60.100  0.00  0.00    -0.210 NA
ATOM     56  O2S SGN d 306     -10.092  -3.100  58.662  0.00  0.00    -0.296 OA
ATOM     57  O5  SGN d 306     -10.421   2.153  58.658  0.00  0.00    -0.350 OA
ATOM     58  O6S SGN d 306     -10.113   3.681  54.081  0.00  0.00    -0.572 OA
ATOM     59  C2  SGN d 306      -9.450   0.009  59.105  0.00  0.00     0.081 C 
ATOM     60  O3S SGN d 306     -11.880  -2.018  59.773  0.00  0.00    -0.296 OA
ATOM     61  O5S SGN d 306     -10.383   5.539  55.501  0.00  0.00    -0.572 OA
ATOM     62  O3  SGN d 306      -7.198  -0.317  58.516  0.00  0.00    -0.391 OA
ATOM     63  H   SGN d 306      -8.375   4.681  57.987  0.00  0.00     0.080 H 
ATOM     64  H   SGN d 306     -10.105   4.523  57.835  0.00  0.00     0.080 H 
ATOM     65  H   SGN d 306      -8.973   3.169  59.722  0.00  0.00     0.090 H 
ATOM     66  H   SGN d 306      -7.767   0.861  60.146  0.00  0.00     0.089 H 
ATOM     67  H   SGN d 306     -11.503   0.589  59.384  0.00  0.00     0.131 H 
ATOM     68  H   SGN d 306      -9.412  -3.590  61.058  0.00  0.00     0.231 HD
ATOM     69  H   SGN d 306      -9.487   1.753  61.001  0.00  0.00     0.212 HD
ATOM     70  H   SGN d 306      -8.161   1.620  57.269  0.00  0.00     0.091 H 
ATOM     71  H   SGN d 306      -8.500  -1.395  60.166  0.00  0.00     0.140 HD
ATOM     72  H   SGN d 306      -9.165  -3.373  58.745  0.00  0.00     0.231 HD
ATOM     73  H   SGN d 306      -9.658  -0.334  58.113  0.00  0.00     0.076 H 
ATOM     74  H   SGN d 306     -12.138  -1.573  60.596  0.00  0.00     0.231 HD
ATOM     75  H   SGN d 306      -7.510  -0.487  57.613  0.00  0.00     0.210 HD
ATOM     76  C1  SGN d 302       4.242  -2.277  50.055  0.00  0.00     0.150 C 
ATOM     77  O4  SGN d 302       7.620  -0.556  51.745  0.00  0.00    -0.348 OA
ATOM     78  O6  SGN d 302       7.407   0.203  48.754  0.00  0.00    -0.254 OA
ATOM     79  O3S SGN d 302       2.774  -5.045  50.129  0.00  0.00    -0.296 OA
ATOM     80  S2  SGN d 302       7.722   1.005  47.273  0.00  0.00     0.251 S 
ATOM     81  O5  SGN d 302       4.901  -1.199  49.388  0.00  0.00    -0.349 OA
ATOM     82  O1S SGN d 302       3.419  -6.262  52.027  0.00  0.00    -0.296 OA
ATOM     83  O6S SGN d 302       6.453   1.372  46.702  0.00  0.00    -0.572 OA
ATOM     84  N   SGN d 302       4.657  -4.046  51.567  0.00  0.00    -0.210 NA
ATOM     85  O5S SGN d 302       8.449   2.184  47.579  0.00  0.00    -0.572 OA
ATOM     86  C4  SGN d 302       6.922  -1.296  50.742  0.00  0.00     0.095 C 
ATOM     87  O3  SGN d 302       7.338  -3.289  51.924  0.00  0.00    -0.391 OA
ATOM     88  C2  SGN d 302       5.321  -3.192  50.629  0.00  0.00     0.081 C 
ATOM     89  O2S SGN d 302       4.770  -6.147  50.137  0.00  0.00    -0.296 OA
ATOM     90  O1  SGN d 302       3.411  -1.827  51.124  0.00  0.00    -0.348 OA
ATOM     91  C5  SGN d 302       5.764  -0.441  50.229  0.00  0.00     0.091 C 
ATOM     92  S1  SGN d 302       3.859  -5.455  50.939  0.00  0.00     0.156 S 
ATOM     93  C6  SGN d 302       6.281   0.690  49.419  0.00  0.00     0.067 C 
ATOM     94  O4S SGN d 302       8.504   0.161  46.446  0.00  0.00    -0.572 OA
ATOM     95  C3  SGN d 302       6.303  -2.434  51.498  0.00  0.00     0.083 C 
ATOM     96  H   SGN d 302       3.614  -2.780  49.350  0.00  0.00     0.131 H 
ATOM     97  H   SGN d 302       2.130  -4.563  50.670  0.00  0.00     0.231 HD
ATOM     98  H   SGN d 302       2.789  -5.761  52.567  0.00  0.00     0.231 HD
ATOM     99  H   SGN d 302       3.954  -3.485  52.047  0.00  0.00     0.140 HD
ATOM    100  H   SGN d 302       7.556  -1.592  49.933  0.00  0.00     0.091 H 
ATOM    101  H   SGN d 302       7.960  -2.793  52.480  0.00  0.00     0.210 HD
ATOM    102  H   SGN d 302       5.820  -3.674  49.814  0.00  0.00     0.076 H 
ATOM    103  H   SGN d 302       4.345  -6.939  49.775  0.00  0.00     0.231 HD
ATOM    104  H   SGN d 302       5.228  -0.088  51.086  0.00  0.00     0.090 H 
ATOM    105  H   SGN d 302       5.543   1.010  48.714  0.00  0.00     0.080 H 
ATOM    106  H   SGN d 302       6.522   1.533  50.031  0.00  0.00     0.080 H 
ATOM    107  H   SGN d 302       5.761  -2.056  52.339  0.00  0.00     0.089 H 
ATOM    108  O2S SGN d 304      -3.047   5.963  52.007  0.00  0.00    -0.296 OA
ATOM    109  C1  SGN d 304      -1.568   3.078  55.402  0.00  0.00     0.150 C 
ATOM    110  S2  SGN d 304       2.599   1.663  57.113  0.00  0.00     0.251 S 
ATOM    111  O4  SGN d 304      -0.020  -0.280  53.568  0.00  0.00    -0.348 OA
ATOM    112  C6  SGN d 304       0.434   0.089  56.362  0.00  0.00     0.067 C 
ATOM    113  O4S SGN d 304       3.562   0.668  56.758  0.00  0.00    -0.572 OA
ATOM    114  O1  SGN d 304      -2.837   2.460  55.492  0.00  0.00    -0.348 OA
ATOM    115  O5  SGN d 304      -0.583   2.279  56.039  0.00  0.00    -0.349 OA
ATOM    116  S1  SGN d 304      -2.152   5.628  53.070  0.00  0.00     0.156 S 
ATOM    117  O5S SGN d 304       3.014   2.340  58.304  0.00  0.00    -0.572 OA
ATOM    118  C3  SGN d 304      -1.173   1.817  53.322  0.00  0.00     0.083 C 
ATOM    119  N   SGN d 304      -2.328   3.881  53.308  0.00  0.00    -0.210 NA
ATOM    120  O1S SGN d 304      -2.483   6.355  54.264  0.00  0.00    -0.296 OA
ATOM    121  O6  SGN d 304       1.042   0.855  57.405  0.00  0.00    -0.254 OA
ATOM    122  C4  SGN d 304      -0.116   1.032  54.087  0.00  0.00     0.095 C 
ATOM    123  C5  SGN d 304      -0.513   0.951  55.541  0.00  0.00     0.091 C 
ATOM    124  C2  SGN d 304      -1.244   3.184  53.936  0.00  0.00     0.081 C 
ATOM    125  O6S SGN d 304       2.465   2.620  56.045  0.00  0.00    -0.572 OA
ATOM    126  O3  SGN d 304      -0.831   1.961  51.961  0.00  0.00    -0.391 OA
ATOM    127  O3S SGN d 304      -0.795   5.924  52.689  0.00  0.00    -0.296 OA
ATOM    128  H   SGN d 304      -3.957   5.759  52.274  0.00  0.00     0.231 HD
ATOM    129  H   SGN d 304      -1.581   4.036  55.878  0.00  0.00     0.131 H 
ATOM    130  H   SGN d 304       1.198  -0.301  55.722  0.00  0.00     0.080 H 
ATOM    131  H   SGN d 304      -0.124  -0.711  56.804  0.00  0.00     0.080 H 
ATOM    132  H   SGN d 304      -2.106   1.295  53.379  0.00  0.00     0.089 H 
ATOM    133  H   SGN d 304      -2.471   3.461  52.389  0.00  0.00     0.140 HD
ATOM    134  H   SGN d 304      -3.397   6.156  54.520  0.00  0.00     0.231 HD
ATOM    135  H   SGN d 304       0.827   1.526  53.986  0.00  0.00     0.091 H 
ATOM    136  H   SGN d 304      -1.466   0.470  55.625  0.00  0.00     0.090 H 
ATOM    137  H   SGN d 304      -0.308   3.686  53.807  0.00  0.00     0.076 H 
ATOM    138  H   SGN d 304       0.013   2.433  51.888  0.00  0.00     0.210 HD
ATOM    139  H   SGN d 304      -0.571   5.433  51.883  0.00  0.00     0.231 HD
ATOM    140  O1S UAP d 301      10.282   3.067  50.857  0.00  0.00    -0.572 OA
ATOM    141  C3  UAP d 301       9.516  -0.047  53.903  0.00  0.00     0.086 C 
ATOM    142  O62 UAP d 301      11.418  -3.404  51.287  0.00  0.00    -0.642 OA
ATOM    143  C2  UAP d 301       9.470   0.694  52.591  0.00  0.00     0.135 C 
ATOM    144  O61 UAP d 301      11.515  -3.562  53.436  0.00  0.00    -0.642 OA
ATOM    145  C1  UAP d 301       8.971  -0.194  51.471  0.00  0.00     0.167 C 
ATOM    146  C5  UAP d 301      10.221  -1.947  52.547  0.00  0.00     0.147 C 
ATOM    147  C4  UAP d 301      10.010  -1.405  53.765  0.00  0.00    -0.034 C 
ATOM    148  O3S UAP d 301      10.924   3.419  53.107  0.00  0.00    -0.572 OA
ATOM    149  C6  UAP d 301      11.036  -3.037  52.422  0.00  0.00     0.233 C 
ATOM    150  O5  UAP d 301       9.850  -1.308  51.395  0.00  0.00    -0.311 OA
ATOM    151  O2S UAP d 301      12.500   2.775  51.446  0.00  0.00    -0.572 OA
ATOM    152  O2  UAP d 301      10.791   1.007  52.258  0.00  0.00    -0.244 OA
ATOM    153  O3  UAP d 301       8.278   0.038  54.510  0.00  0.00    -0.389 OA
ATOM    154  S   UAP d 301      11.158   2.674  51.903  0.00  0.00     0.252 S 
ATOM    155  H   UAP d 301      10.233   0.421  54.546  0.00  0.00     0.093 H 
ATOM    156  H   UAP d 301       8.827   1.543  52.697  0.00  0.00     0.097 H 
ATOM    157  H   UAP d 301       8.972   0.294  50.519  0.00  0.00     0.134 H 
ATOM    158  H   UAP d 301      10.203  -1.964  54.611  0.00  0.00     0.085 H 
ATOM    159  H   UAP d 301       7.611  -0.380  53.944  0.00  0.00     0.210 HD
ENDROOT
TORSDOF 50
ENDMDL
MODEL 53
REMARK VINA RESULT:      -6.6      4.526     14.720
REMARK  0 active torsions:
REMARK  status: ('A' for Active; 'I' for Inactive)
REMARK       I    between atoms: C3_1  and  O3_85 
REMARK       I    between atoms: C6_2  and  C5_22 
REMARK       I    between atoms: C6_3  and  C5_14 
REMARK       I    between atoms: C6_3  and  O6_30 
REMARK       I    between atoms: C1_4  and  O1_84 
REMARK       I    between atoms: O2S_6  and  S1_45 
REMARK       I    between atoms: C1_7  and  O1_36 
REMARK       I    between atoms: S1_10  and  N_69 
REMARK       I    between atoms: S1_10  and  O1S_27 
REMARK       I    between atoms: S1_10  and  O2S_71 
REMARK       I    between atoms: S1_10  and  O3S_88 
REMARK       I    between atoms: O4_11  and  C1_42 
REMARK       I    between atoms: O4_11  and  C4_63 
REMARK       I    between atoms: O6_12  and  C6_94 
REMARK       I    between atoms: O6_12  and  S2_28 
REMARK       I    between atoms: C1_13  and  O4_51 
REMARK       I    between atoms: S2_16  and  O6_76 
REMARK       I    between atoms: C3_18  and  O3_103 
REMARK       I    between atoms: C1_19  and  O1_37 
REMARK       I    between atoms: O4_20  and  C1_23 
REMARK       I    between atoms: O4_20  and  C4_77 
REMARK       I    between atoms: O3S_21  and  S1_92 
REMARK       I    between atoms: C3_24  and  O3_87 
REMARK       I    between atoms: O3_25  and  C3_46 
REMARK       I    between atoms: C6_29  and  C5_79 
REMARK       I    between atoms: C6_29  and  O6_76 
REMARK       I    between atoms: O6_30  and  S2_31 
REMARK       I    between atoms: O1_36  and  C4_81 
REMARK       I    between atoms: C2_38  and  O2_72 
REMARK       I    between atoms: S1_45  and  N_74 
REMARK       I    between atoms: S1_45  and  O1S_75 
REMARK       I    between atoms: S1_45  and  O3S_101 
REMARK       I    between atoms: O1S_47  and  S1_92 
REMARK       I    between atoms: S_48  and  O2_91 
REMARK       I    between atoms: C5_49  and  C6_67 
REMARK       I    between atoms: O4_51  and  C4_57 
REMARK       I    between atoms: N_52  and  C2_73 
REMARK       I    between atoms: N_52  and  S1_92 
REMARK       I    between atoms: C5_53  and  C6_61 
REMARK       I    between atoms: C4_56  and  O1_84 
REMARK       I    between atoms: C2_62  and  O2_91 
REMARK       I    between atoms: S_66  and  O2_105 
REMARK       I    between atoms: O3_68  and  C3_102 
REMARK       I    between atoms: N_69  and  C2_83 
REMARK       I    between atoms: C3_70  and  O3_98 
REMARK       I    between atoms: O2_72  and  S_96 
REMARK       I    between atoms: N_74  and  C2_86 
REMARK       I    between atoms: O2S_80  and  S1_92 
REMARK       I    between atoms: C5_89  and  C6_94 
REMARK       I    between atoms: C2_104  and  O2_105 
ROOT
ATOM      1  C3  IDS d 305       6.049   1.140  52.829  0.00  0.00     0.094 C 
ATOM      2  O3S IDS d 305      10.777   1.323  53.730  0.00  0.00    -0.572 OA
ATOM      3  C1  IDS d 305       7.445   3.034  53.534  0.00  0.00     0.161 C 
ATOM      4  O62 IDS d 305       3.842   4.712  53.727  0.00  0.00    -0.646 OA
ATOM      5  O5  IDS d 305       6.162   3.623  53.537  0.00  0.00    -0.340 OA
ATOM      6  O61 IDS d 305       3.255   3.464  55.467  0.00  0.00    -0.646 OA
ATOM      7  O1S IDS d 305      10.219  -0.880  52.992  0.00  0.00    -0.572 OA
ATOM      8  C5  IDS d 305       5.289   2.931  54.413  0.00  0.00     0.152 C 
ATOM      9  S   IDS d 305       9.727   0.320  53.632  0.00  0.00     0.252 S 
ATOM     10  C6  IDS d 305       4.037   3.785  54.556  0.00  0.00     0.206 C 
ATOM     11  C4  IDS d 305       4.939   1.575  53.767  0.00  0.00     0.103 C 
ATOM     12  O3  IDS d 305       6.005  -0.243  52.683  0.00  0.00    -0.390 OA
ATOM     13  O2S IDS d 305       9.224  -0.000  54.936  0.00  0.00    -0.572 OA
ATOM     14  C2  IDS d 305       7.321   1.504  53.508  0.00  0.00     0.134 C 
ATOM     15  O2  IDS d 305       8.350   0.943  52.729  0.00  0.00    -0.244 OA
ATOM     16  H   IDS d 305       5.959   1.598  51.866  0.00  0.00     0.091 H 
ATOM     17  H   IDS d 305       8.017   3.325  52.678  0.00  0.00     0.133 H 
ATOM     18  H   IDS d 305       5.731   2.758  55.373  0.00  0.00     0.104 H 
ATOM     19  H   IDS d 305       4.815   0.870  54.562  0.00  0.00     0.092 H 
ATOM     20  H   IDS d 305       6.087  -0.662  53.553  0.00  0.00     0.210 HD
ATOM     21  H   IDS d 305       7.365   1.145  54.515  0.00  0.00     0.097 H 
ATOM     22  C6  IDS d 303      -3.237   0.576  50.629  0.00  0.00     0.206 C 
ATOM     23  O61 IDS d 303      -3.749   1.067  49.633  0.00  0.00    -0.646 OA
ATOM     24  C5  IDS d 303      -2.899   1.459  51.777  0.00  0.00     0.152 C 
ATOM     25  C1  IDS d 303      -1.801   1.476  53.869  0.00  0.00     0.161 C 
ATOM     26  O3  IDS d 303      -2.570   4.163  52.721  0.00  0.00    -0.390 OA
ATOM     27  O2S IDS d 303      -3.435   3.441  57.124  0.00  0.00    -0.572 OA
ATOM     28  O5  IDS d 303      -2.415   0.660  52.864  0.00  0.00    -0.340 OA
ATOM     29  C3  IDS d 303      -3.490   3.297  53.294  0.00  0.00     0.094 C 
ATOM     30  S   IDS d 303      -3.304   2.063  56.832  0.00  0.00     0.252 S 
ATOM     31  C4  IDS d 303      -4.065   2.316  52.252  0.00  0.00     0.103 C 
ATOM     32  O1S IDS d 303      -4.220   1.267  57.549  0.00  0.00    -0.572 OA
ATOM     33  C2  IDS d 303      -2.792   2.526  54.374  0.00  0.00     0.134 C 
ATOM     34  O3S IDS d 303      -1.959   1.742  57.136  0.00  0.00    -0.572 OA
ATOM     35  O2  IDS d 303      -3.702   1.916  55.175  0.00  0.00    -0.244 OA
ATOM     36  O62 IDS d 303      -2.796  -0.552  50.675  0.00  0.00    -0.646 OA
ATOM     37  H   IDS d 303      -2.146   2.137  51.435  0.00  0.00     0.104 H 
ATOM     38  H   IDS d 303      -1.534   0.838  54.686  0.00  0.00     0.133 H 
ATOM     39  H   IDS d 303      -2.227   4.766  53.399  0.00  0.00     0.210 HD
ATOM     40  H   IDS d 303      -4.306   3.865  53.692  0.00  0.00     0.091 H 
ATOM     41  H   IDS d 303      -4.544   2.863  51.466  0.00  0.00     0.092 H 
ATOM     42  H   IDS d 303      -2.220   3.253  54.912  0.00  0.00     0.097 H 
ATOM     43  C6  SGN d 306      10.089   4.365  52.918  0.00  0.00     0.067 C 
ATOM     44  S1  SGN d 306       8.732   8.922  57.934  0.00  0.00     0.156 S 
ATOM     45  C5  SGN d 306       9.942   4.838  54.354  0.00  0.00     0.091 C 
ATOM     46  C3  SGN d 306       8.247   5.415  56.095  0.00  0.00     0.083 C 
ATOM     47  C1  SGN d 306      10.354   6.768  55.747  0.00  0.00     0.147 C 
ATOM     48  O1S SGN d 306       8.724   9.051  59.368  0.00  0.00    -0.296 OA
ATOM     49  O6  SGN d 306       9.064   4.963  52.127  0.00  0.00    -0.254 OA
ATOM     50  S2  SGN d 306       9.226   5.013  50.364  0.00  0.00     0.251 S 
ATOM     51  O4S SGN d 306       8.420   3.994  49.753  0.00  0.00    -0.572 OA
ATOM     52  O1  SGN d 306      11.095   6.025  56.704  0.00  0.00    -0.369 OA
ATOM     53  O4  SGN d 306       8.047   3.450  54.741  0.00  0.00    -0.348 OA
ATOM     54  C4  SGN d 306       8.466   4.813  54.716  0.00  0.00     0.095 C 
ATOM     55  N   SGN d 306       8.834   7.206  57.547  0.00  0.00    -0.210 NA
ATOM     56  O2S SGN d 306       7.507   9.423  57.381  0.00  0.00    -0.296 OA
ATOM     57  O5  SGN d 306      10.451   6.189  54.453  0.00  0.00    -0.350 OA
ATOM     58  O6S SGN d 306       8.769   6.304  49.921  0.00  0.00    -0.572 OA
ATOM     59  C2  SGN d 306       8.884   6.799  56.158  0.00  0.00     0.081 C 
ATOM     60  O3S SGN d 306       9.865   9.624  57.389  0.00  0.00    -0.296 OA
ATOM     61  O5S SGN d 306      10.619   4.851  50.024  0.00  0.00    -0.572 OA
ATOM     62  O3  SGN d 306       6.849   5.626  56.246  0.00  0.00    -0.391 OA
ATOM     63  H   SGN d 306       9.996   3.300  52.880  0.00  0.00     0.080 H 
ATOM     64  H   SGN d 306      11.049   4.647  52.540  0.00  0.00     0.080 H 
ATOM     65  H   SGN d 306      10.489   4.205  55.022  0.00  0.00     0.090 H 
ATOM     66  H   SGN d 306       8.660   4.768  56.840  0.00  0.00     0.089 H 
ATOM     67  H   SGN d 306      10.758   7.758  55.713  0.00  0.00     0.131 H 
ATOM     68  H   SGN d 306       7.959   8.576  59.731  0.00  0.00     0.231 HD
ATOM     69  H   SGN d 306      10.746   5.122  56.754  0.00  0.00     0.212 HD
ATOM     70  H   SGN d 306       7.909   5.379  53.999  0.00  0.00     0.091 H 
ATOM     71  H   SGN d 306       8.015   6.757  57.960  0.00  0.00     0.140 HD
ATOM     72  H   SGN d 306       6.758   8.937  57.759  0.00  0.00     0.231 HD
ATOM     73  H   SGN d 306       8.363   7.459  55.497  0.00  0.00     0.076 H 
ATOM     74  H   SGN d 306      10.682   9.270  57.775  0.00  0.00     0.231 HD
ATOM     75  H   SGN d 306       6.533   6.218  55.545  0.00  0.00     0.210 HD
ATOM     76  C1  SGN d 302      -6.340   1.460  52.375  0.00  0.00     0.150 C 
ATOM     77  O4  SGN d 302      -6.982  -2.508  53.409  0.00  0.00    -0.348 OA
ATOM     78  O6  SGN d 302      -7.914  -1.989  50.507  0.00  0.00    -0.254 OA
ATOM     79  O3S SGN d 302      -6.709   4.281  53.691  0.00  0.00    -0.296 OA
ATOM     80  S2  SGN d 302      -8.450  -2.303  48.909  0.00  0.00     0.251 S 
ATOM     81  O5  SGN d 302      -6.573   0.487  51.355  0.00  0.00    -0.349 OA
ATOM     82  O1S SGN d 302      -6.853   4.083  56.023  0.00  0.00    -0.296 OA
ATOM     83  O6S SGN d 302      -7.655  -1.499  48.020  0.00  0.00    -0.572 OA
ATOM     84  N   SGN d 302      -6.800   1.898  54.652  0.00  0.00    -0.210 NA
ATOM     85  O5S SGN d 302      -8.199  -3.674  48.644  0.00  0.00    -0.572 OA
ATOM     86  C4  SGN d 302      -7.369  -1.244  52.870  0.00  0.00     0.095 C 
ATOM     87  O3  SGN d 302      -8.109  -0.563  54.999  0.00  0.00    -0.391 OA
ATOM     88  C2  SGN d 302      -7.286   1.149  53.533  0.00  0.00     0.081 C 
ATOM     89  O2S SGN d 302      -8.670   3.622  54.647  0.00  0.00    -0.296 OA
ATOM     90  O1  SGN d 302      -5.000   1.428  52.860  0.00  0.00    -0.348 OA
ATOM     91  C5  SGN d 302      -6.370  -0.856  51.780  0.00  0.00     0.091 C 
ATOM     92  S1  SGN d 302      -7.280   3.563  54.767  0.00  0.00     0.156 S 
ATOM     93  C6  SGN d 302      -6.547  -1.723  50.589  0.00  0.00     0.067 C 
ATOM     94  O4S SGN d 302      -9.842  -2.048  48.829  0.00  0.00    -0.572 OA
ATOM     95  C3  SGN d 302      -7.152  -0.285  54.002  0.00  0.00     0.083 C 
ATOM     96  H   SGN d 302      -6.509   2.433  51.962  0.00  0.00     0.131 H 
ATOM     97  H   SGN d 302      -5.741   4.251  53.759  0.00  0.00     0.231 HD
ATOM     98  H   SGN d 302      -5.886   4.031  56.082  0.00  0.00     0.231 HD
ATOM     99  H   SGN d 302      -5.781   1.875  54.617  0.00  0.00     0.140 HD
ATOM    100  H   SGN d 302      -8.366  -1.252  52.478  0.00  0.00     0.091 H 
ATOM    101  H   SGN d 302      -8.013  -1.483  55.291  0.00  0.00     0.210 HD
ATOM    102  H   SGN d 302      -8.286   1.358  53.215  0.00  0.00     0.076 H 
ATOM    103  H   SGN d 302      -8.961   4.545  54.708  0.00  0.00     0.231 HD
ATOM    104  H   SGN d 302      -5.390  -0.967  52.196  0.00  0.00     0.090 H 
ATOM    105  H   SGN d 302      -6.212  -1.217  49.708  0.00  0.00     0.080 H 
ATOM    106  H   SGN d 302      -5.977  -2.625  50.673  0.00  0.00     0.080 H 
ATOM    107  H   SGN d 302      -6.163  -0.404  54.391  0.00  0.00     0.089 H 
ATOM    108  O2S SGN d 304       3.982   0.509  48.207  0.00  0.00    -0.296 OA
ATOM    109  C1  SGN d 304       3.130   0.395  52.822  0.00  0.00     0.150 C 
ATOM    110  S2  SGN d 304       0.326  -2.059  55.723  0.00  0.00     0.251 S 
ATOM    111  O4  SGN d 304      -0.594   2.072  53.422  0.00  0.00    -0.348 OA
ATOM    112  C6  SGN d 304       0.657   0.698  55.589  0.00  0.00     0.067 C 
ATOM    113  O4S SGN d 304      -1.037  -1.967  56.143  0.00  0.00    -0.572 OA
ATOM    114  O1  SGN d 304       3.742   1.655  53.012  0.00  0.00    -0.348 OA
ATOM    115  O5  SGN d 304       2.342   0.053  53.952  0.00  0.00    -0.349 OA
ATOM    116  S1  SGN d 304       3.706  -0.201  49.417  0.00  0.00     0.156 S 
ATOM    117  O5S SGN d 304       0.974  -3.140  56.401  0.00  0.00    -0.572 OA
ATOM    118  C3  SGN d 304       1.176   1.560  51.874  0.00  0.00     0.083 C 
ATOM    119  N   SGN d 304       3.044   1.003  50.534  0.00  0.00    -0.210 NA
ATOM    120  O1S SGN d 304       4.903  -0.799  49.941  0.00  0.00    -0.296 OA
ATOM    121  O6  SGN d 304       1.142  -0.532  56.131  0.00  0.00    -0.254 OA
ATOM    122  C4  SGN d 304       0.407   1.122  53.114  0.00  0.00     0.095 C 
ATOM    123  C5  SGN d 304       1.361   1.026  54.281  0.00  0.00     0.091 C 
ATOM    124  C2  SGN d 304       2.235   0.528  51.619  0.00  0.00     0.081 C 
ATOM    125  O6S SGN d 304       0.388  -2.285  54.302  0.00  0.00    -0.572 OA
ATOM    126  O3  SGN d 304       0.340   1.625  50.740  0.00  0.00    -0.391 OA
ATOM    127  O3S SGN d 304       2.722  -1.226  49.180  0.00  0.00    -0.296 OA
ATOM    128  H   SGN d 304       4.646   1.195  48.379  0.00  0.00     0.231 HD
ATOM    129  H   SGN d 304       3.869  -0.367  52.686  0.00  0.00     0.131 H 
ATOM    130  H   SGN d 304      -0.395   0.613  55.410  0.00  0.00     0.080 H 
ATOM    131  H   SGN d 304       0.851   1.483  56.290  0.00  0.00     0.080 H 
ATOM    132  H   SGN d 304       1.586   2.534  52.043  0.00  0.00     0.089 H 
ATOM    133  H   SGN d 304       2.474   1.647  49.986  0.00  0.00     0.140 HD
ATOM    134  H   SGN d 304       5.566  -0.110  50.100  0.00  0.00     0.231 HD
ATOM    135  H   SGN d 304      -0.047   0.171  52.926  0.00  0.00     0.091 H 
ATOM    136  H   SGN d 304       1.820   1.979  54.446  0.00  0.00     0.090 H 
ATOM    137  H   SGN d 304       1.776  -0.414  51.402  0.00  0.00     0.076 H 
ATOM    138  H   SGN d 304      -0.043   0.750  50.569  0.00  0.00     0.210 HD
ATOM    139  H   SGN d 304       1.915  -0.822  48.826  0.00  0.00     0.231 HD
ATOM    140  O1S UAP d 301      -7.408  -6.483  51.167  0.00  0.00    -0.572 OA
ATOM    141  C3  UAP d 301      -6.980  -4.788  55.230  0.00  0.00     0.086 C 
ATOM    142  O62 UAP d 301     -11.337  -3.129  55.250  0.00  0.00    -0.642 OA
ATOM    143  C2  UAP d 301      -7.212  -4.861  53.742  0.00  0.00     0.135 C 
ATOM    144  O61 UAP d 301     -10.427  -3.719  57.115  0.00  0.00    -0.642 OA
ATOM    145  C1  UAP d 301      -7.875  -3.603  53.222  0.00  0.00     0.167 C 
ATOM    146  C5  UAP d 301      -9.124  -3.628  55.279  0.00  0.00     0.147 C 
ATOM    147  C4  UAP d 301      -8.096  -4.194  55.944  0.00  0.00    -0.034 C 
ATOM    148  O3S UAP d 301      -6.566  -7.816  52.931  0.00  0.00    -0.572 OA
ATOM    149  C6  UAP d 301     -10.319  -3.437  55.913  0.00  0.00     0.233 C 
ATOM    150  O5  UAP d 301      -9.103  -3.456  53.921  0.00  0.00    -0.311 OA
ATOM    151  O2S UAP d 301      -8.821  -7.999  52.196  0.00  0.00    -0.572 OA
ATOM    152  O2  UAP d 301      -8.138  -5.885  53.529  0.00  0.00    -0.244 OA
ATOM    153  O3  UAP d 301      -5.770  -4.163  55.466  0.00  0.00    -0.389 OA
ATOM    154  S   UAP d 301      -7.708  -7.135  52.392  0.00  0.00     0.252 S 
ATOM    155  H   UAP d 301      -6.923  -5.780  55.627  0.00  0.00     0.093 H 
ATOM    156  H   UAP d 301      -6.271  -5.007  53.254  0.00  0.00     0.097 H 
ATOM    157  H   UAP d 301      -8.092  -3.648  52.176  0.00  0.00     0.134 H 
ATOM    158  H   UAP d 301      -8.103  -4.206  56.976  0.00  0.00     0.085 H 
ATOM    159  H   UAP d 301      -5.799  -3.260  55.113  0.00  0.00     0.210 HD
ENDROOT
TORSDOF 50
ENDMDL
MODEL 54
REMARK VINA RESULT:      -6.6      4.580     14.687
REMARK  0 active torsions:
REMARK  status: ('A' for Active; 'I' for Inactive)
REMARK       I    between atoms: C3_1  and  O3_85 
REMARK       I    between atoms: C6_2  and  C5_22 
REMARK       I    between atoms: C6_3  and  C5_14 
REMARK       I    between atoms: C6_3  and  O6_30 
REMARK       I    between atoms: C1_4  and  O1_84 
REMARK       I    between atoms: O2S_6  and  S1_45 
REMARK       I    between atoms: C1_7  and  O1_36 
REMARK       I    between atoms: S1_10  and  N_69 
REMARK       I    between atoms: S1_10  and  O1S_27 
REMARK       I    between atoms: S1_10  and  O2S_71 
REMARK       I    between atoms: S1_10  and  O3S_88 
REMARK       I    between atoms: O4_11  and  C1_42 
REMARK       I    between atoms: O4_11  and  C4_63 
REMARK       I    between atoms: O6_12  and  C6_94 
REMARK       I    between atoms: O6_12  and  S2_28 
REMARK       I    between atoms: C1_13  and  O4_51 
REMARK       I    between atoms: S2_16  and  O6_76 
REMARK       I    between atoms: C3_18  and  O3_103 
REMARK       I    between atoms: C1_19  and  O1_37 
REMARK       I    between atoms: O4_20  and  C1_23 
REMARK       I    between atoms: O4_20  and  C4_77 
REMARK       I    between atoms: O3S_21  and  S1_92 
REMARK       I    between atoms: C3_24  and  O3_87 
REMARK       I    between atoms: O3_25  and  C3_46 
REMARK       I    between atoms: C6_29  and  C5_79 
REMARK       I    between atoms: C6_29  and  O6_76 
REMARK       I    between atoms: O6_30  and  S2_31 
REMARK       I    between atoms: O1_36  and  C4_81 
REMARK       I    between atoms: C2_38  and  O2_72 
REMARK       I    between atoms: S1_45  and  N_74 
REMARK       I    between atoms: S1_45  and  O1S_75 
REMARK       I    between atoms: S1_45  and  O3S_101 
REMARK       I    between atoms: O1S_47  and  S1_92 
REMARK       I    between atoms: S_48  and  O2_91 
REMARK       I    between atoms: C5_49  and  C6_67 
REMARK       I    between atoms: O4_51  and  C4_57 
REMARK       I    between atoms: N_52  and  C2_73 
REMARK       I    between atoms: N_52  and  S1_92 
REMARK       I    between atoms: C5_53  and  C6_61 
REMARK       I    between atoms: C4_56  and  O1_84 
REMARK       I    between atoms: C2_62  and  O2_91 
REMARK       I    between atoms: S_66  and  O2_105 
REMARK       I    between atoms: O3_68  and  C3_102 
REMARK       I    between atoms: N_69  and  C2_83 
REMARK       I    between atoms: C3_70  and  O3_98 
REMARK       I    between atoms: O2_72  and  S_96 
REMARK       I    between atoms: N_74  and  C2_86 
REMARK       I    between atoms: O2S_80  and  S1_92 
REMARK       I    between atoms: C5_89  and  C6_94 
REMARK       I    between atoms: C2_104  and  O2_105 
ROOT
ATOM      1  C3  IDS d 305       5.867   4.025  54.771  0.00  0.00     0.094 C 
ATOM      2  O3S IDS d 305      10.172   6.152  54.397  0.00  0.00    -0.572 OA
ATOM      3  C1  IDS d 305       7.979   3.516  55.917  0.00  0.00     0.161 C 
ATOM      4  O62 IDS d 305       5.746   0.478  57.187  0.00  0.00    -0.646 OA
ATOM      5  O5  IDS d 305       7.149   2.481  56.400  0.00  0.00    -0.340 OA
ATOM      6  O61 IDS d 305       5.693  -0.445  55.168  0.00  0.00    -0.646 OA
ATOM      7  O1S IDS d 305       8.613   7.323  53.016  0.00  0.00    -0.572 OA
ATOM      8  C5  IDS d 305       6.636   1.704  55.332  0.00  0.00     0.152 C 
ATOM      9  S   IDS d 305       8.938   6.056  53.633  0.00  0.00     0.252 S 
ATOM     10  C6  IDS d 305       5.989   0.473  55.952  0.00  0.00     0.206 C 
ATOM     11  C4  IDS d 305       5.578   2.547  54.592  0.00  0.00     0.103 C 
ATOM     12  O3  IDS d 305       5.289   4.732  53.722  0.00  0.00    -0.390 OA
ATOM     13  O2S IDS d 305       9.057   5.043  52.624  0.00  0.00    -0.572 OA
ATOM     14  C2  IDS d 305       7.345   4.165  54.678  0.00  0.00     0.134 C 
ATOM     15  O2  IDS d 305       7.604   5.547  54.663  0.00  0.00    -0.244 OA
ATOM     16  H   IDS d 305       5.483   4.396  55.698  0.00  0.00     0.091 H 
ATOM     17  H   IDS d 305       8.123   4.287  56.646  0.00  0.00     0.133 H 
ATOM     18  H   IDS d 305       7.399   1.412  54.640  0.00  0.00     0.104 H 
ATOM     19  H   IDS d 305       5.624   2.272  53.559  0.00  0.00     0.092 H 
ATOM     20  H   IDS d 305       5.635   4.399  52.879  0.00  0.00     0.210 HD
ATOM     21  H   IDS d 305       7.747   3.691  53.807  0.00  0.00     0.097 H 
ATOM     22  C6  IDS d 303      -2.867   0.224  55.583  0.00  0.00     0.206 C 
ATOM     23  O61 IDS d 303      -3.596   0.352  56.556  0.00  0.00    -0.646 OA
ATOM     24  C5  IDS d 303      -1.736  -0.740  55.648  0.00  0.00     0.152 C 
ATOM     25  C1  IDS d 303       0.170  -1.477  54.461  0.00  0.00     0.161 C 
ATOM     26  O3  IDS d 303      -0.090  -2.412  57.323  0.00  0.00    -0.390 OA
ATOM     27  O2S IDS d 303       1.106  -5.499  54.210  0.00  0.00    -0.572 OA
ATOM     28  O5  IDS d 303      -1.091  -0.801  54.370  0.00  0.00    -0.340 OA
ATOM     29  C3  IDS d 303      -0.848  -2.938  56.286  0.00  0.00     0.094 C 
ATOM     30  S   IDS d 303       0.600  -4.594  53.247  0.00  0.00     0.252 S 
ATOM     31  C4  IDS d 303      -2.151  -2.139  56.080  0.00  0.00     0.103 C 
ATOM     32  O1S IDS d 303      -0.060  -5.245  52.185  0.00  0.00    -0.572 OA
ATOM     33  C2  IDS d 303      -0.024  -2.881  55.034  0.00  0.00     0.134 C 
ATOM     34  O3S IDS d 303       1.720  -3.849  52.808  0.00  0.00    -0.572 OA
ATOM     35  O2  IDS d 303      -0.575  -3.669  54.077  0.00  0.00    -0.244 OA
ATOM     36  O62 IDS d 303      -2.874   0.976  54.631  0.00  0.00    -0.646 OA
ATOM     37  H   IDS d 303      -1.065  -0.378  56.398  0.00  0.00     0.104 H 
ATOM     38  H   IDS d 303       0.564  -1.564  53.471  0.00  0.00     0.133 H 
ATOM     39  H   IDS d 303       0.721  -2.934  57.428  0.00  0.00     0.210 HD
ATOM     40  H   IDS d 303      -1.117  -3.946  56.525  0.00  0.00     0.091 H 
ATOM     41  H   IDS d 303      -2.732  -2.157  56.979  0.00  0.00     0.092 H 
ATOM     42  H   IDS d 303       0.945  -3.232  55.321  0.00  0.00     0.097 H 
ATOM     43  C6  SGN d 306      10.261   4.879  57.357  0.00  0.00     0.067 C 
ATOM     44  S1  SGN d 306      13.161  -1.334  58.220  0.00  0.00     0.156 S 
ATOM     45  C5  SGN d 306      11.003   3.626  56.922  0.00  0.00     0.091 C 
ATOM     46  C3  SGN d 306      10.681   1.205  56.401  0.00  0.00     0.083 C 
ATOM     47  C1  SGN d 306      12.669   2.062  57.705  0.00  0.00     0.147 C 
ATOM     48  O1S SGN d 306      13.895  -2.346  57.504  0.00  0.00    -0.296 OA
ATOM     49  O6  SGN d 306       9.256   4.518  58.302  0.00  0.00    -0.254 OA
ATOM     50  S2  SGN d 306       8.548   5.755  59.353  0.00  0.00     0.251 S 
ATOM     51  O4S SGN d 306       7.254   6.149  58.869  0.00  0.00    -0.572 OA
ATOM     52  O1  SGN d 306      13.477   2.213  56.547  0.00  0.00    -0.369 OA
ATOM     53  O4  SGN d 306       9.191   2.885  55.565  0.00  0.00    -0.348 OA
ATOM     54  C4  SGN d 306       9.981   2.523  56.696  0.00  0.00     0.095 C 
ATOM     55  N   SGN d 306      12.469  -0.229  57.035  0.00  0.00    -0.210 NA
ATOM     56  O2S SGN d 306      12.077  -1.928  58.949  0.00  0.00    -0.296 OA
ATOM     57  O5  SGN d 306      11.920   3.241  57.972  0.00  0.00    -0.350 OA
ATOM     58  O6S SGN d 306       8.405   5.181  60.665  0.00  0.00    -0.572 OA
ATOM     59  C2  SGN d 306      11.696   0.904  57.497  0.00  0.00     0.081 C 
ATOM     60  O3S SGN d 306      14.047  -0.626  59.106  0.00  0.00    -0.296 OA
ATOM     61  O5S SGN d 306       9.447   6.880  59.413  0.00  0.00    -0.572 OA
ATOM     62  O3  SGN d 306       9.701   0.179  56.488  0.00  0.00    -0.391 OA
ATOM     63  H   SGN d 306       9.805   5.340  56.506  0.00  0.00     0.080 H 
ATOM     64  H   SGN d 306      10.947   5.569  57.804  0.00  0.00     0.080 H 
ATOM     65  H   SGN d 306      11.551   3.801  56.020  0.00  0.00     0.090 H 
ATOM     66  H   SGN d 306      11.154   1.257  55.443  0.00  0.00     0.089 H 
ATOM     67  H   SGN d 306      13.315   1.870  58.535  0.00  0.00     0.131 H 
ATOM     68  H   SGN d 306      13.294  -2.820  56.908  0.00  0.00     0.231 HD
ATOM     69  H   SGN d 306      12.912   2.389  55.778  0.00  0.00     0.212 HD
ATOM     70  H   SGN d 306       9.379   2.405  57.572  0.00  0.00     0.091 H 
ATOM     71  H   SGN d 306      11.858  -0.781  56.432  0.00  0.00     0.140 HD
ATOM     72  H   SGN d 306      11.493  -2.399  58.335  0.00  0.00     0.231 HD
ATOM     73  H   SGN d 306      11.180   0.728  58.418  0.00  0.00     0.076 H 
ATOM     74  H   SGN d 306      14.771  -0.233  58.593  0.00  0.00     0.231 HD
ATOM     75  H   SGN d 306       9.308   0.182  57.375  0.00  0.00     0.210 HD
ATOM     76  C1  SGN d 302      -4.215  -3.177  55.312  0.00  0.00     0.150 C 
ATOM     77  O4  SGN d 302      -5.582  -2.413  51.467  0.00  0.00    -0.348 OA
ATOM     78  O6  SGN d 302      -7.565  -1.290  53.557  0.00  0.00    -0.254 OA
ATOM     79  O3S SGN d 302      -2.910  -5.563  56.870  0.00  0.00    -0.296 OA
ATOM     80  S2  SGN d 302      -8.880  -0.409  54.216  0.00  0.00     0.251 S 
ATOM     81  O5  SGN d 302      -5.230  -2.194  55.099  0.00  0.00    -0.349 OA
ATOM     82  O1S SGN d 302      -1.960  -7.097  55.372  0.00  0.00    -0.296 OA
ATOM     83  O6S SGN d 302      -8.398   0.279  55.383  0.00  0.00    -0.572 OA
ATOM     84  N   SGN d 302      -3.329  -5.155  54.366  0.00  0.00    -0.210 NA
ATOM     85  O5S SGN d 302      -9.274   0.546  53.244  0.00  0.00    -0.572 OA
ATOM     86  C4  SGN d 302      -5.725  -2.870  52.813  0.00  0.00     0.095 C 
ATOM     87  O3  SGN d 302      -5.053  -5.027  52.152  0.00  0.00    -0.391 OA
ATOM     88  C2  SGN d 302      -4.519  -4.359  54.394  0.00  0.00     0.081 C 
ATOM     89  O2S SGN d 302      -4.249  -7.055  55.785  0.00  0.00    -0.296 OA
ATOM     90  O1  SGN d 302      -2.911  -2.687  55.005  0.00  0.00    -0.348 OA
ATOM     91  C5  SGN d 302      -5.317  -1.736  53.754  0.00  0.00     0.091 C 
ATOM     92  S1  SGN d 302      -3.091  -6.282  55.665  0.00  0.00     0.156 S 
ATOM     93  C6  SGN d 302      -6.334  -0.656  53.726  0.00  0.00     0.067 C 
ATOM     94  O4S SGN d 302      -9.951  -1.300  54.473  0.00  0.00    -0.572 OA
ATOM     95  C3  SGN d 302      -4.673  -3.930  52.950  0.00  0.00     0.083 C 
ATOM     96  H   SGN d 302      -4.219  -3.452  56.345  0.00  0.00     0.131 H 
ATOM     97  H   SGN d 302      -2.108  -5.020  56.805  0.00  0.00     0.231 HD
ATOM     98  H   SGN d 302      -1.172  -6.538  55.294  0.00  0.00     0.231 HD
ATOM     99  H   SGN d 302      -2.534  -4.516  54.366  0.00  0.00     0.140 HD
ATOM    100  H   SGN d 302      -6.719  -3.199  53.032  0.00  0.00     0.091 H 
ATOM    101  H   SGN d 302      -5.148  -4.740  51.230  0.00  0.00     0.210 HD
ATOM    102  H   SGN d 302      -5.407  -4.839  54.749  0.00  0.00     0.076 H 
ATOM    103  H   SGN d 302      -4.138  -7.693  56.506  0.00  0.00     0.231 HD
ATOM    104  H   SGN d 302      -4.365  -1.378  53.423  0.00  0.00     0.090 H 
ATOM    105  H   SGN d 302      -6.321  -0.108  54.645  0.00  0.00     0.080 H 
ATOM    106  H   SGN d 302      -6.143   0.042  52.938  0.00  0.00     0.080 H 
ATOM    107  H   SGN d 302      -3.729  -3.544  52.628  0.00  0.00     0.089 H 
ATOM    108  O2S SGN d 304       1.743   6.139  56.904  0.00  0.00    -0.296 OA
ATOM    109  C1  SGN d 304       3.261   2.639  54.169  0.00  0.00     0.150 C 
ATOM    110  S2  SGN d 304       1.577   0.190  50.499  0.00  0.00     0.251 S 
ATOM    111  O4  SGN d 304       1.127  -0.739  55.204  0.00  0.00    -0.348 OA
ATOM    112  C6  SGN d 304       2.718  -0.795  52.835  0.00  0.00     0.067 C 
ATOM    113  O4S SGN d 304       0.715  -0.938  50.336  0.00  0.00    -0.572 OA
ATOM    114  O1  SGN d 304       4.276   2.297  55.091  0.00  0.00    -0.348 OA
ATOM    115  O5  SGN d 304       3.059   1.583  53.242  0.00  0.00    -0.349 OA
ATOM    116  S1  SGN d 304       1.867   5.504  55.630  0.00  0.00     0.156 S 
ATOM    117  O5S SGN d 304       2.058   0.625  49.223  0.00  0.00    -0.572 OA
ATOM    118  C3  SGN d 304       1.625   1.569  55.669  0.00  0.00     0.083 C 
ATOM    119  N   SGN d 304       2.288   3.819  55.978  0.00  0.00    -0.210 NA
ATOM    120  O1S SGN d 304       2.880   6.144  54.838  0.00  0.00    -0.296 OA
ATOM    121  O6  SGN d 304       2.952  -0.298  51.515  0.00  0.00    -0.254 OA
ATOM    122  C4  SGN d 304       1.459   0.496  54.601  0.00  0.00     0.095 C 
ATOM    123  C5  SGN d 304       2.761   0.336  53.852  0.00  0.00     0.091 C 
ATOM    124  C2  SGN d 304       2.001   2.841  54.968  0.00  0.00     0.081 C 
ATOM    125  O6S SGN d 304       0.859   1.269  51.127  0.00  0.00    -0.572 OA
ATOM    126  O3  SGN d 304       0.423   1.791  56.373  0.00  0.00    -0.391 OA
ATOM    127  O3S SGN d 304       0.610   5.548  54.928  0.00  0.00    -0.296 OA
ATOM    128  H   SGN d 304       2.595   6.104  57.368  0.00  0.00     0.231 HD
ATOM    129  H   SGN d 304       3.530   3.518  53.621  0.00  0.00     0.131 H 
ATOM    130  H   SGN d 304       1.755  -1.261  52.869  0.00  0.00     0.080 H 
ATOM    131  H   SGN d 304       3.483  -1.503  53.076  0.00  0.00     0.080 H 
ATOM    132  H   SGN d 304       2.369   1.253  56.370  0.00  0.00     0.089 H 
ATOM    133  H   SGN d 304       1.782   3.545  56.820  0.00  0.00     0.140 HD
ATOM    134  H   SGN d 304       3.726   6.114  55.311  0.00  0.00     0.231 HD
ATOM    135  H   SGN d 304       0.678   0.788  53.930  0.00  0.00     0.091 H 
ATOM    136  H   SGN d 304       3.535   0.061  54.538  0.00  0.00     0.090 H 
ATOM    137  H   SGN d 304       1.205   3.145  54.321  0.00  0.00     0.076 H 
ATOM    138  H   SGN d 304      -0.266   2.080  55.755  0.00  0.00     0.210 HD
ATOM    139  H   SGN d 304      -0.074   5.116  55.463  0.00  0.00     0.231 HD
ATOM    140  O1S UAP d 301      -8.370   0.643  49.495  0.00  0.00    -0.572 OA
ATOM    141  C3  UAP d 301      -5.473  -2.565  48.556  0.00  0.00     0.086 C 
ATOM    142  O62 UAP d 301      -8.404  -5.928  49.910  0.00  0.00    -0.642 OA
ATOM    143  C2  UAP d 301      -6.408  -1.686  49.348  0.00  0.00     0.135 C 
ATOM    144  O61 UAP d 301      -6.967  -6.347  48.357  0.00  0.00    -0.642 OA
ATOM    145  C1  UAP d 301      -6.765  -2.316  50.678  0.00  0.00     0.167 C 
ATOM    146  C5  UAP d 301      -6.780  -4.404  49.481  0.00  0.00     0.147 C 
ATOM    147  C4  UAP d 301      -5.822  -3.972  48.634  0.00  0.00    -0.034 C 
ATOM    148  O3S UAP d 301      -7.290   0.592  47.390  0.00  0.00    -0.572 OA
ATOM    149  C6  UAP d 301      -7.368  -5.620  49.276  0.00  0.00     0.233 C 
ATOM    150  O5  UAP d 301      -7.364  -3.574  50.400  0.00  0.00    -0.311 OA
ATOM    151  O2S UAP d 301      -9.524  -0.176  47.665  0.00  0.00    -0.572 OA
ATOM    152  O2  UAP d 301      -7.606  -1.624  48.633  0.00  0.00    -0.244 OA
ATOM    153  O3  UAP d 301      -4.172  -2.290  48.931  0.00  0.00    -0.389 OA
ATOM    154  S   UAP d 301      -8.239  -0.043  48.259  0.00  0.00     0.252 S 
ATOM    155  H   UAP d 301      -5.573  -2.336  47.515  0.00  0.00     0.093 H 
ATOM    156  H   UAP d 301      -5.937  -0.739  49.507  0.00  0.00     0.097 H 
ATOM    157  H   UAP d 301      -7.463  -1.734  51.242  0.00  0.00     0.134 H 
ATOM    158  H   UAP d 301      -5.330  -4.652  48.034  0.00  0.00     0.085 H 
ATOM    159  H   UAP d 301      -4.058  -2.491  49.873  0.00  0.00     0.210 HD
ENDROOT
TORSDOF 50
ENDMDL
MODEL 55
REMARK VINA RESULT:      -6.6      3.069      6.953
REMARK  0 active torsions:
REMARK  status: ('A' for Active; 'I' for Inactive)
REMARK       I    between atoms: C3_1  and  O3_85 
REMARK       I    between atoms: C6_2  and  C5_22 
REMARK       I    between atoms: C6_3  and  C5_14 
REMARK       I    between atoms: C6_3  and  O6_30 
REMARK       I    between atoms: C1_4  and  O1_84 
REMARK       I    between atoms: O2S_6  and  S1_45 
REMARK       I    between atoms: C1_7  and  O1_36 
REMARK       I    between atoms: S1_10  and  N_69 
REMARK       I    between atoms: S1_10  and  O1S_27 
REMARK       I    between atoms: S1_10  and  O2S_71 
REMARK       I    between atoms: S1_10  and  O3S_88 
REMARK       I    between atoms: O4_11  and  C1_42 
REMARK       I    between atoms: O4_11  and  C4_63 
REMARK       I    between atoms: O6_12  and  C6_94 
REMARK       I    between atoms: O6_12  and  S2_28 
REMARK       I    between atoms: C1_13  and  O4_51 
REMARK       I    between atoms: S2_16  and  O6_76 
REMARK       I    between atoms: C3_18  and  O3_103 
REMARK       I    between atoms: C1_19  and  O1_37 
REMARK       I    between atoms: O4_20  and  C1_23 
REMARK       I    between atoms: O4_20  and  C4_77 
REMARK       I    between atoms: O3S_21  and  S1_92 
REMARK       I    between atoms: C3_24  and  O3_87 
REMARK       I    between atoms: O3_25  and  C3_46 
REMARK       I    between atoms: C6_29  and  C5_79 
REMARK       I    between atoms: C6_29  and  O6_76 
REMARK       I    between atoms: O6_30  and  S2_31 
REMARK       I    between atoms: O1_36  and  C4_81 
REMARK       I    between atoms: C2_38  and  O2_72 
REMARK       I    between atoms: S1_45  and  N_74 
REMARK       I    between atoms: S1_45  and  O1S_75 
REMARK       I    between atoms: S1_45  and  O3S_101 
REMARK       I    between atoms: O1S_47  and  S1_92 
REMARK       I    between atoms: S_48  and  O2_91 
REMARK       I    between atoms: C5_49  and  C6_67 
REMARK       I    between atoms: O4_51  and  C4_57 
REMARK       I    between atoms: N_52  and  C2_73 
REMARK       I    between atoms: N_52  and  S1_92 
REMARK       I    between atoms: C5_53  and  C6_61 
REMARK       I    between atoms: C4_56  and  O1_84 
REMARK       I    between atoms: C2_62  and  O2_91 
REMARK       I    between atoms: S_66  and  O2_105 
REMARK       I    between atoms: O3_68  and  C3_102 
REMARK       I    between atoms: N_69  and  C2_83 
REMARK       I    between atoms: C3_70  and  O3_98 
REMARK       I    between atoms: O2_72  and  S_96 
REMARK       I    between atoms: N_74  and  C2_86 
REMARK       I    between atoms: O2S_80  and  S1_92 
REMARK       I    between atoms: C5_89  and  C6_94 
REMARK       I    between atoms: C2_104  and  O2_105 
ROOT
ATOM      1  C3  IDS d 305      -4.443   3.161  52.446  0.00  0.00     0.094 C 
ATOM      2  O3S IDS d 305      -8.345   5.895  51.736  0.00  0.00    -0.572 OA
ATOM      3  C1  IDS d 305      -6.001   4.135  54.077  0.00  0.00     0.161 C 
ATOM      4  O62 IDS d 305      -3.269   2.620  56.541  0.00  0.00    -0.646 OA
ATOM      5  O5  IDS d 305      -5.049   3.537  54.931  0.00  0.00    -0.340 OA
ATOM      6  O61 IDS d 305      -1.745   4.106  55.911  0.00  0.00    -0.646 OA
ATOM      7  O1S IDS d 305      -7.442   5.273  49.612  0.00  0.00    -0.572 OA
ATOM      8  C5  IDS d 305      -3.754   4.056  54.687  0.00  0.00     0.152 C 
ATOM      9  S   IDS d 305      -7.147   5.500  51.010  0.00  0.00     0.252 S 
ATOM     10  C6  IDS d 305      -2.860   3.565  55.818  0.00  0.00     0.206 C 
ATOM     11  C4  IDS d 305      -3.261   3.498  53.336  0.00  0.00     0.103 C 
ATOM     12  O3  IDS d 305      -4.033   3.184  51.118  0.00  0.00    -0.390 OA
ATOM     13  O2S IDS d 305      -6.137   6.511  51.132  0.00  0.00    -0.572 OA
ATOM     14  C2  IDS d 305      -5.433   4.252  52.655  0.00  0.00     0.134 C 
ATOM     15  O2  IDS d 305      -6.447   4.041  51.704  0.00  0.00    -0.244 OA
ATOM     16  H   IDS d 305      -4.849   2.198  52.673  0.00  0.00     0.091 H 
ATOM     17  H   IDS d 305      -6.902   3.561  54.017  0.00  0.00     0.133 H 
ATOM     18  H   IDS d 305      -3.746   5.126  54.648  0.00  0.00     0.104 H 
ATOM     19  H   IDS d 305      -2.650   4.254  52.888  0.00  0.00     0.092 H 
ATOM     20  H   IDS d 305      -3.664   4.056  50.909  0.00  0.00     0.210 HD
ATOM     21  H   IDS d 305      -5.000   5.224  52.544  0.00  0.00     0.097 H 
ATOM     22  C6  IDS d 303       3.130  -2.569  53.549  0.00  0.00     0.206 C 
ATOM     23  O61 IDS d 303       3.074  -3.740  53.896  0.00  0.00    -0.646 OA
ATOM     24  C5  IDS d 303       2.973  -1.503  54.575  0.00  0.00     0.152 C 
ATOM     25  C1  IDS d 303       2.750   0.835  54.830  0.00  0.00     0.161 C 
ATOM     26  O3  IDS d 303       2.193  -0.853  57.273  0.00  0.00    -0.390 OA
ATOM     27  O2S IDS d 303       4.755   2.858  57.832  0.00  0.00    -0.572 OA
ATOM     28  O5  IDS d 303       3.180  -0.223  53.965  0.00  0.00    -0.340 OA
ATOM     29  C3  IDS d 303       3.475  -0.605  56.805  0.00  0.00     0.094 C 
ATOM     30  S   IDS d 303       4.957   2.821  56.432  0.00  0.00     0.252 S 
ATOM     31  C4  IDS d 303       3.909  -1.660  55.766  0.00  0.00     0.103 C 
ATOM     32  O1S IDS d 303       6.266   3.192  56.062  0.00  0.00    -0.572 OA
ATOM     33  C2  IDS d 303       3.483   0.753  56.170  0.00  0.00     0.134 C 
ATOM     34  O3S IDS d 303       3.979   3.688  55.889  0.00  0.00    -0.572 OA
ATOM     35  O2  IDS d 303       4.759   1.179  55.994  0.00  0.00    -0.244 OA
ATOM     36  O62 IDS d 303       3.102  -2.205  52.393  0.00  0.00    -0.646 OA
ATOM     37  H   IDS d 303       1.978  -1.588  54.959  0.00  0.00     0.104 H 
ATOM     38  H   IDS d 303       3.003   1.762  54.359  0.00  0.00     0.133 H 
ATOM     39  H   IDS d 303       1.949  -0.175  57.923  0.00  0.00     0.210 HD
ATOM     40  H   IDS d 303       4.162  -0.652  57.623  0.00  0.00     0.091 H 
ATOM     41  H   IDS d 303       3.882  -2.635  56.208  0.00  0.00     0.092 H 
ATOM     42  H   IDS d 303       2.949   1.383  56.850  0.00  0.00     0.097 H 
ATOM     43  C6  SGN d 306      -8.961   4.498  54.575  0.00  0.00     0.067 C 
ATOM     44  S1  SGN d 306      -7.362   7.902  60.373  0.00  0.00     0.156 S 
ATOM     45  C5  SGN d 306      -8.462   5.676  55.394  0.00  0.00     0.091 C 
ATOM     46  C3  SGN d 306      -6.519   6.479  56.743  0.00  0.00     0.083 C 
ATOM     47  C1  SGN d 306      -8.916   6.862  57.449  0.00  0.00     0.147 C 
ATOM     48  O1S SGN d 306      -6.880   9.178  60.835  0.00  0.00    -0.296 OA
ATOM     49  O6  SGN d 306      -8.524   3.288  55.189  0.00  0.00    -0.254 OA
ATOM     50  S2  SGN d 306      -9.315   1.756  54.784  0.00  0.00     0.251 S 
ATOM     51  O4S SGN d 306      -8.511   1.000  53.865  0.00  0.00    -0.572 OA
ATOM     52  O1  SGN d 306      -9.000   8.124  56.801  0.00  0.00    -0.369 OA
ATOM     53  O4  SGN d 306      -6.226   5.420  54.614  0.00  0.00    -0.348 OA
ATOM     54  C4  SGN d 306      -7.022   5.399  55.798  0.00  0.00     0.095 C 
ATOM     55  N   SGN d 306      -7.065   7.809  58.639  0.00  0.00    -0.210 NA
ATOM     56  O2S SGN d 306      -6.634   6.837  61.000  0.00  0.00    -0.296 OA
ATOM     57  O5  SGN d 306      -9.288   5.805  56.574  0.00  0.00    -0.350 OA
ATOM     58  O6S SGN d 306      -9.466   1.007  56.003  0.00  0.00    -0.572 OA
ATOM     59  C2  SGN d 306      -7.482   6.626  57.916  0.00  0.00     0.081 C 
ATOM     60  O3S SGN d 306      -8.772   7.787  60.645  0.00  0.00    -0.296 OA
ATOM     61  O5S SGN d 306     -10.615   2.041  54.227  0.00  0.00    -0.572 OA
ATOM     62  O3  SGN d 306      -5.297   6.016  57.301  0.00  0.00    -0.391 OA
ATOM     63  H   SGN d 306      -8.567   4.559  53.582  0.00  0.00     0.080 H 
ATOM     64  H   SGN d 306     -10.030   4.516  54.529  0.00  0.00     0.080 H 
ATOM     65  H   SGN d 306      -8.510   6.583  54.828  0.00  0.00     0.090 H 
ATOM     66  H   SGN d 306      -6.418   7.403  56.212  0.00  0.00     0.089 H 
ATOM     67  H   SGN d 306      -9.588   6.873  58.281  0.00  0.00     0.131 H 
ATOM     68  H   SGN d 306      -5.930   9.251  60.649  0.00  0.00     0.231 HD
ATOM     69  H   SGN d 306      -8.397   8.138  56.041  0.00  0.00     0.212 HD
ATOM     70  H   SGN d 306      -6.962   4.453  56.292  0.00  0.00     0.091 H 
ATOM     71  H   SGN d 306      -6.058   7.902  58.503  0.00  0.00     0.140 HD
ATOM     72  H   SGN d 306      -5.689   6.932  60.804  0.00  0.00     0.231 HD
ATOM     73  H   SGN d 306      -7.462   5.732  58.503  0.00  0.00     0.076 H 
ATOM     74  H   SGN d 306      -9.245   8.516  60.212  0.00  0.00     0.231 HD
ATOM     75  H   SGN d 306      -5.452   5.179  57.767  0.00  0.00     0.210 HD
ATOM     76  C1  SGN d 302       6.221  -2.377  55.515  0.00  0.00     0.150 C 
ATOM     77  O4  SGN d 302       8.373  -1.210  52.163  0.00  0.00    -0.348 OA
ATOM     78  O6  SGN d 302       7.996  -4.280  52.185  0.00  0.00    -0.254 OA
ATOM     79  O3S SGN d 302       6.154  -1.692  58.573  0.00  0.00    -0.296 OA
ATOM     80  S2  SGN d 302       7.992  -5.903  51.635  0.00  0.00     0.251 S 
ATOM     81  O5  SGN d 302       6.359  -3.272  54.410  0.00  0.00    -0.349 OA
ATOM     82  O1S SGN d 302       7.178   0.380  58.970  0.00  0.00    -0.296 OA
ATOM     83  O6S SGN d 302       6.726  -6.480  52.000  0.00  0.00    -0.572 OA
ATOM     84  N   SGN d 302       7.309  -0.563  56.572  0.00  0.00    -0.210 NA
ATOM     85  O5S SGN d 302       8.095  -5.868  50.221  0.00  0.00    -0.572 OA
ATOM     86  C4  SGN d 302       8.135  -2.015  53.318  0.00  0.00     0.095 C 
ATOM     87  O3  SGN d 302       9.341  -0.480  54.635  0.00  0.00    -0.391 OA
ATOM     88  C2  SGN d 302       7.566  -1.680  55.714  0.00  0.00     0.081 C 
ATOM     89  O2S SGN d 302       8.428  -1.552  58.632  0.00  0.00    -0.296 OA
ATOM     90  O1  SGN d 302       5.223  -1.384  55.288  0.00  0.00    -0.348 OA
ATOM     91  C5  SGN d 302       6.744  -2.637  53.196  0.00  0.00     0.091 C 
ATOM     92  S1  SGN d 302       7.263  -0.864  58.282  0.00  0.00     0.156 S 
ATOM     93  C6  SGN d 302       6.739  -3.677  52.137  0.00  0.00     0.067 C 
ATOM     94  O4S SGN d 302       9.112  -6.579  52.180  0.00  0.00    -0.572 OA
ATOM     95  C3  SGN d 302       8.055  -1.022  54.440  0.00  0.00     0.083 C 
ATOM     96  H   SGN d 302       5.924  -2.940  56.375  0.00  0.00     0.131 H 
ATOM     97  H   SGN d 302       5.334  -1.229  58.337  0.00  0.00     0.231 HD
ATOM     98  H   SGN d 302       6.363   0.837  58.711  0.00  0.00     0.231 HD
ATOM     99  H   SGN d 302       6.405  -0.174  56.306  0.00  0.00     0.140 HD
ATOM    100  H   SGN d 302       8.875  -2.776  53.449  0.00  0.00     0.091 H 
ATOM    101  H   SGN d 302       9.644  -0.062  53.814  0.00  0.00     0.210 HD
ATOM    102  H   SGN d 302       8.269  -2.404  56.068  0.00  0.00     0.076 H 
ATOM    103  H   SGN d 302       8.424  -1.731  59.585  0.00  0.00     0.231 HD
ATOM    104  H   SGN d 302       6.063  -1.845  52.962  0.00  0.00     0.090 H 
ATOM    105  H   SGN d 302       5.972  -4.399  52.330  0.00  0.00     0.080 H 
ATOM    106  H   SGN d 302       6.543  -3.254  51.174  0.00  0.00     0.080 H 
ATOM    107  H   SGN d 302       7.359  -0.250  54.190  0.00  0.00     0.089 H 
ATOM    108  O2S SGN d 304      -4.084  -1.783  51.240  0.00  0.00    -0.296 OA
ATOM    109  C1  SGN d 304      -1.643   2.050  52.420  0.00  0.00     0.150 C 
ATOM    110  S2  SGN d 304       2.621   3.825  51.438  0.00  0.00     0.251 S 
ATOM    111  O4  SGN d 304       1.342   0.853  55.007  0.00  0.00    -0.348 OA
ATOM    112  C6  SGN d 304       1.437   3.495  53.932  0.00  0.00     0.067 C 
ATOM    113  O4S SGN d 304       3.946   3.632  51.941  0.00  0.00    -0.572 OA
ATOM    114  O1  SGN d 304      -2.501   2.316  53.511  0.00  0.00    -0.348 OA
ATOM    115  O5  SGN d 304      -0.438   2.789  52.546  0.00  0.00    -0.349 OA
ATOM    116  S1  SGN d 304      -3.190  -0.715  50.920  0.00  0.00     0.156 S 
ATOM    117  O5S SGN d 304       2.625   4.838  50.428  0.00  0.00    -0.572 OA
ATOM    118  C3  SGN d 304      -0.617   0.246  53.748  0.00  0.00     0.083 C 
ATOM    119  N   SGN d 304      -2.574  -0.128  52.473  0.00  0.00    -0.210 NA
ATOM    120  O1S SGN d 304      -3.873   0.325  50.201  0.00  0.00    -0.296 OA
ATOM    121  O6  SGN d 304       1.581   4.338  52.786  0.00  0.00    -0.254 OA
ATOM    122  C4  SGN d 304       0.640   1.104  53.805  0.00  0.00     0.095 C 
ATOM    123  C5  SGN d 304       0.247   2.562  53.770  0.00  0.00     0.091 C 
ATOM    124  C2  SGN d 304      -1.326   0.578  52.469  0.00  0.00     0.081 C 
ATOM    125  O6S SGN d 304       2.127   2.595  50.875  0.00  0.00    -0.572 OA
ATOM    126  O3  SGN d 304      -0.306  -1.131  53.736  0.00  0.00    -0.391 OA
ATOM    127  O3S SGN d 304      -2.093  -1.205  50.125  0.00  0.00    -0.296 OA
ATOM    128  H   SGN d 304      -4.818  -1.441  51.775  0.00  0.00     0.231 HD
ATOM    129  H   SGN d 304      -2.110   2.326  51.497  0.00  0.00     0.131 H 
ATOM    130  H   SGN d 304       2.327   2.912  54.053  0.00  0.00     0.080 H 
ATOM    131  H   SGN d 304       1.277   4.110  54.793  0.00  0.00     0.080 H 
ATOM    132  H   SGN d 304      -1.216   0.445  54.612  0.00  0.00     0.089 H 
ATOM    133  H   SGN d 304      -2.465  -0.938  53.084  0.00  0.00     0.140 HD
ATOM    134  H   SGN d 304      -4.612   0.655  50.736  0.00  0.00     0.231 HD
ATOM    135  H   SGN d 304       1.264   0.867  52.969  0.00  0.00     0.091 H 
ATOM    136  H   SGN d 304      -0.391   2.780  54.601  0.00  0.00     0.090 H 
ATOM    137  H   SGN d 304      -0.710   0.312  51.635  0.00  0.00     0.076 H 
ATOM    138  H   SGN d 304       0.238  -1.332  52.958  0.00  0.00     0.210 HD
ATOM    139  H   SGN d 304      -1.632  -1.907  50.610  0.00  0.00     0.231 HD
ATOM    140  O1S UAP d 301       9.163  -2.914  47.982  0.00  0.00    -0.572 OA
ATOM    141  C3  UAP d 301       9.723   0.720  50.441  0.00  0.00     0.086 C 
ATOM    142  O62 UAP d 301      13.064  -1.259  53.022  0.00  0.00    -0.642 OA
ATOM    143  C2  UAP d 301       9.416  -0.710  50.074  0.00  0.00     0.135 C 
ATOM    144  O61 UAP d 301      13.111   0.873  52.694  0.00  0.00    -0.642 OA
ATOM    145  C1  UAP d 301       9.429  -1.609  51.293  0.00  0.00     0.167 C 
ATOM    146  C5  UAP d 301      11.276  -0.262  52.044  0.00  0.00     0.147 C 
ATOM    147  C4  UAP d 301      10.782   0.833  51.429  0.00  0.00    -0.034 C 
ATOM    148  O3S UAP d 301       9.461  -0.808  46.945  0.00  0.00    -0.572 OA
ATOM    149  C6  UAP d 301      12.499  -0.203  52.651  0.00  0.00     0.233 C 
ATOM    150  O5  UAP d 301      10.718  -1.501  51.881  0.00  0.00    -0.311 OA
ATOM    151  O2S UAP d 301      11.242  -2.375  47.122  0.00  0.00    -0.572 OA
ATOM    152  O2  UAP d 301      10.471  -1.155  49.273  0.00  0.00    -0.244 OA
ATOM    153  O3  UAP d 301       8.550   1.352  50.806  0.00  0.00    -0.389 OA
ATOM    154  S   UAP d 301      10.067  -1.849  47.725  0.00  0.00     0.252 S 
ATOM    155  H   UAP d 301      10.119   1.226  49.585  0.00  0.00     0.093 H 
ATOM    156  H   UAP d 301       8.456  -0.746  49.604  0.00  0.00     0.097 H 
ATOM    157  H   UAP d 301       9.259  -2.638  51.054  0.00  0.00     0.134 H 
ATOM    158  H   UAP d 301      11.161   1.763  51.663  0.00  0.00     0.085 H 
ATOM    159  H   UAP d 301       8.172   0.909  51.582  0.00  0.00     0.210 HD
ENDROOT
TORSDOF 50
ENDMDL
MODEL 56
REMARK VINA RESULT:      -6.5      4.072      7.137
REMARK  0 active torsions:
REMARK  status: ('A' for Active; 'I' for Inactive)
REMARK       I    between atoms: C3_1  and  O3_85 
REMARK       I    between atoms: C6_2  and  C5_22 
REMARK       I    between atoms: C6_3  and  C5_14 
REMARK       I    between atoms: C6_3  and  O6_30 
REMARK       I    between atoms: C1_4  and  O1_84 
REMARK       I    between atoms: O2S_6  and  S1_45 
REMARK       I    between atoms: C1_7  and  O1_36 
REMARK       I    between atoms: S1_10  and  N_69 
REMARK       I    between atoms: S1_10  and  O1S_27 
REMARK       I    between atoms: S1_10  and  O2S_71 
REMARK       I    between atoms: S1_10  and  O3S_88 
REMARK       I    between atoms: O4_11  and  C1_42 
REMARK       I    between atoms: O4_11  and  C4_63 
REMARK       I    between atoms: O6_12  and  C6_94 
REMARK       I    between atoms: O6_12  and  S2_28 
REMARK       I    between atoms: C1_13  and  O4_51 
REMARK       I    between atoms: S2_16  and  O6_76 
REMARK       I    between atoms: C3_18  and  O3_103 
REMARK       I    between atoms: C1_19  and  O1_37 
REMARK       I    between atoms: O4_20  and  C1_23 
REMARK       I    between atoms: O4_20  and  C4_77 
REMARK       I    between atoms: O3S_21  and  S1_92 
REMARK       I    between atoms: C3_24  and  O3_87 
REMARK       I    between atoms: O3_25  and  C3_46 
REMARK       I    between atoms: C6_29  and  C5_79 
REMARK       I    between atoms: C6_29  and  O6_76 
REMARK       I    between atoms: O6_30  and  S2_31 
REMARK       I    between atoms: O1_36  and  C4_81 
REMARK       I    between atoms: C2_38  and  O2_72 
REMARK       I    between atoms: S1_45  and  N_74 
REMARK       I    between atoms: S1_45  and  O1S_75 
REMARK       I    between atoms: S1_45  and  O3S_101 
REMARK       I    between atoms: O1S_47  and  S1_92 
REMARK       I    between atoms: S_48  and  O2_91 
REMARK       I    between atoms: C5_49  and  C6_67 
REMARK       I    between atoms: O4_51  and  C4_57 
REMARK       I    between atoms: N_52  and  C2_73 
REMARK       I    between atoms: N_52  and  S1_92 
REMARK       I    between atoms: C5_53  and  C6_61 
REMARK       I    between atoms: C4_56  and  O1_84 
REMARK       I    between atoms: C2_62  and  O2_91 
REMARK       I    between atoms: S_66  and  O2_105 
REMARK       I    between atoms: O3_68  and  C3_102 
REMARK       I    between atoms: N_69  and  C2_83 
REMARK       I    between atoms: C3_70  and  O3_98 
REMARK       I    between atoms: O2_72  and  S_96 
REMARK       I    between atoms: N_74  and  C2_86 
REMARK       I    between atoms: O2S_80  and  S1_92 
REMARK       I    between atoms: C5_89  and  C6_94 
REMARK       I    between atoms: C2_104  and  O2_105 
ROOT
ATOM      1  C3  IDS d 305      -3.811  -3.511  52.816  0.00  0.00     0.094 C 
ATOM      2  O3S IDS d 305      -7.602  -5.712  50.819  0.00  0.00    -0.572 OA
ATOM      3  C1  IDS d 305      -6.181  -2.862  52.802  0.00  0.00     0.161 C 
ATOM      4  O62 IDS d 305      -4.588   0.349  54.528  0.00  0.00    -0.646 OA
ATOM      5  O5  IDS d 305      -5.599  -1.761  53.465  0.00  0.00    -0.340 OA
ATOM      6  O61 IDS d 305      -3.581   0.971  52.649  0.00  0.00    -0.646 OA
ATOM      7  O1S IDS d 305      -5.657  -7.055  50.464  0.00  0.00    -0.572 OA
ATOM      8  C5  IDS d 305      -4.618  -1.140  52.653  0.00  0.00     0.152 C 
ATOM      9  S   IDS d 305      -6.153  -5.715  50.692  0.00  0.00     0.252 S 
ATOM     10  C6  IDS d 305      -4.250   0.174  53.328  0.00  0.00     0.206 C 
ATOM     11  C4  IDS d 305      -3.389  -2.071  52.592  0.00  0.00     0.103 C 
ATOM     12  O3  IDS d 305      -2.864  -4.356  52.248  0.00  0.00    -0.390 OA
ATOM     13  O2S IDS d 305      -5.747  -4.860  49.614  0.00  0.00    -0.572 OA
ATOM     14  C2  IDS d 305      -5.095  -3.677  52.083  0.00  0.00     0.134 C 
ATOM     15  O2  IDS d 305      -5.397  -5.050  52.137  0.00  0.00    -0.244 OA
ATOM     16  H   IDS d 305      -3.907  -3.740  53.857  0.00  0.00     0.091 H 
ATOM     17  H   IDS d 305      -6.681  -3.521  53.481  0.00  0.00     0.133 H 
ATOM     18  H   IDS d 305      -4.969  -0.959  51.658  0.00  0.00     0.104 H 
ATOM     19  H   IDS d 305      -2.950  -1.949  51.624  0.00  0.00     0.092 H 
ATOM     20  H   IDS d 305      -2.775  -4.152  51.304  0.00  0.00     0.210 HD
ATOM     21  H   IDS d 305      -5.034  -3.338  51.070  0.00  0.00     0.097 H 
ATOM     22  C6  IDS d 303       3.825   0.453  56.984  0.00  0.00     0.206 C 
ATOM     23  O61 IDS d 303       4.029   0.474  58.189  0.00  0.00    -0.646 OA
ATOM     24  C5  IDS d 303       2.842   1.405  56.400  0.00  0.00     0.152 C 
ATOM     25  C1  IDS d 303       1.719   1.944  54.393  0.00  0.00     0.161 C 
ATOM     26  O3  IDS d 303       0.717   3.286  56.907  0.00  0.00    -0.390 OA
ATOM     27  O2S IDS d 303       1.226   5.878  53.210  0.00  0.00    -0.572 OA
ATOM     28  O5  IDS d 303       2.845   1.275  54.973  0.00  0.00    -0.340 OA
ATOM     29  C3  IDS d 303       1.888   3.664  56.267  0.00  0.00     0.094 C 
ATOM     30  S   IDS d 303       2.059   4.849  52.712  0.00  0.00     0.252 S 
ATOM     31  C4  IDS d 303       3.097   2.856  56.783  0.00  0.00     0.103 C 
ATOM     32  O1S IDS d 303       3.162   5.346  51.988  0.00  0.00    -0.572 OA
ATOM     33  C2  IDS d 303       1.714   3.418  54.798  0.00  0.00     0.134 C 
ATOM     34  O3S IDS d 303       1.216   4.037  51.916  0.00  0.00    -0.572 OA
ATOM     35  O2  IDS d 303       2.680   4.065  54.099  0.00  0.00    -0.244 OA
ATOM     36  O62 IDS d 303       4.216  -0.428  56.249  0.00  0.00    -0.646 OA
ATOM     37  H   IDS d 303       1.886   1.149  56.806  0.00  0.00     0.104 H 
ATOM     38  H   IDS d 303       1.818   1.883  53.329  0.00  0.00     0.133 H 
ATOM     39  H   IDS d 303      -0.023   3.809  56.563  0.00  0.00     0.210 HD
ATOM     40  H   IDS d 303       2.078   4.698  56.465  0.00  0.00     0.091 H 
ATOM     41  H   IDS d 303       3.212   3.009  57.836  0.00  0.00     0.092 H 
ATOM     42  H   IDS d 303       0.741   3.797  54.564  0.00  0.00     0.097 H 
ATOM     43  C6  SGN d 306      -8.940  -4.025  53.218  0.00  0.00     0.067 C 
ATOM     44  S1  SGN d 306     -11.559   2.219  51.836  0.00  0.00     0.156 S 
ATOM     45  C5  SGN d 306      -9.334  -2.856  52.331  0.00  0.00     0.091 C 
ATOM     46  C3  SGN d 306      -8.674  -0.533  51.695  0.00  0.00     0.083 C 
ATOM     47  C1  SGN d 306     -11.082  -1.212  52.058  0.00  0.00     0.147 C 
ATOM     48  O1S SGN d 306     -11.833   3.109  50.737  0.00  0.00    -0.296 OA
ATOM     49  O6  SGN d 306      -8.448  -3.522  54.458  0.00  0.00    -0.254 OA
ATOM     50  S2  SGN d 306      -8.360  -4.586  55.870  0.00  0.00     0.251 S 
ATOM     51  O4S SGN d 306      -7.012  -5.033  56.082  0.00  0.00    -0.572 OA
ATOM     52  O1  SGN d 306     -11.290  -1.536  50.691  0.00  0.00    -0.369 OA
ATOM     53  O4  SGN d 306      -7.067  -2.301  51.858  0.00  0.00    -0.348 OA
ATOM     54  C4  SGN d 306      -8.259  -1.787  52.448  0.00  0.00     0.095 C 
ATOM     55  N   SGN d 306     -10.472   0.961  51.252  0.00  0.00    -0.210 NA
ATOM     56  O2S SGN d 306     -10.887   2.922  52.891  0.00  0.00    -0.296 OA
ATOM     57  O5  SGN d 306     -10.602  -2.332  52.789  0.00  0.00    -0.350 OA
ATOM     58  O6S SGN d 306      -8.790  -3.828  57.015  0.00  0.00    -0.572 OA
ATOM     59  C2  SGN d 306     -10.056  -0.086  52.161  0.00  0.00     0.081 C 
ATOM     60  O3S SGN d 306     -12.788   1.638  52.310  0.00  0.00    -0.296 OA
ATOM     61  O5S SGN d 306      -9.253  -5.700  55.665  0.00  0.00    -0.572 OA
ATOM     62  O3  SGN d 306      -7.783   0.505  52.079  0.00  0.00    -0.391 OA
ATOM     63  H   SGN d 306      -8.177  -4.600  52.736  0.00  0.00     0.080 H 
ATOM     64  H   SGN d 306      -9.791  -4.650  53.392  0.00  0.00     0.080 H 
ATOM     65  H   SGN d 306      -9.427  -3.165  51.311  0.00  0.00     0.090 H 
ATOM     66  H   SGN d 306      -8.669  -0.727  50.643  0.00  0.00     0.089 H 
ATOM     67  H   SGN d 306     -12.021  -0.907  52.471  0.00  0.00     0.131 H 
ATOM     68  H   SGN d 306     -11.003   3.498  50.421  0.00  0.00     0.231 HD
ATOM     69  H   SGN d 306     -10.451  -1.816  50.293  0.00  0.00     0.212 HD
ATOM     70  H   SGN d 306      -8.109  -1.538  53.477  0.00  0.00     0.091 H 
ATOM     71  H   SGN d 306      -9.625   1.426  50.924  0.00  0.00     0.140 HD
ATOM     72  H   SGN d 306     -10.063   3.305  52.552  0.00  0.00     0.231 HD
ATOM     73  H   SGN d 306     -10.000   0.226  53.183  0.00  0.00     0.076 H 
ATOM     74  H   SGN d 306     -13.225   1.168  51.582  0.00  0.00     0.231 HD
ATOM     75  H   SGN d 306      -7.832   0.634  53.040  0.00  0.00     0.210 HD
ATOM     76  C1  SGN d 302       5.341   3.792  56.902  0.00  0.00     0.150 C 
ATOM     77  O4  SGN d 302       8.245   2.494  54.236  0.00  0.00    -0.348 OA
ATOM     78  O6  SGN d 302       9.009   1.705  57.127  0.00  0.00    -0.254 OA
ATOM     79  O3S SGN d 302       3.613   6.365  57.366  0.00  0.00    -0.296 OA
ATOM     80  S2  SGN d 302       9.835   0.941  58.420  0.00  0.00     0.251 S 
ATOM     81  O5  SGN d 302       6.286   2.799  57.306  0.00  0.00    -0.349 OA
ATOM     82  O1S SGN d 302       3.528   7.657  55.411  0.00  0.00    -0.296 OA
ATOM     83  O6S SGN d 302       8.841   0.424  59.322  0.00  0.00    -0.572 OA
ATOM     84  N   SGN d 302       5.089   5.604  55.404  0.00  0.00    -0.210 NA
ATOM     85  O5S SGN d 302      10.569  -0.141  57.869  0.00  0.00    -0.572 OA
ATOM     86  C4  SGN d 302       7.794   3.142  55.426  0.00  0.00     0.095 C 
ATOM     87  O3  SGN d 302       7.615   5.174  54.251  0.00  0.00    -0.391 OA
ATOM     88  C2  SGN d 302       6.093   4.832  56.074  0.00  0.00     0.081 C 
ATOM     89  O2S SGN d 302       5.379   7.698  56.818  0.00  0.00    -0.296 OA
ATOM     90  O1  SGN d 302       4.289   3.250  56.106  0.00  0.00    -0.348 OA
ATOM     91  C5  SGN d 302       6.943   2.152  56.222  0.00  0.00     0.091 C 
ATOM     92  S1  SGN d 302       4.357   6.905  56.291  0.00  0.00     0.156 S 
ATOM     93  C6  SGN d 302       7.801   1.089  56.801  0.00  0.00     0.067 C 
ATOM     94  O4S SGN d 302      10.725   1.870  59.014  0.00  0.00    -0.572 OA
ATOM     95  C3  SGN d 302       6.855   4.200  54.928  0.00  0.00     0.083 C 
ATOM     96  H   SGN d 302       4.896   4.214  57.779  0.00  0.00     0.131 H 
ATOM     97  H   SGN d 302       2.897   5.811  57.018  0.00  0.00     0.231 HD
ATOM     98  H   SGN d 302       2.828   7.085  55.059  0.00  0.00     0.231 HD
ATOM     99  H   SGN d 302       4.344   4.964  55.129  0.00  0.00     0.140 HD
ATOM    100  H   SGN d 302       8.600   3.509  56.026  0.00  0.00     0.091 H 
ATOM    101  H   SGN d 302       8.097   4.758  53.520  0.00  0.00     0.210 HD
ATOM    102  H   SGN d 302       6.751   5.367  56.725  0.00  0.00     0.076 H 
ATOM    103  H   SGN d 302       4.992   8.433  57.319  0.00  0.00     0.231 HD
ATOM    104  H   SGN d 302       6.222   1.740  55.545  0.00  0.00     0.090 H 
ATOM    105  H   SGN d 302       7.343   0.680  57.679  0.00  0.00     0.080 H 
ATOM    106  H   SGN d 302       7.945   0.282  56.113  0.00  0.00     0.080 H 
ATOM    107  H   SGN d 302       6.136   3.763  54.268  0.00  0.00     0.089 H 
ATOM    108  O2S SGN d 304      -1.215  -5.254  56.848  0.00  0.00    -0.296 OA
ATOM    109  C1  SGN d 304      -1.139  -2.201  53.282  0.00  0.00     0.150 C 
ATOM    110  S2  SGN d 304       2.152  -0.292  50.485  0.00  0.00     0.251 S 
ATOM    111  O4  SGN d 304       0.489   1.312  54.712  0.00  0.00    -0.348 OA
ATOM    112  C6  SGN d 304       0.140   1.009  51.895  0.00  0.00     0.067 C 
ATOM    113  O4S SGN d 304       3.058   0.810  50.581  0.00  0.00    -0.572 OA
ATOM    114  O1  SGN d 304      -2.439  -1.740  53.590  0.00  0.00    -0.348 OA
ATOM    115  O5  SGN d 304      -0.482  -1.289  52.416  0.00  0.00    -0.349 OA
ATOM    116  S1  SGN d 304      -0.716  -4.810  55.584  0.00  0.00     0.156 S 
ATOM    117  O5S SGN d 304       2.272  -0.911  49.200  0.00  0.00    -0.572 OA
ATOM    118  C3  SGN d 304      -0.295  -0.909  55.203  0.00  0.00     0.083 C 
ATOM    119  N   SGN d 304      -1.152  -3.097  55.475  0.00  0.00    -0.210 NA
ATOM    120  O1S SGN d 304      -1.300  -5.568  54.511  0.00  0.00    -0.296 OA
ATOM    121  O6  SGN d 304       0.497   0.324  50.692  0.00  0.00    -0.254 OA
ATOM    122  C4  SGN d 304       0.395  -0.001  54.194  0.00  0.00     0.095 C 
ATOM    123  C5  SGN d 304      -0.420   0.037  52.923  0.00  0.00     0.091 C 
ATOM    124  C2  SGN d 304      -0.387  -2.273  54.585  0.00  0.00     0.081 C 
ATOM    125  O6S SGN d 304       2.448  -1.262  51.508  0.00  0.00    -0.572 OA
ATOM    126  O3  SGN d 304       0.447  -1.016  56.399  0.00  0.00    -0.391 OA
ATOM    127  O3S SGN d 304       0.717  -4.944  55.540  0.00  0.00    -0.296 OA
ATOM    128  H   SGN d 304      -2.181  -5.160  56.866  0.00  0.00     0.231 HD
ATOM    129  H   SGN d 304      -1.182  -3.153  52.794  0.00  0.00     0.131 H 
ATOM    130  H   SGN d 304       1.009   1.485  52.299  0.00  0.00     0.080 H 
ATOM    131  H   SGN d 304      -0.610   1.737  51.666  0.00  0.00     0.080 H 
ATOM    132  H   SGN d 304      -1.255  -0.502  55.441  0.00  0.00     0.089 H 
ATOM    133  H   SGN d 304      -1.065  -2.700  56.410  0.00  0.00     0.140 HD
ATOM    134  H   SGN d 304      -2.265  -5.479  54.541  0.00  0.00     0.231 HD
ATOM    135  H   SGN d 304       1.376  -0.379  53.996  0.00  0.00     0.091 H 
ATOM    136  H   SGN d 304      -1.403   0.400  53.140  0.00  0.00     0.090 H 
ATOM    137  H   SGN d 304       0.596  -2.660  54.416  0.00  0.00     0.076 H 
ATOM    138  H   SGN d 304       1.323  -1.384  56.204  0.00  0.00     0.210 HD
ATOM    139  H   SGN d 304       1.111  -4.432  56.264  0.00  0.00     0.231 HD
ATOM    140  O1S UAP d 301      11.444  -0.788  54.168  0.00  0.00    -0.572 OA
ATOM    141  C3  UAP d 301       9.467   2.223  51.600  0.00  0.00     0.086 C 
ATOM    142  O62 UAP d 301      11.661   5.774  53.674  0.00  0.00    -0.642 OA
ATOM    143  C2  UAP d 301       9.893   1.477  52.839  0.00  0.00     0.135 C 
ATOM    144  O61 UAP d 301      11.103   5.950  51.598  0.00  0.00    -0.642 OA
ATOM    145  C1  UAP d 301       9.649   2.296  54.089  0.00  0.00     0.167 C 
ATOM    146  C5  UAP d 301      10.320   4.189  52.763  0.00  0.00     0.147 C 
ATOM    147  C4  UAP d 301       9.822   3.629  51.640  0.00  0.00    -0.034 C 
ATOM    148  O3S UAP d 301      11.430  -1.052  51.817  0.00  0.00    -0.572 OA
ATOM    149  C6  UAP d 301      11.006   5.368  52.686  0.00  0.00     0.233 C 
ATOM    150  O5  UAP d 301      10.379   3.506  53.948  0.00  0.00    -0.311 OA
ATOM    151  O2S UAP d 301      13.342  -0.230  52.969  0.00  0.00    -0.572 OA
ATOM    152  O2  UAP d 301      11.280   1.324  52.760  0.00  0.00    -0.244 OA
ATOM    153  O3  UAP d 301       8.123   1.992  51.378  0.00  0.00    -0.389 OA
ATOM    154  S   UAP d 301      11.922  -0.289  52.928  0.00  0.00     0.252 S 
ATOM    155  H   UAP d 301      10.011   1.846  50.758  0.00  0.00     0.093 H 
ATOM    156  H   UAP d 301       9.348   0.557  52.893  0.00  0.00     0.097 H 
ATOM    157  H   UAP d 301       9.985   1.807  54.980  0.00  0.00     0.134 H 
ATOM    158  H   UAP d 301       9.693   4.210  50.797  0.00  0.00     0.085 H 
ATOM    159  H   UAP d 301       7.609   2.325  52.130  0.00  0.00     0.210 HD
ENDROOT
TORSDOF 50
ENDMDL
MODEL 57
REMARK VINA RESULT:      -6.5      3.276     16.024
REMARK  0 active torsions:
REMARK  status: ('A' for Active; 'I' for Inactive)
REMARK       I    between atoms: C3_1  and  O3_85 
REMARK       I    between atoms: C6_2  and  C5_22 
REMARK       I    between atoms: C6_3  and  C5_14 
REMARK       I    between atoms: C6_3  and  O6_30 
REMARK       I    between atoms: C1_4  and  O1_84 
REMARK       I    between atoms: O2S_6  and  S1_45 
REMARK       I    between atoms: C1_7  and  O1_36 
REMARK       I    between atoms: S1_10  and  N_69 
REMARK       I    between atoms: S1_10  and  O1S_27 
REMARK       I    between atoms: S1_10  and  O2S_71 
REMARK       I    between atoms: S1_10  and  O3S_88 
REMARK       I    between atoms: O4_11  and  C1_42 
REMARK       I    between atoms: O4_11  and  C4_63 
REMARK       I    between atoms: O6_12  and  C6_94 
REMARK       I    between atoms: O6_12  and  S2_28 
REMARK       I    between atoms: C1_13  and  O4_51 
REMARK       I    between atoms: S2_16  and  O6_76 
REMARK       I    between atoms: C3_18  and  O3_103 
REMARK       I    between atoms: C1_19  and  O1_37 
REMARK       I    between atoms: O4_20  and  C1_23 
REMARK       I    between atoms: O4_20  and  C4_77 
REMARK       I    between atoms: O3S_21  and  S1_92 
REMARK       I    between atoms: C3_24  and  O3_87 
REMARK       I    between atoms: O3_25  and  C3_46 
REMARK       I    between atoms: C6_29  and  C5_79 
REMARK       I    between atoms: C6_29  and  O6_76 
REMARK       I    between atoms: O6_30  and  S2_31 
REMARK       I    between atoms: O1_36  and  C4_81 
REMARK       I    between atoms: C2_38  and  O2_72 
REMARK       I    between atoms: S1_45  and  N_74 
REMARK       I    between atoms: S1_45  and  O1S_75 
REMARK       I    between atoms: S1_45  and  O3S_101 
REMARK       I    between atoms: O1S_47  and  S1_92 
REMARK       I    between atoms: S_48  and  O2_91 
REMARK       I    between atoms: C5_49  and  C6_67 
REMARK       I    between atoms: O4_51  and  C4_57 
REMARK       I    between atoms: N_52  and  C2_73 
REMARK       I    between atoms: N_52  and  S1_92 
REMARK       I    between atoms: C5_53  and  C6_61 
REMARK       I    between atoms: C4_56  and  O1_84 
REMARK       I    between atoms: C2_62  and  O2_91 
REMARK       I    between atoms: S_66  and  O2_105 
REMARK       I    between atoms: O3_68  and  C3_102 
REMARK       I    between atoms: N_69  and  C2_83 
REMARK       I    between atoms: C3_70  and  O3_98 
REMARK       I    between atoms: O2_72  and  S_96 
REMARK       I    between atoms: N_74  and  C2_86 
REMARK       I    between atoms: O2S_80  and  S1_92 
REMARK       I    between atoms: C5_89  and  C6_94 
REMARK       I    between atoms: C2_104  and  O2_105 
ROOT
ATOM      1  C3  IDS d 305       5.539  -3.917  51.253  0.00  0.00     0.094 C 
ATOM      2  O3S IDS d 305       9.177  -6.879  50.163  0.00  0.00    -0.572 OA
ATOM      3  C1  IDS d 305       7.655  -4.313  52.437  0.00  0.00     0.161 C 
ATOM      4  O62 IDS d 305       5.836  -1.918  55.042  0.00  0.00    -0.646 OA
ATOM      5  O5  IDS d 305       7.013  -3.415  53.317  0.00  0.00    -0.340 OA
ATOM      6  O61 IDS d 305       4.333  -3.469  55.556  0.00  0.00    -0.646 OA
ATOM      7  O1S IDS d 305       7.532  -7.012  48.435  0.00  0.00    -0.572 OA
ATOM      8  C5  IDS d 305       5.769  -3.935  53.752  0.00  0.00     0.152 C 
ATOM      9  S   IDS d 305       7.770  -6.718  49.832  0.00  0.00     0.252 S 
ATOM     10  C6  IDS d 305       5.288  -3.040  54.887  0.00  0.00     0.206 C 
ATOM     11  C4  IDS d 305       4.783  -3.870  52.568  0.00  0.00     0.103 C 
ATOM     12  O3  IDS d 305       4.692  -4.390  50.258  0.00  0.00    -0.390 OA
ATOM     13  O2S IDS d 305       6.966  -7.580  50.650  0.00  0.00    -0.572 OA
ATOM     14  C2  IDS d 305       6.636  -4.902  51.450  0.00  0.00     0.134 C 
ATOM     15  O2  IDS d 305       7.227  -5.082  50.186  0.00  0.00    -0.244 OA
ATOM     16  H   IDS d 305       5.908  -2.952  50.972  0.00  0.00     0.091 H 
ATOM     17  H   IDS d 305       8.420  -3.834  51.862  0.00  0.00     0.133 H 
ATOM     18  H   IDS d 305       5.847  -4.948  54.088  0.00  0.00     0.104 H 
ATOM     19  H   IDS d 305       4.126  -4.710  52.659  0.00  0.00     0.092 H 
ATOM     20  H   IDS d 305       4.356  -5.265  50.508  0.00  0.00     0.210 HD
ATOM     21  H   IDS d 305       6.284  -5.833  51.844  0.00  0.00     0.097 H 
ATOM     22  C6  IDS d 303      -1.658   2.133  52.983  0.00  0.00     0.206 C 
ATOM     23  O61 IDS d 303      -1.593   3.347  52.862  0.00  0.00    -0.646 OA
ATOM     24  C5  IDS d 303      -1.053   1.492  54.181  0.00  0.00     0.152 C 
ATOM     25  C1  IDS d 303      -0.538  -0.613  55.124  0.00  0.00     0.161 C 
ATOM     26  O3  IDS d 303       0.684   1.805  56.461  0.00  0.00    -0.390 OA
ATOM     27  O2S IDS d 303      -1.162  -1.364  59.144  0.00  0.00    -0.572 OA
ATOM     28  O5  IDS d 303      -1.341   0.088  54.166  0.00  0.00    -0.340 OA
ATOM     29  C3  IDS d 303      -0.652   1.460  56.604  0.00  0.00     0.094 C 
ATOM     30  S   IDS d 303      -1.846  -1.815  57.991  0.00  0.00     0.252 S 
ATOM     31  C4  IDS d 303      -1.520   2.097  55.498  0.00  0.00     0.103 C 
ATOM     32  O1S IDS d 303      -3.161  -2.240  58.272  0.00  0.00    -0.572 OA
ATOM     33  C2  IDS d 303      -0.757  -0.034  56.522  0.00  0.00     0.134 C 
ATOM     34  O3S IDS d 303      -1.045  -2.856  57.464  0.00  0.00    -0.572 OA
ATOM     35  O2  IDS d 303      -1.967  -0.442  56.977  0.00  0.00    -0.244 OA
ATOM     36  O62 IDS d 303      -2.006   1.383  52.096  0.00  0.00    -0.646 OA
ATOM     37  H   IDS d 303       0.001   1.667  54.125  0.00  0.00     0.104 H 
ATOM     38  H   IDS d 303      -0.853  -1.635  55.125  0.00  0.00     0.133 H 
ATOM     39  H   IDS d 303       1.202   1.391  57.168  0.00  0.00     0.210 HD
ATOM     40  H   IDS d 303      -1.009   1.820  57.546  0.00  0.00     0.091 H 
ATOM     41  H   IDS d 303      -1.430   3.163  55.537  0.00  0.00     0.092 H 
ATOM     42  H   IDS d 303       0.038  -0.404  57.135  0.00  0.00     0.097 H 
ATOM     43  C6  SGN d 306      10.620  -4.596  51.923  0.00  0.00     0.067 C 
ATOM     44  S1  SGN d 306      11.488  -5.667  58.695  0.00  0.00     0.156 S 
ATOM     45  C5  SGN d 306      10.553  -5.388  53.217  0.00  0.00     0.091 C 
ATOM     46  C3  SGN d 306       9.293  -5.585  55.365  0.00  0.00     0.083 C 
ATOM     47  C1  SGN d 306      11.810  -5.790  55.241  0.00  0.00     0.147 C 
ATOM     48  O1S SGN d 306      11.320  -6.677  59.707  0.00  0.00    -0.296 OA
ATOM     49  O6  SGN d 306      10.318  -3.230  52.199  0.00  0.00    -0.254 OA
ATOM     50  S2  SGN d 306      10.769  -1.973  51.036  0.00  0.00     0.251 S 
ATOM     51  O4S SGN d 306       9.627  -1.559  50.270  0.00  0.00    -0.572 OA
ATOM     52  O1  SGN d 306      11.777  -7.201  55.082  0.00  0.00    -0.369 OA
ATOM     53  O4  SGN d 306       8.173  -5.334  53.262  0.00  0.00    -0.348 OA
ATOM     54  C4  SGN d 306       9.329  -4.929  53.993  0.00  0.00     0.095 C 
ATOM     55  N   SGN d 306      10.592  -6.180  57.267  0.00  0.00    -0.210 NA
ATOM     56  O2S SGN d 306      10.931  -4.421  59.137  0.00  0.00    -0.296 OA
ATOM     57  O5  SGN d 306      11.751  -5.125  53.985  0.00  0.00    -0.350 OA
ATOM     58  O6S SGN d 306      11.269  -0.849  51.781  0.00  0.00    -0.572 OA
ATOM     59  C2  SGN d 306      10.617  -5.346  56.083  0.00  0.00     0.081 C 
ATOM     60  O3S SGN d 306      12.886  -5.520  58.381  0.00  0.00    -0.296 OA
ATOM     61  O5S SGN d 306      11.811  -2.488  50.181  0.00  0.00    -0.572 OA
ATOM     62  O3  SGN d 306       8.308  -4.906  56.132  0.00  0.00    -0.391 OA
ATOM     63  H   SGN d 306       9.910  -4.987  51.225  0.00  0.00     0.080 H 
ATOM     64  H   SGN d 306      11.602  -4.672  51.503  0.00  0.00     0.080 H 
ATOM     65  H   SGN d 306      10.483  -6.438  53.020  0.00  0.00     0.090 H 
ATOM     66  H   SGN d 306       9.098  -6.632  55.257  0.00  0.00     0.089 H 
ATOM     67  H   SGN d 306      12.730  -5.533  55.723  0.00  0.00     0.131 H 
ATOM     68  H   SGN d 306      10.377  -6.773  59.915  0.00  0.00     0.231 HD
ATOM     69  H   SGN d 306      10.950  -7.458  54.646  0.00  0.00     0.212 HD
ATOM     70  H   SGN d 306       9.359  -3.867  54.119  0.00  0.00     0.091 H 
ATOM     71  H   SGN d 306       9.615  -6.275  57.545  0.00  0.00     0.140 HD
ATOM     72  H   SGN d 306       9.990  -4.541  59.341  0.00  0.00     0.231 HD
ATOM     73  H   SGN d 306      10.721  -4.303  56.293  0.00  0.00     0.076 H 
ATOM     74  H   SGN d 306      13.242  -6.373  58.085  0.00  0.00     0.231 HD
ATOM     75  H   SGN d 306       8.538  -3.965  56.193  0.00  0.00     0.210 HD
ATOM     76  C1  SGN d 302      -3.828   2.771  55.871  0.00  0.00     0.150 C 
ATOM     77  O4  SGN d 302      -6.904   0.583  54.144  0.00  0.00    -0.348 OA
ATOM     78  O6  SGN d 302      -6.830   3.445  52.973  0.00  0.00    -0.254 OA
ATOM     79  O3S SGN d 302      -2.626   3.207  58.733  0.00  0.00    -0.296 OA
ATOM     80  S2  SGN d 302      -7.170   4.768  51.939  0.00  0.00     0.251 S 
ATOM     81  O5  SGN d 302      -4.429   3.223  54.656  0.00  0.00    -0.349 OA
ATOM     82  O1S SGN d 302      -3.248   1.452  60.158  0.00  0.00    -0.296 OA
ATOM     83  O6S SGN d 302      -5.917   5.385  51.599  0.00  0.00    -0.572 OA
ATOM     84  N   SGN d 302      -4.301   1.492  57.803  0.00  0.00    -0.210 NA
ATOM     85  O5S SGN d 302      -7.761   4.241  50.762  0.00  0.00    -0.572 OA
ATOM     86  C4  SGN d 302      -6.350   1.733  54.783  0.00  0.00     0.095 C 
ATOM     87  O3  SGN d 302      -6.868   0.812  56.887  0.00  0.00    -0.391 OA
ATOM     88  C2  SGN d 302      -4.946   2.243  56.769  0.00  0.00     0.081 C 
ATOM     89  O2S SGN d 302      -4.711   3.188  59.654  0.00  0.00    -0.296 OA
ATOM     90  O1  SGN d 302      -2.886   1.722  55.654  0.00  0.00    -0.348 OA
ATOM     91  C5  SGN d 302      -5.155   2.216  53.961  0.00  0.00     0.091 C 
ATOM     92  S1  SGN d 302      -3.685   2.375  59.166  0.00  0.00     0.156 S 
ATOM     93  C6  SGN d 302      -5.620   2.814  52.685  0.00  0.00     0.067 C 
ATOM     94  O4S SGN d 302      -8.085   5.637  52.585  0.00  0.00    -0.572 OA
ATOM     95  C3  SGN d 302      -5.789   1.199  56.068  0.00  0.00     0.083 C 
ATOM     96  H   SGN d 302      -3.302   3.589  56.316  0.00  0.00     0.131 H 
ATOM     97  H   SGN d 302      -1.903   2.659  58.390  0.00  0.00     0.231 HD
ATOM     98  H   SGN d 302      -2.537   0.901  59.795  0.00  0.00     0.231 HD
ATOM     99  H   SGN d 302      -3.517   0.998  57.379  0.00  0.00     0.140 HD
ATOM    100  H   SGN d 302      -7.064   2.521  54.904  0.00  0.00     0.091 H 
ATOM    101  H   SGN d 302      -7.400   0.143  56.428  0.00  0.00     0.210 HD
ATOM    102  H   SGN d 302      -5.544   3.073  57.082  0.00  0.00     0.076 H 
ATOM    103  H   SGN d 302      -4.389   3.692  60.418  0.00  0.00     0.231 HD
ATOM    104  H   SGN d 302      -4.530   1.366  53.783  0.00  0.00     0.090 H 
ATOM    105  H   SGN d 302      -4.905   3.526  52.327  0.00  0.00     0.080 H 
ATOM    106  H   SGN d 302      -5.737   2.072  51.923  0.00  0.00     0.080 H 
ATOM    107  H   SGN d 302      -5.157   0.361  55.863  0.00  0.00     0.089 H 
ATOM    108  O2S SGN d 304       4.321   0.293  48.642  0.00  0.00    -0.296 OA
ATOM    109  C1  SGN d 304       2.819  -2.775  51.861  0.00  0.00     0.150 C 
ATOM    110  S2  SGN d 304      -1.333  -4.610  53.161  0.00  0.00     0.251 S 
ATOM    111  O4  SGN d 304       0.837  -0.623  54.773  0.00  0.00    -0.348 OA
ATOM    112  C6  SGN d 304       0.616  -3.469  54.782  0.00  0.00     0.067 C 
ATOM    113  O4S SGN d 304      -2.408  -4.200  54.010  0.00  0.00    -0.572 OA
ATOM    114  O1  SGN d 304       4.026  -2.672  52.589  0.00  0.00    -0.348 OA
ATOM    115  O5  SGN d 304       1.810  -3.373  52.660  0.00  0.00    -0.349 OA
ATOM    116  S1  SGN d 304       3.475  -0.782  49.054  0.00  0.00     0.156 S 
ATOM    117  O5S SGN d 304      -1.598  -5.914  52.634  0.00  0.00    -0.572 OA
ATOM    118  C3  SGN d 304       2.162  -0.578  52.766  0.00  0.00     0.083 C 
ATOM    119  N   SGN d 304       3.503  -0.758  50.824  0.00  0.00    -0.210 NA
ATOM    120  O1S SGN d 304       3.956  -2.035  48.540  0.00  0.00    -0.296 OA
ATOM    121  O6  SGN d 304       0.157  -4.655  54.130  0.00  0.00    -0.254 OA
ATOM    122  C4  SGN d 304       1.092  -1.310  53.564  0.00  0.00     0.095 C 
ATOM    123  C5  SGN d 304       1.581  -2.701  53.891  0.00  0.00     0.091 C 
ATOM    124  C2  SGN d 304       2.404  -1.370  51.514  0.00  0.00     0.081 C 
ATOM    125  O6S SGN d 304      -1.185  -3.679  52.073  0.00  0.00    -0.572 OA
ATOM    126  O3  SGN d 304       1.741   0.716  52.395  0.00  0.00    -0.391 OA
ATOM    127  O3S SGN d 304       2.128  -0.560  48.593  0.00  0.00    -0.296 OA
ATOM    128  H   SGN d 304       5.225   0.133  48.957  0.00  0.00     0.231 HD
ATOM    129  H   SGN d 304       2.955  -3.377  50.987  0.00  0.00     0.131 H 
ATOM    130  H   SGN d 304      -0.224  -2.845  55.009  0.00  0.00     0.080 H 
ATOM    131  H   SGN d 304       1.126  -3.746  55.681  0.00  0.00     0.080 H 
ATOM    132  H   SGN d 304       3.043  -0.484  53.366  0.00  0.00     0.089 H 
ATOM    133  H   SGN d 304       3.540   0.219  51.116  0.00  0.00     0.140 HD
ATOM    134  H   SGN d 304       4.862  -2.184  48.849  0.00  0.00     0.231 HD
ATOM    135  H   SGN d 304       0.195  -1.358  52.984  0.00  0.00     0.091 H 
ATOM    136  H   SGN d 304       2.488  -2.638  54.456  0.00  0.00     0.090 H 
ATOM    137  H   SGN d 304       1.513  -1.390  50.923  0.00  0.00     0.076 H 
ATOM    138  H   SGN d 304       0.942   0.652  51.849  0.00  0.00     0.210 HD
ATOM    139  H   SGN d 304       1.804   0.285  48.940  0.00  0.00     0.231 HD
ATOM    140  O1S UAP d 301      -9.269   0.731  50.221  0.00  0.00    -0.572 OA
ATOM    141  C3  UAP d 301      -8.588  -1.775  53.801  0.00  0.00     0.086 C 
ATOM    142  O62 UAP d 301     -10.975   1.120  56.568  0.00  0.00    -0.642 OA
ATOM    143  C2  UAP d 301      -8.564  -0.580  52.882  0.00  0.00     0.135 C 
ATOM    144  O61 UAP d 301     -10.937  -0.987  57.031  0.00  0.00    -0.642 OA
ATOM    145  C1  UAP d 301      -8.231   0.691  53.634  0.00  0.00     0.167 C 
ATOM    146  C5  UAP d 301      -9.562  -0.229  55.416  0.00  0.00     0.147 C 
ATOM    147  C4  UAP d 301      -9.216  -1.489  55.078  0.00  0.00    -0.034 C 
ATOM    148  O3S UAP d 301      -9.716  -1.591  50.151  0.00  0.00    -0.572 OA
ATOM    149  C6  UAP d 301     -10.482  -0.021  56.405  0.00  0.00     0.233 C 
ATOM    150  O5  UAP d 301      -9.214   0.849  54.648  0.00  0.00    -0.311 OA
ATOM    151  O2S UAP d 301     -11.458   0.007  50.411  0.00  0.00    -0.572 OA
ATOM    152  O2  UAP d 301      -9.870  -0.404  52.415  0.00  0.00    -0.244 OA
ATOM    153  O3  UAP d 301      -7.308  -2.284  53.909  0.00  0.00    -0.389 OA
ATOM    154  S   UAP d 301     -10.102  -0.319  50.690  0.00  0.00     0.252 S 
ATOM    155  H   UAP d 301      -9.211  -2.534  53.375  0.00  0.00     0.093 H 
ATOM    156  H   UAP d 301      -7.839  -0.751  52.114  0.00  0.00     0.097 H 
ATOM    157  H   UAP d 301      -8.252   1.562  53.013  0.00  0.00     0.134 H 
ATOM    158  H   UAP d 301      -9.401  -2.261  55.738  0.00  0.00     0.085 H 
ATOM    159  H   UAP d 301      -6.724  -1.611  54.294  0.00  0.00     0.210 HD
ENDROOT
TORSDOF 50
ENDMDL
