REMARK  0 active torsions:
REMARK  status: ('A' for Active; 'I' for Inactive)
REMARK       I    between atoms: C2_2  and  N_68 
REMARK       I    between atoms: C1_3  and  O4_24 
REMARK       I    between atoms: O1S_5  and  S1_58 
REMARK       I    between atoms: O1_6  and  C1_31 
REMARK       I    between atoms: C4_7  and  O4_36 
REMARK       I    between atoms: C1_8  and  O4_37 
REMARK       I    between atoms: O3_9  and  C3_74 
REMARK       I    between atoms: C5_10  and  C6_32 
REMARK       I    between atoms: C2_11  and  N_20 
REMARK       I    between atoms: C6_12  and  C5_53 
REMARK       I    between atoms: S2_14  and  O6_33 
REMARK       I    between atoms: O3S_16  and  S1_51 
REMARK       I    between atoms: S_17  and  O2_44 
REMARK       I    between atoms: N_20  and  S1_58 
REMARK       I    between atoms: O4_24  and  C4_38 
REMARK       I    between atoms: S_25  and  O2_64 
REMARK       I    between atoms: O2S_27  and  S1_51 
REMARK       I    between atoms: C4_28  and  O4_73 
REMARK       I    between atoms: C3_30  and  O3_62 
REMARK       I    between atoms: O6_33  and  C6_63 
REMARK       I    between atoms: O3_35  and  C3_55 
REMARK       I    between atoms: O4_36  and  C1_84 
REMARK       I    between atoms: O4_37  and  C4_54 
REMARK       I    between atoms: C3_39  and  O3_48 
REMARK       I    between atoms: C5_42  and  C6_63 
REMARK       I    between atoms: O2_44  and  C2_61 
REMARK       I    between atoms: O6_45  and  C6_77 
REMARK       I    between atoms: O6_45  and  S2_82 
REMARK       I    between atoms: C5_49  and  C6_76 
REMARK       I    between atoms: S1_51  and  N_68 
REMARK       I    between atoms: S1_51  and  O1S_81 
REMARK       I    between atoms: O2S_52  and  S1_58 
REMARK       I    between atoms: C2_57  and  O2_64 
REMARK       I    between atoms: S1_58  and  O3S_75 
REMARK       I    between atoms: O3_66  and  C3_67 
REMARK       I    between atoms: O2_69  and  C2_79 
REMARK       I    between atoms: O2_69  and  S_72 
REMARK       I    between atoms: C5_70  and  C6_77 
REMARK       I    between atoms: C1_71  and  O4_73 
ROOT
ATOM      1  O2S IDS d 303     132.679   6.467  77.613  0.00  0.00    -0.572 OA
ATOM      2  C6  IDS d 303     136.022  12.625  75.753  0.00  0.00     0.206 C 
ATOM      3  O1S IDS d 303     134.920   6.441  78.439  0.00  0.00    -0.572 OA
ATOM      4  O3S IDS d 303     133.169   7.375  79.785  0.00  0.00    -0.572 OA
ATOM      5  O4  IDS d 303     133.884  10.411  75.440  0.00  0.00    -0.348 OA
ATOM      6  O61 IDS d 303     135.726  13.739  75.371  0.00  0.00    -0.646 OA
ATOM      7  C4  IDS d 303     133.798  11.466  76.410  0.00  0.00     0.103 C 
ATOM      8  C3  IDS d 303     133.084  10.796  77.619  0.00  0.00     0.094 C 
ATOM      9  O62 IDS d 303     136.983  12.087  75.244  0.00  0.00    -0.646 OA
ATOM     10  O3  IDS d 303     132.665  11.817  78.508  0.00  0.00    -0.390 OA
ATOM     11  C5  IDS d 303     135.212  11.924  76.843  0.00  0.00     0.152 C 
ATOM     12  O2  IDS d 303     133.889   8.522  77.779  0.00  0.00    -0.244 OA
ATOM     13  C1  IDS d 303     135.477  10.177  78.509  0.00  0.00     0.161 C 
ATOM     14  S   IDS d 303     133.653   7.121  78.452  0.00  0.00     0.252 S 
ATOM     15  C2  IDS d 303     133.977   9.794  78.402  0.00  0.00     0.134 C 
ATOM     16  O5  IDS d 303     135.944  10.782  77.309  0.00  0.00    -0.340 OA
ATOM     17  H   IDS d 303     133.288  12.328  76.032  0.00  0.00     0.092 H 
ATOM     18  H   IDS d 303     132.264  10.233  77.225  0.00  0.00     0.091 H 
ATOM     19  H   IDS d 303     133.441  12.297  78.837  0.00  0.00     0.210 HD
ATOM     20  H   IDS d 303     135.066  12.653  77.612  0.00  0.00     0.104 H 
ATOM     21  H   IDS d 303     136.064   9.293  78.645  0.00  0.00     0.133 H 
ATOM     22  H   IDS d 303     133.599   9.799  79.403  0.00  0.00     0.097 H 
ATOM     23  C2  SGN d 304     132.781   9.121  73.669  0.00  0.00     0.081 C 
ATOM     24  C1  SGN d 304     133.093  10.517  74.276  0.00  0.00     0.150 C 
ATOM     25  O3  SGN d 304     133.783   7.219  72.568  0.00  0.00    -0.391 OA
ATOM     26  O3S SGN d 304     130.016   7.108  74.585  0.00  0.00    -0.296 OA
ATOM     27  O5S SGN d 304     133.235  13.007  68.945  0.00  0.00    -0.572 OA
ATOM     28  O2S SGN d 304     129.986   9.478  74.229  0.00  0.00    -0.296 OA
ATOM     29  O4S SGN d 304     135.581  12.553  68.787  0.00  0.00    -0.572 OA
ATOM     30  O4  SGN d 304     135.639   8.585  71.418  0.00  0.00    -0.348 OA
ATOM     31  O6  SGN d 304     134.408  12.304  70.884  0.00  0.00    -0.254 OA
ATOM     32  S1  SGN d 304     130.537   8.382  74.985  0.00  0.00     0.156 S 
ATOM     33  C4  SGN d 304     134.639   9.423  72.021  0.00  0.00     0.095 C 
ATOM     34  O6S SGN d 304     134.799  14.483  69.972  0.00  0.00    -0.572 OA
ATOM     35  N   SGN d 304     132.157   8.294  74.715  0.00  0.00    -0.210 NA
ATOM     36  C5  SGN d 304     134.932  10.808  72.686  0.00  0.00     0.091 C 
ATOM     37  C3  SGN d 304     134.078   8.488  73.125  0.00  0.00     0.083 C 
ATOM     38  C6  SGN d 304     135.460  11.887  71.730  0.00  0.00     0.067 C 
ATOM     39  O5  SGN d 304     133.738  11.348  73.310  0.00  0.00    -0.349 OA
ATOM     40  O1S SGN d 304     130.421   8.599  76.400  0.00  0.00    -0.296 OA
ATOM     41  S2  SGN d 304     134.524  13.136  69.567  0.00  0.00     0.251 S 
ATOM     42  H   SGN d 304     132.102   9.202  72.846  0.00  0.00     0.076 H 
ATOM     43  H   SGN d 304     132.162  10.966  74.554  0.00  0.00     0.131 H 
ATOM     44  H   SGN d 304     133.433   6.636  73.260  0.00  0.00     0.210 HD
ATOM     45  H   SGN d 304     130.115   7.005  73.626  0.00  0.00     0.231 HD
ATOM     46  H   SGN d 304     130.082   9.297  73.281  0.00  0.00     0.231 HD
ATOM     47  H   SGN d 304     134.043   9.766  71.201  0.00  0.00     0.091 H 
ATOM     48  H   SGN d 304     132.614   8.538  75.594  0.00  0.00     0.140 HD
ATOM     49  H   SGN d 304     135.700  10.590  73.398  0.00  0.00     0.090 H 
ATOM     50  H   SGN d 304     134.795   8.366  73.909  0.00  0.00     0.089 H 
ATOM     51  H   SGN d 304     135.820  12.722  72.294  0.00  0.00     0.080 H 
ATOM     52  H   SGN d 304     136.262  11.490  71.143  0.00  0.00     0.080 H 
ATOM     53  H   SGN d 304     129.484   8.663  76.642  0.00  0.00     0.231 HD
ATOM     54  O62 IDS d 301     138.656   8.719  84.164  0.00  0.00    -0.646 OA
ATOM     55  O1  IDS d 301     140.135  11.050  88.358  0.00  0.00    -0.368 OA
ATOM     56  C4  IDS d 301     138.957  11.867  84.528  0.00  0.00     0.103 C 
ATOM     57  C5  IDS d 301     139.611  10.627  85.246  0.00  0.00     0.152 C 
ATOM     58  O61 IDS d 301     140.709   8.924  84.000  0.00  0.00    -0.646 OA
ATOM     59  S   IDS d 301     139.983  14.878  88.429  0.00  0.00     0.252 S 
ATOM     60  C3  IDS d 301     138.608  12.979  85.567  0.00  0.00     0.094 C 
ATOM     61  C1  IDS d 301     139.082  11.386  87.498  0.00  0.00     0.158 C 
ATOM     62  C6  IDS d 301     139.656   9.346  84.422  0.00  0.00     0.206 C 
ATOM     63  O5  IDS d 301     138.912  10.386  86.487  0.00  0.00    -0.340 OA
ATOM     64  O4  IDS d 301     138.243  12.283  83.353  0.00  0.00    -0.348 OA
ATOM     65  O3S IDS d 301     139.318  15.229  89.659  0.00  0.00    -0.572 OA
ATOM     66  O1S IDS d 301     141.262  14.261  88.657  0.00  0.00    -0.572 OA
ATOM     67  C2  IDS d 301     139.400  12.778  86.874  0.00  0.00     0.134 C 
ATOM     68  O3  IDS d 301     138.926  14.250  85.021  0.00  0.00    -0.390 OA
ATOM     69  O2  IDS d 301     139.046  13.800  87.787  0.00  0.00    -0.244 OA
ATOM     70  O2S IDS d 301     140.036  15.965  87.486  0.00  0.00    -0.572 OA
ATOM     71  H   IDS d 301     140.233  11.739  89.034  0.00  0.00     0.212 HD
ATOM     72  H   IDS d 301     139.636  11.390  83.853  0.00  0.00     0.092 H 
ATOM     73  H   IDS d 301     140.636  10.887  85.408  0.00  0.00     0.104 H 
ATOM     74  H   IDS d 301     137.562  12.921  85.787  0.00  0.00     0.091 H 
ATOM     75  H   IDS d 301     138.161  11.435  88.040  0.00  0.00     0.133 H 
ATOM     76  H   IDS d 301     140.447  12.822  86.660  0.00  0.00     0.097 H 
ATOM     77  H   IDS d 301     139.875  14.290  84.826  0.00  0.00     0.210 HD
ATOM     78  O1S SGN d 302     139.247  16.683  81.808  0.00  0.00    -0.296 OA
ATOM     79  C2  SGN d 302     138.353  13.058  81.013  0.00  0.00     0.081 C 
ATOM     80  S2  SGN d 302     139.312   7.188  79.746  0.00  0.00     0.251 S 
ATOM     81  N   SGN d 302     138.375  14.447  81.504  0.00  0.00    -0.210 NA
ATOM     82  C4  SGN d 302     136.977  11.185  80.100  0.00  0.00     0.095 C 
ATOM     83  O6  SGN d 302     138.571   8.546  79.969  0.00  0.00    -0.254 OA
ATOM     84  C5  SGN d 302     137.490  10.296  81.279  0.00  0.00     0.091 C 
ATOM     85  O4S SGN d 302     138.305   6.168  79.650  0.00  0.00    -0.572 OA
ATOM     86  O2S SGN d 302     140.810  14.910  81.697  0.00  0.00    -0.296 OA
ATOM     87  S1  SGN d 302     139.606  15.460  81.155  0.00  0.00     0.156 S 
ATOM     88  O5S SGN d 302     140.032   7.352  78.521  0.00  0.00    -0.572 OA
ATOM     89  O6S SGN d 302     140.170   7.031  80.884  0.00  0.00    -0.572 OA
ATOM     90  C6  SGN d 302     137.592   8.796  80.950  0.00  0.00     0.067 C 
ATOM     91  O3  SGN d 302     136.501  13.508  79.567  0.00  0.00    -0.391 OA
ATOM     92  C3  SGN d 302     136.946  12.645  80.600  0.00  0.00     0.083 C 
ATOM     93  O4  SGN d 302     135.649  11.010  79.616  0.00  0.00    -0.348 OA
ATOM     94  O3S SGN d 302     139.628  15.573  79.725  0.00  0.00    -0.296 OA
ATOM     95  C1  SGN d 302     138.889  12.115  82.120  0.00  0.00     0.150 C 
ATOM     96  O5  SGN d 302     138.806  10.746  81.707  0.00  0.00    -0.349 OA
ATOM     97  H   SGN d 302     139.248  16.549  82.769  0.00  0.00     0.231 HD
ATOM     98  H   SGN d 302     138.980  12.988  80.148  0.00  0.00     0.076 H 
ATOM     99  H   SGN d 302     138.328  14.393  82.522  0.00  0.00     0.140 HD
ATOM    100  H   SGN d 302     137.645  10.913  79.310  0.00  0.00     0.091 H 
ATOM    101  H   SGN d 302     136.756  10.406  82.049  0.00  0.00     0.090 H 
ATOM    102  H   SGN d 302     140.736  14.858  82.663  0.00  0.00     0.231 HD
ATOM    103  H   SGN d 302     137.849   8.262  81.841  0.00  0.00     0.080 H 
ATOM    104  H   SGN d 302     136.646   8.472  80.569  0.00  0.00     0.080 H 
ATOM    105  H   SGN d 302     136.486  14.421  79.893  0.00  0.00     0.210 HD
ATOM    106  H   SGN d 302     136.276  12.715  81.431  0.00  0.00     0.089 H 
ATOM    107  H   SGN d 302     138.789  15.950  79.418  0.00  0.00     0.231 HD
ATOM    108  H   SGN d 302     139.914  12.385  82.266  0.00  0.00     0.131 H 
ATOM    109  C1  IDS d 305     135.959   8.793  70.065  0.00  0.00     0.161 C 
ATOM    110  O1S IDS d 305     140.021  10.497  71.214  0.00  0.00    -0.572 OA
ATOM    111  S   IDS d 305     139.454   9.178  71.234  0.00  0.00     0.252 S 
ATOM    112  C4  IDS d 305     136.507   6.702  67.968  0.00  0.00    -0.005 C 
ATOM    113  O61 IDS d 305     133.509   5.180  68.472  0.00  0.00    -0.646 OA
ATOM    114  O3  IDS d 305     138.845   7.267  68.152  0.00  0.00    -0.393 OA
ATOM    115  O62 IDS d 305     133.401   6.865  67.266  0.00  0.00    -0.646 OA
ATOM    116  O2S IDS d 305     138.819   8.882  72.483  0.00  0.00    -0.572 OA
ATOM    117  O2  IDS d 305     138.342   9.215  70.133  0.00  0.00    -0.244 OA
ATOM    118  O5  IDS d 305     134.986   8.191  69.196  0.00  0.00    -0.343 OA
ATOM    119  C5  IDS d 305     135.209   6.809  68.836  0.00  0.00     0.127 C 
ATOM    120  C3  IDS d 305     137.547   7.793  68.352  0.00  0.00     0.069 C 
ATOM    121  C2  IDS d 305     137.381   8.217  69.826  0.00  0.00     0.132 C 
ATOM    122  C6  IDS d 305     133.965   6.255  68.148  0.00  0.00     0.203 C 
ATOM    123  O3S IDS d 305     140.383   8.169  70.817  0.00  0.00    -0.572 OA
ATOM    124  H   IDS d 305     135.947   9.839  69.838  0.00  0.00     0.133 H 
ATOM    125  H   IDS d 305     136.945   5.737  68.117  0.00  0.00     0.041 H 
ATOM    126  H   IDS d 305     136.236   6.846  66.943  0.00  0.00     0.041 H 
ATOM    127  H   IDS d 305     138.947   7.001  67.225  0.00  0.00     0.210 HD
ATOM    128  H   IDS d 305     135.370   6.206  69.705  0.00  0.00     0.100 H 
ATOM    129  H   IDS d 305     137.394   8.656  67.739  0.00  0.00     0.087 H 
ATOM    130  H   IDS d 305     137.521   7.361  70.453  0.00  0.00     0.097 H 
ENDROOT
TORSDOF 39
