MODEL 1
REMARK VINA RESULT:     -10.0      0.000      0.000
REMARK  0 active torsions:
REMARK  status: ('A' for Active; 'I' for Inactive)
REMARK       I    between atoms: C2_2  and  N_68 
REMARK       I    between atoms: C1_3  and  O4_24 
REMARK       I    between atoms: O1S_5  and  S1_58 
REMARK       I    between atoms: O1_6  and  C1_31 
REMARK       I    between atoms: C4_7  and  O4_36 
REMARK       I    between atoms: C1_8  and  O4_37 
REMARK       I    between atoms: O3_9  and  C3_74 
REMARK       I    between atoms: C5_10  and  C6_32 
REMARK       I    between atoms: C2_11  and  N_20 
REMARK       I    between atoms: C6_12  and  C5_53 
REMARK       I    between atoms: S2_14  and  O6_33 
REMARK       I    between atoms: O3S_16  and  S1_51 
REMARK       I    between atoms: S_17  and  O2_44 
REMARK       I    between atoms: N_20  and  S1_58 
REMARK       I    between atoms: O4_24  and  C4_38 
REMARK       I    between atoms: S_25  and  O2_64 
REMARK       I    between atoms: O2S_27  and  S1_51 
REMARK       I    between atoms: C4_28  and  O4_73 
REMARK       I    between atoms: C3_30  and  O3_62 
REMARK       I    between atoms: O6_33  and  C6_63 
REMARK       I    between atoms: O3_35  and  C3_55 
REMARK       I    between atoms: O4_36  and  C1_84 
REMARK       I    between atoms: O4_37  and  C4_54 
REMARK       I    between atoms: C3_39  and  O3_48 
REMARK       I    between atoms: C5_42  and  C6_63 
REMARK       I    between atoms: O2_44  and  C2_61 
REMARK       I    between atoms: O6_45  and  C6_77 
REMARK       I    between atoms: O6_45  and  S2_82 
REMARK       I    between atoms: C5_49  and  C6_76 
REMARK       I    between atoms: S1_51  and  N_68 
REMARK       I    between atoms: S1_51  and  O1S_81 
REMARK       I    between atoms: O2S_52  and  S1_58 
REMARK       I    between atoms: C2_57  and  O2_64 
REMARK       I    between atoms: S1_58  and  O3S_75 
REMARK       I    between atoms: O3_66  and  C3_67 
REMARK       I    between atoms: O2_69  and  C2_79 
REMARK       I    between atoms: O2_69  and  S_72 
REMARK       I    between atoms: C5_70  and  C6_77 
REMARK       I    between atoms: C1_71  and  O4_73 
ROOT
ATOM      1  O2S IDS d 303     132.556   6.354  77.478  0.00  0.00    -0.572 OA
ATOM      2  C6  IDS d 303     136.022  12.418  75.536  0.00  0.00     0.206 C 
ATOM      3  O1S IDS d 303     134.758   6.348  78.405  0.00  0.00    -0.572 OA
ATOM      4  O3S IDS d 303     132.954   7.343  79.633  0.00  0.00    -0.572 OA
ATOM      5  O4  IDS d 303     133.885  10.205  75.212  0.00  0.00    -0.348 OA
ATOM      6  O61 IDS d 303     135.752  13.518  75.098  0.00  0.00    -0.646 OA
ATOM      7  C4  IDS d 303     133.763  11.297  76.135  0.00  0.00     0.103 C 
ATOM      8  C3  IDS d 303     132.991  10.678  77.336  0.00  0.00     0.094 C 
ATOM      9  O62 IDS d 303     137.002  11.856  75.092  0.00  0.00    -0.646 OA
ATOM     10  O3  IDS d 303     132.539  11.735  78.165  0.00  0.00    -0.390 OA
ATOM     11  C5  IDS d 303     135.159  11.764  76.614  0.00  0.00     0.152 C 
ATOM     12  O2  IDS d 303     133.772   8.408  77.619  0.00  0.00    -0.244 OA
ATOM     13  C1  IDS d 303     135.337  10.081  78.356  0.00  0.00     0.161 C 
ATOM     14  S   IDS d 303     133.496   7.035  78.334  0.00  0.00     0.252 S 
ATOM     15  C2  IDS d 303     133.841   9.702  78.196  0.00  0.00     0.134 C 
ATOM     16  O5  IDS d 303     135.862  10.637  77.156  0.00  0.00    -0.340 OA
ATOM     17  H   IDS d 303     133.277  12.146  75.702  0.00  0.00     0.092 H 
ATOM     18  H   IDS d 303     132.185  10.104  76.927  0.00  0.00     0.091 H 
ATOM     19  H   IDS d 303     133.303  12.223  78.510  0.00  0.00     0.210 HD
ATOM     20  H   IDS d 303     134.984  12.523  77.347  0.00  0.00     0.104 H 
ATOM     21  H   IDS d 303     135.911   9.200  78.553  0.00  0.00     0.133 H 
ATOM     22  H   IDS d 303     133.418   9.748  79.178  0.00  0.00     0.097 H 
ATOM     23  C2  SGN d 304     132.854   8.853  73.443  0.00  0.00     0.081 C 
ATOM     24  C1  SGN d 304     133.148  10.270  74.010  0.00  0.00     0.150 C 
ATOM     25  O3  SGN d 304     133.892   6.905  72.463  0.00  0.00    -0.391 OA
ATOM     26  O3S SGN d 304     130.037   6.892  74.310  0.00  0.00    -0.296 OA
ATOM     27  O5S SGN d 304     133.548  12.551  68.599  0.00  0.00    -0.572 OA
ATOM     28  O2S SGN d 304     130.040   9.246  73.862  0.00  0.00    -0.296 OA
ATOM     29  O4S SGN d 304     135.895  12.079  68.565  0.00  0.00    -0.572 OA
ATOM     30  O4  SGN d 304     135.807   8.216  71.346  0.00  0.00    -0.348 OA
ATOM     31  O6  SGN d 304     134.627  11.918  70.615  0.00  0.00    -0.254 OA
ATOM     32  S1  SGN d 304     130.548   8.177  74.684  0.00  0.00     0.156 S 
ATOM     33  C4  SGN d 304     134.787   9.082  71.871  0.00  0.00     0.095 C 
ATOM     34  O6S SGN d 304     135.074  14.058  69.638  0.00  0.00    -0.572 OA
ATOM     35  N   SGN d 304     132.178   8.071  74.491  0.00  0.00    -0.210 NA
ATOM     36  C5  SGN d 304     135.059  10.490  72.495  0.00  0.00     0.091 C 
ATOM     37  C3  SGN d 304     134.170   8.193  72.983  0.00  0.00     0.083 C 
ATOM     38  C6  SGN d 304     135.637  11.528  71.523  0.00  0.00     0.067 C 
ATOM     39  O5  SGN d 304     133.842  11.060  73.043  0.00  0.00    -0.349 OA
ATOM     40  O1S SGN d 304     130.370   8.449  76.083  0.00  0.00    -0.296 OA
ATOM     41  S2  SGN d 304     134.808  12.698  69.273  0.00  0.00     0.251 S 
ATOM     42  H   SGN d 304     132.214   8.906  72.588  0.00  0.00     0.076 H 
ATOM     43  H   SGN d 304     132.209  10.734  74.228  0.00  0.00     0.131 H 
ATOM     44  H   SGN d 304     133.507   6.351  73.160  0.00  0.00     0.210 HD
ATOM     45  H   SGN d 304     130.178   6.751  73.361  0.00  0.00     0.231 HD
ATOM     46  H   SGN d 304     130.177   9.028  72.927  0.00  0.00     0.231 HD
ATOM     47  H   SGN d 304     134.231   9.396  71.012  0.00  0.00     0.091 H 
ATOM     48  H   SGN d 304     132.597   8.346  75.380  0.00  0.00     0.140 HD
ATOM     49  H   SGN d 304     135.793  10.295  73.249  0.00  0.00     0.090 H 
ATOM     50  H   SGN d 304     134.850   8.098  73.803  0.00  0.00     0.089 H 
ATOM     51  H   SGN d 304     135.977  12.383  72.070  0.00  0.00     0.080 H 
ATOM     52  H   SGN d 304     136.462  11.105  70.988  0.00  0.00     0.080 H 
ATOM     53  H   SGN d 304     129.424   8.528  76.279  0.00  0.00     0.231 HD
ATOM     54  O62 IDS d 301     138.248   8.827  84.201  0.00  0.00    -0.646 OA
ATOM     55  O1  IDS d 301     139.553  11.310  88.365  0.00  0.00    -0.368 OA
ATOM     56  C4  IDS d 301     138.554  11.985  84.457  0.00  0.00     0.103 C 
ATOM     57  C5  IDS d 301     139.166  10.770  85.251  0.00  0.00     0.152 C 
ATOM     58  O61 IDS d 301     140.307   9.014  84.123  0.00  0.00    -0.646 OA
ATOM     59  S   IDS d 301     139.424  15.139  88.282  0.00  0.00     0.252 S 
ATOM     60  C3  IDS d 301     138.166  13.138  85.436  0.00  0.00     0.094 C 
ATOM     61  C1  IDS d 301     138.542  11.618  87.446  0.00  0.00     0.158 C 
ATOM     62  C6  IDS d 301     139.239   9.458  84.480  0.00  0.00     0.206 C 
ATOM     63  O5  IDS d 301     138.410  10.581  86.468  0.00  0.00    -0.340 OA
ATOM     64  O4  IDS d 301     137.896  12.359  83.236  0.00  0.00    -0.348 OA
ATOM     65  O3S IDS d 301     138.707  15.541  89.467  0.00  0.00    -0.572 OA
ATOM     66  O1S IDS d 301     140.687  14.524  88.592  0.00  0.00    -0.572 OA
ATOM     67  C2  IDS d 301     138.897  12.983  86.784  0.00  0.00     0.134 C 
ATOM     68  O3  IDS d 301     138.517  14.385  84.857  0.00  0.00    -0.390 OA
ATOM     69  O2  IDS d 301     138.509  14.042  87.640  0.00  0.00    -0.244 OA
ATOM     70  O2S IDS d 301     139.527  16.188  87.302  0.00  0.00    -0.572 OA
ATOM     71  H   IDS d 301     139.625  12.024  89.018  0.00  0.00     0.212 HD
ATOM     72  H   IDS d 301     139.259  11.478  83.833  0.00  0.00     0.092 H 
ATOM     73  H   IDS d 301     140.185  11.031  85.449  0.00  0.00     0.104 H 
ATOM     74  H   IDS d 301     137.111  13.094  85.611  0.00  0.00     0.091 H 
ATOM     75  H   IDS d 301     137.598  11.693  87.944  0.00  0.00     0.133 H 
ATOM     76  H   IDS d 301     139.953  13.014  86.616  0.00  0.00     0.097 H 
ATOM     77  H   IDS d 301     139.474  14.413  84.703  0.00  0.00     0.210 HD
ATOM     78  O1S SGN d 302     139.000  16.690  81.570  0.00  0.00    -0.296 OA
ATOM     79  C2  SGN d 302     138.117  13.042  80.876  0.00  0.00     0.081 C 
ATOM     80  S2  SGN d 302     139.091   7.123  79.879  0.00  0.00     0.251 S 
ATOM     81  N   SGN d 302     138.127  14.449  81.313  0.00  0.00    -0.210 NA
ATOM     82  C4  SGN d 302     136.771  11.142  79.974  0.00  0.00     0.095 C 
ATOM     83  O6  SGN d 302     138.351   8.492  80.016  0.00  0.00    -0.254 OA
ATOM     84  C5  SGN d 302     137.224  10.297  81.208  0.00  0.00     0.091 C 
ATOM     85  O4S SGN d 302     138.083   6.105  79.777  0.00  0.00    -0.572 OA
ATOM     86  O2S SGN d 302     140.554  14.906  81.598  0.00  0.00    -0.296 OA
ATOM     87  S1  SGN d 302     139.379  15.441  80.982  0.00  0.00     0.156 S 
ATOM     88  O5S SGN d 302     139.867   7.235  78.683  0.00  0.00    -0.572 OA
ATOM     89  O6S SGN d 302     139.896   7.005  81.060  0.00  0.00    -0.572 OA
ATOM     90  C6  SGN d 302     137.330   8.785  80.942  0.00  0.00     0.067 C 
ATOM     91  O3  SGN d 302     136.335  13.445  79.331  0.00  0.00    -0.391 OA
ATOM     92  C3  SGN d 302     136.727  12.621  80.415  0.00  0.00     0.083 C 
ATOM     93  O4  SGN d 302     135.465  10.956  79.437  0.00  0.00    -0.348 OA
ATOM     94  O3S SGN d 302     139.466  15.499  79.551  0.00  0.00    -0.296 OA
ATOM     95  C1  SGN d 302     138.596  12.140  82.041  0.00  0.00     0.150 C 
ATOM     96  O5  SGN d 302     138.522  10.756  81.678  0.00  0.00    -0.349 OA
ATOM     97  H   SGN d 302     138.956  16.594  82.535  0.00  0.00     0.231 HD
ATOM     98  H   SGN d 302     138.782  12.935  80.043  0.00  0.00     0.076 H 
ATOM     99  H   SGN d 302     138.033  14.434  82.330  0.00  0.00     0.140 HD
ATOM    100  H   SGN d 302     137.472  10.837  79.226  0.00  0.00     0.091 H 
ATOM    101  H   SGN d 302     136.457  10.440  81.939  0.00  0.00     0.090 H 
ATOM    102  H   SGN d 302     140.436  14.892  82.561  0.00  0.00     0.231 HD
ATOM    103  H   SGN d 302     137.543   8.284  81.863  0.00  0.00     0.080 H 
ATOM    104  H   SGN d 302     136.400   8.451  80.531  0.00  0.00     0.080 H 
ATOM    105  H   SGN d 302     136.312  14.370  79.621  0.00  0.00     0.210 HD
ATOM    106  H   SGN d 302     136.021  12.726  81.212  0.00  0.00     0.089 H 
ATOM    107  H   SGN d 302     138.645  15.868  79.192  0.00  0.00     0.231 HD
ATOM    108  H   SGN d 302     139.615  12.410  82.223  0.00  0.00     0.131 H 
ATOM    109  C1  IDS d 305     136.189   8.370  70.002  0.00  0.00     0.161 C 
ATOM    110  O1S IDS d 305     140.207  10.096  71.268  0.00  0.00    -0.572 OA
ATOM    111  S   IDS d 305     139.631   8.781  71.312  0.00  0.00     0.252 S 
ATOM    112  C4  IDS d 305     136.816   6.196  68.014  0.00  0.00    -0.005 C 
ATOM    113  O61 IDS d 305     133.788   4.711  68.440  0.00  0.00    -0.646 OA
ATOM    114  O3  IDS d 305     139.148   6.756  68.282  0.00  0.00    -0.393 OA
ATOM    115  O62 IDS d 305     133.746   6.348  67.166  0.00  0.00    -0.646 OA
ATOM    116  O2S IDS d 305     138.938   8.537  72.542  0.00  0.00    -0.572 OA
ATOM    117  O2  IDS d 305     138.570   8.782  70.162  0.00  0.00    -0.244 OA
ATOM    118  O5  IDS d 305     135.252   7.740  69.114  0.00  0.00    -0.343 OA
ATOM    119  C5  IDS d 305     135.481   6.344  68.817  0.00  0.00     0.127 C 
ATOM    120  C3  IDS d 305     137.846   7.296  68.402  0.00  0.00     0.069 C 
ATOM    121  C2  IDS d 305     137.616   7.777  69.850  0.00  0.00     0.132 C 
ATOM    122  C6  IDS d 305     134.266   5.770  68.096  0.00  0.00     0.203 C 
ATOM    123  O3S IDS d 305     140.570   7.752  70.977  0.00  0.00    -0.572 OA
ATOM    124  H   IDS d 305     136.195   9.406  69.735  0.00  0.00     0.133 H 
ATOM    125  H   IDS d 305     137.241   5.236  68.219  0.00  0.00     0.041 H 
ATOM    126  H   IDS d 305     136.593   6.302  66.973  0.00  0.00     0.041 H 
ATOM    127  H   IDS d 305     139.290   6.454  67.371  0.00  0.00     0.210 HD
ATOM    128  H   IDS d 305     135.599   5.774  69.715  0.00  0.00     0.100 H 
ATOM    129  H   IDS d 305     137.726   8.135  67.750  0.00  0.00     0.087 H 
ATOM    130  H   IDS d 305     137.722   6.946  70.515  0.00  0.00     0.097 H 
ENDROOT
TORSDOF 39
ENDMDL
MODEL 2
REMARK VINA RESULT:      -8.3      1.513      1.657
REMARK  0 active torsions:
REMARK  status: ('A' for Active; 'I' for Inactive)
REMARK       I    between atoms: C2_2  and  N_68 
REMARK       I    between atoms: C1_3  and  O4_24 
REMARK       I    between atoms: O1S_5  and  S1_58 
REMARK       I    between atoms: O1_6  and  C1_31 
REMARK       I    between atoms: C4_7  and  O4_36 
REMARK       I    between atoms: C1_8  and  O4_37 
REMARK       I    between atoms: O3_9  and  C3_74 
REMARK       I    between atoms: C5_10  and  C6_32 
REMARK       I    between atoms: C2_11  and  N_20 
REMARK       I    between atoms: C6_12  and  C5_53 
REMARK       I    between atoms: S2_14  and  O6_33 
REMARK       I    between atoms: O3S_16  and  S1_51 
REMARK       I    between atoms: S_17  and  O2_44 
REMARK       I    between atoms: N_20  and  S1_58 
REMARK       I    between atoms: O4_24  and  C4_38 
REMARK       I    between atoms: S_25  and  O2_64 
REMARK       I    between atoms: O2S_27  and  S1_51 
REMARK       I    between atoms: C4_28  and  O4_73 
REMARK       I    between atoms: C3_30  and  O3_62 
REMARK       I    between atoms: O6_33  and  C6_63 
REMARK       I    between atoms: O3_35  and  C3_55 
REMARK       I    between atoms: O4_36  and  C1_84 
REMARK       I    between atoms: O4_37  and  C4_54 
REMARK       I    between atoms: C3_39  and  O3_48 
REMARK       I    between atoms: C5_42  and  C6_63 
REMARK       I    between atoms: O2_44  and  C2_61 
REMARK       I    between atoms: O6_45  and  C6_77 
REMARK       I    between atoms: O6_45  and  S2_82 
REMARK       I    between atoms: C5_49  and  C6_76 
REMARK       I    between atoms: S1_51  and  N_68 
REMARK       I    between atoms: S1_51  and  O1S_81 
REMARK       I    between atoms: O2S_52  and  S1_58 
REMARK       I    between atoms: C2_57  and  O2_64 
REMARK       I    between atoms: S1_58  and  O3S_75 
REMARK       I    between atoms: O3_66  and  C3_67 
REMARK       I    between atoms: O2_69  and  C2_79 
REMARK       I    between atoms: O2_69  and  S_72 
REMARK       I    between atoms: C5_70  and  C6_77 
REMARK       I    between atoms: C1_71  and  O4_73 
ROOT
ATOM      1  O2S IDS d 303     130.643   8.230  77.810  0.00  0.00    -0.572 OA
ATOM      2  C6  IDS d 303     135.413  13.228  75.613  0.00  0.00     0.206 C 
ATOM      3  O1S IDS d 303     132.791   7.747  78.736  0.00  0.00    -0.572 OA
ATOM      4  O3S IDS d 303     131.283   9.186  79.921  0.00  0.00    -0.572 OA
ATOM      5  O4  IDS d 303     132.814  11.566  75.383  0.00  0.00    -0.348 OA
ATOM      6  O61 IDS d 303     135.403  14.342  75.130  0.00  0.00    -0.646 OA
ATOM      7  C4  IDS d 303     132.960  12.693  76.260  0.00  0.00     0.103 C 
ATOM      8  C3  IDS d 303     132.077  12.322  77.485  0.00  0.00     0.094 C 
ATOM      9  O62 IDS d 303     136.229  12.434  75.193  0.00  0.00    -0.646 OA
ATOM     10  O3  IDS d 303     131.893  13.489  78.269  0.00  0.00    -0.390 OA
ATOM     11  C5  IDS d 303     134.432  12.839  76.718  0.00  0.00     0.152 C 
ATOM     12  O2  IDS d 303     132.307   9.946  77.864  0.00  0.00    -0.244 OA
ATOM     13  C1  IDS d 303     134.228  11.235  78.530  0.00  0.00     0.161 C 
ATOM     14  S   IDS d 303     131.725   8.706  78.637  0.00  0.00     0.252 S 
ATOM     15  C2  IDS d 303     132.683  11.211  78.386  0.00  0.00     0.134 C 
ATOM     16  O5  IDS d 303     134.856  11.602  77.307  0.00  0.00    -0.340 OA
ATOM     17  H   IDS d 303     132.682  13.614  75.791  0.00  0.00     0.092 H 
ATOM     18  H   IDS d 303     131.155  11.937  77.101  0.00  0.00     0.091 H 
ATOM     19  H   IDS d 303     132.754  13.798  78.593  0.00  0.00     0.210 HD
ATOM     20  H   IDS d 303     134.446  13.648  77.419  0.00  0.00     0.104 H 
ATOM     21  H   IDS d 303     134.582  10.252  78.763  0.00  0.00     0.133 H 
ATOM     22  H   IDS d 303     132.292  11.395  79.365  0.00  0.00     0.097 H 
ATOM     23  C2  SGN d 304     131.478  10.422  73.673  0.00  0.00     0.081 C 
ATOM     24  C1  SGN d 304     132.101  11.752  74.180  0.00  0.00     0.150 C 
ATOM     25  O3  SGN d 304     132.020   8.246  72.776  0.00  0.00    -0.391 OA
ATOM     26  O3S SGN d 304     128.288   9.213  74.622  0.00  0.00    -0.296 OA
ATOM     27  O5S SGN d 304     132.969  13.653  68.677  0.00  0.00    -0.572 OA
ATOM     28  O2S SGN d 304     128.837  11.481  74.075  0.00  0.00    -0.296 OA
ATOM     29  O4S SGN d 304     135.140  12.642  68.663  0.00  0.00    -0.572 OA
ATOM     30  O4  SGN d 304     134.178   9.025  71.605  0.00  0.00    -0.348 OA
ATOM     31  O6  SGN d 304     133.891  12.867  70.718  0.00  0.00    -0.254 OA
ATOM     32  S1  SGN d 304     129.090  10.357  74.942  0.00  0.00     0.156 S 
ATOM     33  C4  SGN d 304     133.394  10.126  72.092  0.00  0.00     0.095 C 
ATOM     34  O6S SGN d 304     134.816  14.801  69.652  0.00  0.00    -0.572 OA
ATOM     35  N   SGN d 304     130.648   9.863  74.753  0.00  0.00    -0.210 NA
ATOM     36  C5  SGN d 304     133.995  11.456  72.656  0.00  0.00     0.091 C 
ATOM     37  C3  SGN d 304     132.598   9.453  73.242  0.00  0.00     0.083 C 
ATOM     38  C6  SGN d 304     134.790  12.289  71.641  0.00  0.00     0.067 C 
ATOM     39  O5  SGN d 304     132.951  12.317  73.180  0.00  0.00    -0.349 OA
ATOM     40  O1S SGN d 304     128.995  10.720  76.328  0.00  0.00    -0.296 OA
ATOM     41  S2  SGN d 304     134.236  13.527  69.345  0.00  0.00     0.251 S 
ATOM     42  H   SGN d 304     130.859  10.588  72.817  0.00  0.00     0.076 H 
ATOM     43  H   SGN d 304     131.299  12.433  74.378  0.00  0.00     0.131 H 
ATOM     44  H   SGN d 304     131.523   7.827  73.496  0.00  0.00     0.210 HD
ATOM     45  H   SGN d 304     128.383   9.004  73.680  0.00  0.00     0.231 HD
ATOM     46  H   SGN d 304     128.911  11.198  73.150  0.00  0.00     0.231 HD
ATOM     47  H   SGN d 304     132.918  10.527  71.221  0.00  0.00     0.091 H 
ATOM     48  H   SGN d 304     131.128  10.069  75.630  0.00  0.00     0.140 HD
ATOM     49  H   SGN d 304     134.670  11.126  73.418  0.00  0.00     0.090 H 
ATOM     50  H   SGN d 304     133.245   9.235  74.065  0.00  0.00     0.089 H 
ATOM     51  H   SGN d 304     135.326  13.062  72.152  0.00  0.00     0.080 H 
ATOM     52  H   SGN d 304     135.487  11.662  71.125  0.00  0.00     0.080 H 
ATOM     53  H   SGN d 304     128.095  11.026  76.521  0.00  0.00     0.231 HD
ATOM     54  O62 IDS d 301     136.822   9.574  84.422  0.00  0.00    -0.646 OA
ATOM     55  O1  IDS d 301     138.714  11.851  88.478  0.00  0.00    -0.368 OA
ATOM     56  C4  IDS d 301     137.862  12.580  84.545  0.00  0.00     0.103 C 
ATOM     57  C5  IDS d 301     138.181  11.289  85.389  0.00  0.00     0.152 C 
ATOM     58  O61 IDS d 301     138.868   9.270  84.336  0.00  0.00    -0.646 OA
ATOM     59  S   IDS d 301     139.485  15.597  88.233  0.00  0.00     0.252 S 
ATOM     60  C3  IDS d 301     137.765  13.831  85.474  0.00  0.00     0.094 C 
ATOM     61  C1  IDS d 301     137.794  12.349  87.546  0.00  0.00     0.158 C 
ATOM     62  C6  IDS d 301     137.937   9.966  84.674  0.00  0.00     0.206 C 
ATOM     63  O5  IDS d 301     137.414  11.332  86.613  0.00  0.00    -0.340 OA
ATOM     64  O4  IDS d 301     137.298  13.047  83.309  0.00  0.00    -0.348 OA
ATOM     65  O3S IDS d 301     138.893  16.203  89.399  0.00  0.00    -0.572 OA
ATOM     66  O1S IDS d 301     140.572  14.716  88.568  0.00  0.00    -0.572 OA
ATOM     67  C2  IDS d 301     138.453  13.565  86.827  0.00  0.00     0.134 C 
ATOM     68  O3  IDS d 301     138.392  14.936  84.842  0.00  0.00    -0.390 OA
ATOM     69  O2  IDS d 301     138.332  14.719  87.638  0.00  0.00    -0.244 OA
ATOM     70  O2S IDS d 301     139.821  16.551  87.209  0.00  0.00    -0.572 OA
ATOM     71  H   IDS d 301     138.958  12.555  89.100  0.00  0.00     0.212 HD
ATOM     72  H   IDS d 301     138.423  11.897  83.942  0.00  0.00     0.092 H 
ATOM     73  H   IDS d 301     139.234  11.312  85.576  0.00  0.00     0.104 H 
ATOM     74  H   IDS d 301     136.730  14.043  85.650  0.00  0.00     0.091 H 
ATOM     75  H   IDS d 301     136.899  12.664  88.040  0.00  0.00     0.133 H 
ATOM     76  H   IDS d 301     139.485  13.340  86.658  0.00  0.00     0.097 H 
ATOM     77  H   IDS d 301     139.328  14.732  84.688  0.00  0.00     0.210 HD
ATOM     78  O1S SGN d 302     139.368  16.927  81.462  0.00  0.00    -0.296 OA
ATOM     79  C2  SGN d 302     137.649  13.562  80.922  0.00  0.00     0.081 C 
ATOM     80  S2  SGN d 302     137.200   7.543  80.176  0.00  0.00     0.251 S 
ATOM     81  N   SGN d 302     137.992  14.944  81.299  0.00  0.00    -0.210 NA
ATOM     82  C4  SGN d 302     135.886  11.996  80.101  0.00  0.00     0.095 C 
ATOM     83  O6  SGN d 302     136.802   9.053  80.255  0.00  0.00    -0.254 OA
ATOM     84  C5  SGN d 302     136.141  11.119  81.370  0.00  0.00     0.091 C 
ATOM     85  O4S SGN d 302     135.980   6.787  80.117  0.00  0.00    -0.572 OA
ATOM     86  O2S SGN d 302     140.462  14.831  81.565  0.00  0.00    -0.296 OA
ATOM     87  S1  SGN d 302     139.439  15.601  80.926  0.00  0.00     0.156 S 
ATOM     88  O5S SGN d 302     137.969   7.422  78.976  0.00  0.00    -0.572 OA
ATOM     89  O6S SGN d 302     137.967   7.289  81.361  0.00  0.00    -0.572 OA
ATOM     90  C6  SGN d 302     135.888   9.614  81.168  0.00  0.00     0.067 C 
ATOM     91  O3  SGN d 302     135.996  14.308  79.361  0.00  0.00    -0.391 OA
ATOM     92  C3  SGN d 302     136.195  13.460  80.480  0.00  0.00     0.083 C 
ATOM     93  O4  SGN d 302     134.568  12.098  79.573  0.00  0.00    -0.348 OA
ATOM     94  O3S SGN d 302     139.523  15.578  79.494  0.00  0.00    -0.296 OA
ATOM     95  C1  SGN d 302     137.915  12.621  82.124  0.00  0.00     0.150 C 
ATOM     96  O5  SGN d 302     137.516  11.280  81.819  0.00  0.00    -0.349 OA
ATOM     97  H   SGN d 302     139.313  16.883  82.429  0.00  0.00     0.231 HD
ATOM     98  H   SGN d 302     138.262  13.269  80.094  0.00  0.00     0.076 H 
ATOM     99  H   SGN d 302     137.908  14.994  82.315  0.00  0.00     0.140 HD
ATOM    100  H   SGN d 302     136.489  11.504  79.367  0.00  0.00     0.091 H 
ATOM    101  H   SGN d 302     135.436  11.468  82.094  0.00  0.00     0.090 H 
ATOM    102  H   SGN d 302     140.353  14.885  82.527  0.00  0.00     0.231 HD
ATOM    103  H   SGN d 302     135.987   9.116  82.109  0.00  0.00     0.080 H 
ATOM    104  H   SGN d 302     134.901   9.492  80.771  0.00  0.00     0.080 H 
ATOM    105  H   SGN d 302     136.193  15.224  79.612  0.00  0.00     0.210 HD
ATOM    106  H   SGN d 302     135.541  13.761  81.271  0.00  0.00     0.089 H 
ATOM    107  H   SGN d 302     138.807  16.114  79.120  0.00  0.00     0.231 HD
ATOM    108  H   SGN d 302     138.971  12.652  82.294  0.00  0.00     0.131 H 
ATOM    109  C1  IDS d 305     134.572   9.029  70.255  0.00  0.00     0.161 C 
ATOM    110  O1S IDS d 305     138.895   9.816  71.446  0.00  0.00    -0.572 OA
ATOM    111  S   IDS d 305     138.027   8.676  71.547  0.00  0.00     0.252 S 
ATOM    112  C4  IDS d 305     134.653   6.690  68.361  0.00  0.00    -0.005 C 
ATOM    113  O61 IDS d 305     131.366   5.974  68.849  0.00  0.00    -0.646 OA
ATOM    114  O3  IDS d 305     137.053   6.698  68.604  0.00  0.00    -0.393 OA
ATOM    115  O62 IDS d 305     131.696   7.522  67.508  0.00  0.00    -0.646 OA
ATOM    116  O2S IDS d 305     137.309   8.652  72.786  0.00  0.00    -0.572 OA
ATOM    117  O2  IDS d 305     136.984   8.878  70.397  0.00  0.00    -0.244 OA
ATOM    118  O5  IDS d 305     133.505   8.601  69.395  0.00  0.00    -0.343 OA
ATOM    119  C5  IDS d 305     133.398   7.179  69.158  0.00  0.00     0.127 C 
ATOM    120  C3  IDS d 305     135.915   7.533  68.702  0.00  0.00     0.069 C 
ATOM    121  C2  IDS d 305     135.819   8.113  70.128  0.00  0.00     0.132 C 
ATOM    122  C6  IDS d 305     132.074   6.877  68.461  0.00  0.00     0.203 C 
ATOM    123  O3S IDS d 305     138.696   7.443  71.255  0.00  0.00    -0.572 OA
ATOM    124  H   IDS d 305     134.817  10.024  69.945  0.00  0.00     0.133 H 
ATOM    125  H   IDS d 305     134.842   5.666  68.607  0.00  0.00     0.041 H 
ATOM    126  H   IDS d 305     134.450   6.802  67.316  0.00  0.00     0.041 H 
ATOM    127  H   IDS d 305     137.111   6.334  67.707  0.00  0.00     0.210 HD
ATOM    128  H   IDS d 305     133.387   6.635  70.079  0.00  0.00     0.100 H 
ATOM    129  H   IDS d 305     135.989   8.349  68.016  0.00  0.00     0.087 H 
ATOM    130  H   IDS d 305     135.734   7.308  70.828  0.00  0.00     0.097 H 
ENDROOT
TORSDOF 39
ENDMDL
MODEL 3
REMARK VINA RESULT:      -8.2      1.191      1.232
REMARK  0 active torsions:
REMARK  status: ('A' for Active; 'I' for Inactive)
REMARK       I    between atoms: C2_2  and  N_68 
REMARK       I    between atoms: C1_3  and  O4_24 
REMARK       I    between atoms: O1S_5  and  S1_58 
REMARK       I    between atoms: O1_6  and  C1_31 
REMARK       I    between atoms: C4_7  and  O4_36 
REMARK       I    between atoms: C1_8  and  O4_37 
REMARK       I    between atoms: O3_9  and  C3_74 
REMARK       I    between atoms: C5_10  and  C6_32 
REMARK       I    between atoms: C2_11  and  N_20 
REMARK       I    between atoms: C6_12  and  C5_53 
REMARK       I    between atoms: S2_14  and  O6_33 
REMARK       I    between atoms: O3S_16  and  S1_51 
REMARK       I    between atoms: S_17  and  O2_44 
REMARK       I    between atoms: N_20  and  S1_58 
REMARK       I    between atoms: O4_24  and  C4_38 
REMARK       I    between atoms: S_25  and  O2_64 
REMARK       I    between atoms: O2S_27  and  S1_51 
REMARK       I    between atoms: C4_28  and  O4_73 
REMARK       I    between atoms: C3_30  and  O3_62 
REMARK       I    between atoms: O6_33  and  C6_63 
REMARK       I    between atoms: O3_35  and  C3_55 
REMARK       I    between atoms: O4_36  and  C1_84 
REMARK       I    between atoms: O4_37  and  C4_54 
REMARK       I    between atoms: C3_39  and  O3_48 
REMARK       I    between atoms: C5_42  and  C6_63 
REMARK       I    between atoms: O2_44  and  C2_61 
REMARK       I    between atoms: O6_45  and  C6_77 
REMARK       I    between atoms: O6_45  and  S2_82 
REMARK       I    between atoms: C5_49  and  C6_76 
REMARK       I    between atoms: S1_51  and  N_68 
REMARK       I    between atoms: S1_51  and  O1S_81 
REMARK       I    between atoms: O2S_52  and  S1_58 
REMARK       I    between atoms: C2_57  and  O2_64 
REMARK       I    between atoms: S1_58  and  O3S_75 
REMARK       I    between atoms: O3_66  and  C3_67 
REMARK       I    between atoms: O2_69  and  C2_79 
REMARK       I    between atoms: O2_69  and  S_72 
REMARK       I    between atoms: C5_70  and  C6_77 
REMARK       I    between atoms: C1_71  and  O4_73 
ROOT
ATOM      1  O2S IDS d 303     131.721   6.241  76.344  0.00  0.00    -0.572 OA
ATOM      2  C6  IDS d 303     135.911  12.018  75.073  0.00  0.00     0.206 C 
ATOM      3  O1S IDS d 303     133.771   6.023  77.551  0.00  0.00    -0.572 OA
ATOM      4  O3S IDS d 303     131.909   7.145  78.564  0.00  0.00    -0.572 OA
ATOM      5  O4  IDS d 303     133.659  10.008  74.399  0.00  0.00    -0.348 OA
ATOM      6  O61 IDS d 303     135.795  13.147  74.640  0.00  0.00    -0.646 OA
ATOM      7  C4  IDS d 303     133.506  11.086  75.334  0.00  0.00     0.103 C 
ATOM      8  C3  IDS d 303     132.531  10.512  76.401  0.00  0.00     0.094 C 
ATOM      9  O62 IDS d 303     136.891  11.382  74.743  0.00  0.00    -0.646 OA
ATOM     10  O3  IDS d 303     132.063  11.586  77.198  0.00  0.00    -0.390 OA
ATOM     11  C5  IDS d 303     134.860  11.419  76.007  0.00  0.00     0.152 C 
ATOM     12  O2  IDS d 303     133.075   8.177  76.711  0.00  0.00    -0.244 OA
ATOM     13  C1  IDS d 303     134.662   9.691  77.701  0.00  0.00     0.161 C 
ATOM     14  S   IDS d 303     132.592   6.818  77.338  0.00  0.00     0.252 S 
ATOM     15  C2  IDS d 303     133.174   9.448  77.334  0.00  0.00     0.134 C 
ATOM     16  O5  IDS d 303     135.387  10.224  76.599  0.00  0.00    -0.340 OA
ATOM     17  H   IDS d 303     133.155  11.984  74.868  0.00  0.00     0.092 H 
ATOM     18  H   IDS d 303     131.743  10.020  75.872  0.00  0.00     0.091 H 
ATOM     19  H   IDS d 303     132.812  11.998  77.657  0.00  0.00     0.210 HD
ATOM     20  H   IDS d 303     134.653  12.175  76.735  0.00  0.00     0.104 H 
ATOM     21  H   IDS d 303     135.129   8.759  77.942  0.00  0.00     0.133 H 
ATOM     22  H   IDS d 303     132.629   9.509  78.253  0.00  0.00     0.097 H 
ATOM     23  C2  SGN d 304     132.764   8.789  72.467  0.00  0.00     0.081 C 
ATOM     24  C1  SGN d 304     133.097  10.163  73.113  0.00  0.00     0.150 C 
ATOM     25  O3  SGN d 304     133.756   6.779  71.568  0.00  0.00    -0.391 OA
ATOM     26  O3S SGN d 304     129.701   7.063  72.892  0.00  0.00    -0.296 OA
ATOM     27  O5S SGN d 304     134.405  12.515  67.879  0.00  0.00    -0.572 OA
ATOM     28  O2S SGN d 304     129.961   9.418  72.526  0.00  0.00    -0.296 OA
ATOM     29  O4S SGN d 304     136.688  11.840  68.138  0.00  0.00    -0.572 OA
ATOM     30  O4  SGN d 304     135.906   7.941  70.756  0.00  0.00    -0.348 OA
ATOM     31  O6  SGN d 304     135.149  11.746  69.997  0.00  0.00    -0.254 OA
ATOM     32  S1  SGN d 304     130.264   8.291  73.372  0.00  0.00     0.156 S 
ATOM     33  C4  SGN d 304     134.901   8.881  71.170  0.00  0.00     0.095 C 
ATOM     34  O6S SGN d 304     135.900  13.860  69.159  0.00  0.00    -0.572 OA
ATOM     35  N   SGN d 304     131.890   8.047  73.391  0.00  0.00    -0.210 NA
ATOM     36  C5  SGN d 304     135.205  10.247  71.870  0.00  0.00     0.091 C 
ATOM     37  C3  SGN d 304     134.069   8.026  72.162  0.00  0.00     0.083 C 
ATOM     38  C6  SGN d 304     135.992  11.251  71.017  0.00  0.00     0.067 C 
ATOM     39  O5  SGN d 304     133.977  10.909  72.272  0.00  0.00    -0.349 OA
ATOM     40  O1S SGN d 304     129.924   8.548  74.743  0.00  0.00    -0.296 OA
ATOM     41  S2  SGN d 304     135.572  12.536  68.718  0.00  0.00     0.251 S 
ATOM     42  H   SGN d 304     132.250   8.916  71.537  0.00  0.00     0.076 H 
ATOM     43  H   SGN d 304     132.179  10.702  73.221  0.00  0.00     0.131 H 
ATOM     44  H   SGN d 304     133.236   6.246  72.190  0.00  0.00     0.210 HD
ATOM     45  H   SGN d 304     129.956   6.931  71.966  0.00  0.00     0.231 HD
ATOM     46  H   SGN d 304     130.203   9.208  71.610  0.00  0.00     0.231 HD
ATOM     47  H   SGN d 304     134.493   9.261  70.257  0.00  0.00     0.091 H 
ATOM     48  H   SGN d 304     132.208   8.265  74.335  0.00  0.00     0.140 HD
ATOM     49  H   SGN d 304     135.812   9.973  72.707  0.00  0.00     0.090 H 
ATOM     50  H   SGN d 304     134.623   7.855  73.061  0.00  0.00     0.089 H 
ATOM     51  H   SGN d 304     136.327  12.060  71.632  0.00  0.00     0.080 H 
ATOM     52  H   SGN d 304     136.843  10.768  70.582  0.00  0.00     0.080 H 
ATOM     53  H   SGN d 304     128.970   8.704  74.816  0.00  0.00     0.231 HD
ATOM     54  O62 IDS d 301     136.650   8.062  83.833  0.00  0.00    -0.646 OA
ATOM     55  O1  IDS d 301     137.591  10.333  88.211  0.00  0.00    -0.368 OA
ATOM     56  C4  IDS d 301     137.183  11.176  84.230  0.00  0.00     0.103 C 
ATOM     57  C5  IDS d 301     137.580   9.895  85.058  0.00  0.00     0.152 C 
ATOM     58  O61 IDS d 301     138.711   8.071  84.032  0.00  0.00    -0.646 OA
ATOM     59  S   IDS d 301     137.796  14.159  88.238  0.00  0.00     0.252 S 
ATOM     60  C3  IDS d 301     136.766  12.337  85.187  0.00  0.00     0.094 C 
ATOM     61  C1  IDS d 301     136.741  10.748  87.178  0.00  0.00     0.158 C 
ATOM     62  C6  IDS d 301     137.645   8.599  84.260  0.00  0.00     0.206 C 
ATOM     63  O5  IDS d 301     136.655   9.747  86.158  0.00  0.00    -0.340 OA
ATOM     64  O4  IDS d 301     136.728  11.631  82.946  0.00  0.00    -0.348 OA
ATOM     65  O3S IDS d 301     136.963  14.597  89.330  0.00  0.00    -0.572 OA
ATOM     66  O1S IDS d 301     138.951  13.431  88.690  0.00  0.00    -0.572 OA
ATOM     67  C2  IDS d 301     137.295  12.091  86.614  0.00  0.00     0.134 C 
ATOM     68  O3  IDS d 301     137.295  13.561  84.700  0.00  0.00    -0.390 OA
ATOM     69  O2  IDS d 301     136.887  13.160  87.446  0.00  0.00    -0.244 OA
ATOM     70  O2S IDS d 301     138.117  15.217  87.314  0.00  0.00    -0.572 OA
ATOM     71  H   IDS d 301     137.635  11.024  88.891  0.00  0.00     0.212 HD
ATOM     72  H   IDS d 301     137.921  10.623  83.687  0.00  0.00     0.092 H 
ATOM     73  H   IDS d 301     138.581  10.062  85.396  0.00  0.00     0.104 H 
ATOM     74  H   IDS d 301     135.697  12.382  85.220  0.00  0.00     0.091 H 
ATOM     75  H   IDS d 301     135.749  10.894  87.550  0.00  0.00     0.133 H 
ATOM     76  H   IDS d 301     138.363  12.032  86.587  0.00  0.00     0.097 H 
ATOM     77  H   IDS d 301     138.263  13.508  84.674  0.00  0.00     0.210 HD
ATOM     78  O1S SGN d 302     138.403  15.885  81.582  0.00  0.00    -0.296 OA
ATOM     79  C2  SGN d 302     137.319  12.343  80.659  0.00  0.00     0.081 C 
ATOM     80  S2  SGN d 302     137.918   6.384  79.606  0.00  0.00     0.251 S 
ATOM     81  N   SGN d 302     137.388  13.734  81.140  0.00  0.00    -0.210 NA
ATOM     82  C4  SGN d 302     135.951  10.588  79.526  0.00  0.00     0.095 C 
ATOM     83  O6  SGN d 302     137.283   7.809  79.689  0.00  0.00    -0.254 OA
ATOM     84  C5  SGN d 302     136.162   9.680  80.781  0.00  0.00     0.091 C 
ATOM     85  O4S SGN d 302     136.850   5.460  79.339  0.00  0.00    -0.572 OA
ATOM     86  O2S SGN d 302     139.785  13.971  81.756  0.00  0.00    -0.296 OA
ATOM     87  S1  SGN d 302     138.752  14.620  81.008  0.00  0.00     0.156 S 
ATOM     88  O5S SGN d 302     138.853   6.454  78.526  0.00  0.00    -0.572 OA
ATOM     89  O6S SGN d 302     138.545   6.171  80.878  0.00  0.00    -0.572 OA
ATOM     90  C6  SGN d 302     136.176   8.170  80.482  0.00  0.00     0.067 C 
ATOM     91  O3  SGN d 302     135.800  12.933  78.908  0.00  0.00    -0.391 OA
ATOM     92  C3  SGN d 302     135.973  12.055  80.007  0.00  0.00     0.083 C 
ATOM     93  O4  SGN d 302     134.717  10.528  78.817  0.00  0.00    -0.348 OA
ATOM     94  O3S SGN d 302     139.034  14.700  79.604  0.00  0.00    -0.296 OA
ATOM     95  C1  SGN d 302     137.561  11.378  81.847  0.00  0.00     0.150 C 
ATOM     96  O5  SGN d 302     137.420  10.014  81.432  0.00  0.00    -0.349 OA
ATOM     97  H   SGN d 302     138.224  15.772  82.529  0.00  0.00     0.231 HD
ATOM     98  H   SGN d 302     138.078  12.196  79.918  0.00  0.00     0.076 H 
ATOM     99  H   SGN d 302     137.159  13.706  82.134  0.00  0.00     0.140 HD
ATOM    100  H   SGN d 302     136.717  10.238  78.867  0.00  0.00     0.091 H 
ATOM    101  H   SGN d 302     135.319   9.874  81.410  0.00  0.00     0.090 H 
ATOM    102  H   SGN d 302     139.539  13.947  82.694  0.00  0.00     0.231 HD
ATOM    103  H   SGN d 302     136.221   7.634  81.407  0.00  0.00     0.080 H 
ATOM    104  H   SGN d 302     135.285   7.928  79.942  0.00  0.00     0.080 H 
ATOM    105  H   SGN d 302     135.815  13.850  79.222  0.00  0.00     0.210 HD
ATOM    106  H   SGN d 302     135.178  12.205  80.707  0.00  0.00     0.089 H 
ATOM    107  H   SGN d 302     138.302  15.147  79.152  0.00  0.00     0.231 HD
ATOM    108  H   SGN d 302     138.566  11.554  82.170  0.00  0.00     0.131 H 
ATOM    109  C1  IDS d 305     136.476   8.089  69.479  0.00  0.00     0.161 C 
ATOM    110  O1S IDS d 305     140.419   9.430  71.317  0.00  0.00    -0.572 OA
ATOM    111  S   IDS d 305     139.734   8.171  71.243  0.00  0.00     0.252 S 
ATOM    112  C4  IDS d 305     137.179   5.912  67.521  0.00  0.00    -0.005 C 
ATOM    113  O61 IDS d 305     134.007   4.688  67.497  0.00  0.00    -0.646 OA
ATOM    114  O3  IDS d 305     139.492   6.260  68.110  0.00  0.00    -0.393 OA
ATOM    115  O62 IDS d 305     134.273   6.350  66.283  0.00  0.00    -0.646 OA
ATOM    116  O2S IDS d 305     138.865   7.962  72.362  0.00  0.00    -0.572 OA
ATOM    117  O2  IDS d 305     138.840   8.288  69.963  0.00  0.00    -0.244 OA
ATOM    118  O5  IDS d 305     135.616   7.563  68.456  0.00  0.00    -0.343 OA
ATOM    119  C5  IDS d 305     135.765   6.159  68.147  0.00  0.00     0.127 C 
ATOM    120  C3  IDS d 305     138.235   6.909  68.077  0.00  0.00     0.069 C 
ATOM    121  C2  IDS d 305     137.856   7.378  69.497  0.00  0.00     0.132 C 
ATOM    122  C6  IDS d 305     134.613   5.709  67.253  0.00  0.00     0.203 C 
ATOM    123  O3S IDS d 305     140.620   7.071  71.000  0.00  0.00    -0.572 OA
ATOM    124  H   IDS d 305     136.604   9.127  69.249  0.00  0.00     0.133 H 
ATOM    125  H   IDS d 305     137.490   4.914  67.749  0.00  0.00     0.041 H 
ATOM    126  H   IDS d 305     137.106   6.059  66.464  0.00  0.00     0.041 H 
ATOM    127  H   IDS d 305     139.728   5.966  67.217  0.00  0.00     0.210 HD
ATOM    128  H   IDS d 305     135.714   5.562  69.033  0.00  0.00     0.100 H 
ATOM    129  H   IDS d 305     138.275   7.770  67.443  0.00  0.00     0.087 H 
ATOM    130  H   IDS d 305     137.802   6.526  70.142  0.00  0.00     0.097 H 
ENDROOT
TORSDOF 39
ENDMDL
MODEL 4
REMARK VINA RESULT:      -7.2      3.192      5.106
REMARK  0 active torsions:
REMARK  status: ('A' for Active; 'I' for Inactive)
REMARK       I    between atoms: C2_2  and  N_68 
REMARK       I    between atoms: C1_3  and  O4_24 
REMARK       I    between atoms: O1S_5  and  S1_58 
REMARK       I    between atoms: O1_6  and  C1_31 
REMARK       I    between atoms: C4_7  and  O4_36 
REMARK       I    between atoms: C1_8  and  O4_37 
REMARK       I    between atoms: O3_9  and  C3_74 
REMARK       I    between atoms: C5_10  and  C6_32 
REMARK       I    between atoms: C2_11  and  N_20 
REMARK       I    between atoms: C6_12  and  C5_53 
REMARK       I    between atoms: S2_14  and  O6_33 
REMARK       I    between atoms: O3S_16  and  S1_51 
REMARK       I    between atoms: S_17  and  O2_44 
REMARK       I    between atoms: N_20  and  S1_58 
REMARK       I    between atoms: O4_24  and  C4_38 
REMARK       I    between atoms: S_25  and  O2_64 
REMARK       I    between atoms: O2S_27  and  S1_51 
REMARK       I    between atoms: C4_28  and  O4_73 
REMARK       I    between atoms: C3_30  and  O3_62 
REMARK       I    between atoms: O6_33  and  C6_63 
REMARK       I    between atoms: O3_35  and  C3_55 
REMARK       I    between atoms: O4_36  and  C1_84 
REMARK       I    between atoms: O4_37  and  C4_54 
REMARK       I    between atoms: C3_39  and  O3_48 
REMARK       I    between atoms: C5_42  and  C6_63 
REMARK       I    between atoms: O2_44  and  C2_61 
REMARK       I    between atoms: O6_45  and  C6_77 
REMARK       I    between atoms: O6_45  and  S2_82 
REMARK       I    between atoms: C5_49  and  C6_76 
REMARK       I    between atoms: S1_51  and  N_68 
REMARK       I    between atoms: S1_51  and  O1S_81 
REMARK       I    between atoms: O2S_52  and  S1_58 
REMARK       I    between atoms: C2_57  and  O2_64 
REMARK       I    between atoms: S1_58  and  O3S_75 
REMARK       I    between atoms: O3_66  and  C3_67 
REMARK       I    between atoms: O2_69  and  C2_79 
REMARK       I    between atoms: O2_69  and  S_72 
REMARK       I    between atoms: C5_70  and  C6_77 
REMARK       I    between atoms: C1_71  and  O4_73 
ROOT
ATOM      1  O2S IDS d 303     129.670  14.255  75.638  0.00  0.00    -0.572 OA
ATOM      2  C6  IDS d 303     136.558  12.035  76.068  0.00  0.00     0.206 C 
ATOM      3  O1S IDS d 303     129.937  12.843  77.546  0.00  0.00    -0.572 OA
ATOM      4  O3S IDS d 303     130.306  15.203  77.754  0.00  0.00    -0.572 OA
ATOM      5  O4  IDS d 303     134.058  13.089  74.582  0.00  0.00    -0.348 OA
ATOM      6  O61 IDS d 303     137.642  12.347  75.620  0.00  0.00    -0.646 OA
ATOM      7  C4  IDS d 303     134.915  13.919  75.381  0.00  0.00     0.103 C 
ATOM      8  C3  IDS d 303     133.944  14.971  75.989  0.00  0.00     0.094 C 
ATOM      9  O62 IDS d 303     136.295  10.853  76.146  0.00  0.00    -0.646 OA
ATOM     10  O3  IDS d 303     134.718  16.023  76.538  0.00  0.00    -0.390 OA
ATOM     11  C5  IDS d 303     135.557  13.097  76.524  0.00  0.00     0.152 C 
ATOM     12  O2  IDS d 303     131.864  13.846  76.493  0.00  0.00    -0.244 OA
ATOM     13  C1  IDS d 303     133.654  13.325  78.016  0.00  0.00     0.161 C 
ATOM     14  S   IDS d 303     130.357  14.052  76.890  0.00  0.00     0.252 S 
ATOM     15  C2  IDS d 303     133.018  14.405  77.101  0.00  0.00     0.134 C 
ATOM     16  O5  IDS d 303     134.515  12.464  77.279  0.00  0.00    -0.340 OA
ATOM     17  H   IDS d 303     135.714  14.348  74.812  0.00  0.00     0.092 H 
ATOM     18  H   IDS d 303     133.305  15.302  75.197  0.00  0.00     0.091 H 
ATOM     19  H   IDS d 303     135.278  15.675  77.249  0.00  0.00     0.210 HD
ATOM     20  H   IDS d 303     136.118  13.792  77.112  0.00  0.00     0.104 H 
ATOM     21  H   IDS d 303     132.886  12.701  78.422  0.00  0.00     0.133 H 
ATOM     22  H   IDS d 303     132.797  15.237  77.737  0.00  0.00     0.097 H 
ATOM     23  C2  SGN d 304     132.874  12.760  72.459  0.00  0.00     0.081 C 
ATOM     24  C1  SGN d 304     134.193  13.157  73.178  0.00  0.00     0.150 C 
ATOM     25  O3  SGN d 304     131.387  10.907  72.022  0.00  0.00    -0.391 OA
ATOM     26  O3S SGN d 304     130.261  15.015  71.670  0.00  0.00    -0.296 OA
ATOM     27  O5S SGN d 304     137.460  10.867  68.851  0.00  0.00    -0.572 OA
ATOM     28  O2S SGN d 304     132.610  15.427  71.424  0.00  0.00    -0.296 OA
ATOM     29  O4S SGN d 304     137.484   8.754  69.977  0.00  0.00    -0.572 OA
ATOM     30  O4  SGN d 304     133.238   9.118  72.102  0.00  0.00    -0.348 OA
ATOM     31  O6  SGN d 304     136.698  10.746  71.095  0.00  0.00    -0.254 OA
ATOM     32  S1  SGN d 304     131.533  15.104  72.326  0.00  0.00     0.156 S 
ATOM     33  C4  SGN d 304     133.770  10.453  72.091  0.00  0.00     0.095 C 
ATOM     34  O6S SGN d 304     139.026  10.477  70.605  0.00  0.00    -0.572 OA
ATOM     35  N   SGN d 304     131.793  13.616  72.975  0.00  0.00    -0.210 NA
ATOM     36  C5  SGN d 304     135.066  10.893  72.849  0.00  0.00     0.091 C 
ATOM     37  C3  SGN d 304     132.587  11.261  72.686  0.00  0.00     0.083 C 
ATOM     38  C6  SGN d 304     136.359  10.224  72.364  0.00  0.00     0.067 C 
ATOM     39  O5  SGN d 304     135.269  12.326  72.741  0.00  0.00    -0.349 OA
ATOM     40  O1S SGN d 304     131.503  15.988  73.457  0.00  0.00    -0.296 OA
ATOM     41  S2  SGN d 304     137.730  10.166  70.076  0.00  0.00     0.251 S 
ATOM     42  H   SGN d 304     132.953  12.907  71.402  0.00  0.00     0.076 H 
ATOM     43  H   SGN d 304     134.411  14.172  72.920  0.00  0.00     0.131 H 
ATOM     44  H   SGN d 304     130.649  11.413  72.396  0.00  0.00     0.210 HD
ATOM     45  H   SGN d 304     130.328  14.410  70.915  0.00  0.00     0.231 HD
ATOM     46  H   SGN d 304     132.599  14.811  70.675  0.00  0.00     0.231 HD
ATOM     47  H   SGN d 304     134.118  10.597  71.089  0.00  0.00     0.091 H 
ATOM     48  H   SGN d 304     131.979  13.758  73.968  0.00  0.00     0.140 HD
ATOM     49  H   SGN d 304     134.888  10.582  73.857  0.00  0.00     0.090 H 
ATOM     50  H   SGN d 304     132.482  11.053  73.730  0.00  0.00     0.089 H 
ATOM     51  H   SGN d 304     137.149  10.424  73.057  0.00  0.00     0.080 H 
ATOM     52  H   SGN d 304     136.215   9.165  72.294  0.00  0.00     0.080 H 
ATOM     53  H   SGN d 304     131.352  16.897  73.155  0.00  0.00     0.231 HD
ATOM     54  O62 IDS d 301     131.961  13.312  84.445  0.00  0.00    -0.646 OA
ATOM     55  O1  IDS d 301     133.850  14.845  88.838  0.00  0.00    -0.368 OA
ATOM     56  C4  IDS d 301     135.014  14.014  85.006  0.00  0.00     0.103 C 
ATOM     57  C5  IDS d 301     133.823  13.553  85.928  0.00  0.00     0.152 C 
ATOM     58  O61 IDS d 301     132.570  11.594  85.427  0.00  0.00    -0.646 OA
ATOM     59  S   IDS d 301     137.523  15.931  88.927  0.00  0.00     0.252 S 
ATOM     60  C3  IDS d 301     135.867  15.109  85.722  0.00  0.00     0.094 C 
ATOM     61  C1  IDS d 301     134.111  15.342  87.554  0.00  0.00     0.158 C 
ATOM     62  C6  IDS d 301     132.716  12.778  85.223  0.00  0.00     0.206 C 
ATOM     63  O5  IDS d 301     133.266  14.713  86.584  0.00  0.00    -0.340 OA
ATOM     64  O4  IDS d 301     135.466  14.088  83.645  0.00  0.00    -0.348 OA
ATOM     65  O3S IDS d 301     137.549  17.200  89.609  0.00  0.00    -0.572 OA
ATOM     66  O1S IDS d 301     137.129  14.853  89.794  0.00  0.00    -0.572 OA
ATOM     67  C2  IDS d 301     135.618  15.092  87.243  0.00  0.00     0.134 C 
ATOM     68  O3  IDS d 301     137.244  14.871  85.473  0.00  0.00    -0.390 OA
ATOM     69  O2  IDS d 301     136.401  16.104  87.848  0.00  0.00    -0.244 OA
ATOM     70  O2S IDS d 301     138.734  15.659  88.195  0.00  0.00    -0.572 OA
ATOM     71  H   IDS d 301     134.432  15.283  89.479  0.00  0.00     0.212 HD
ATOM     72  H   IDS d 301     134.783  12.992  84.794  0.00  0.00     0.092 H 
ATOM     73  H   IDS d 301     134.242  12.861  86.627  0.00  0.00     0.104 H 
ATOM     74  H   IDS d 301     135.580  16.067  85.338  0.00  0.00     0.091 H 
ATOM     75  H   IDS d 301     133.902  16.390  87.512  0.00  0.00     0.133 H 
ATOM     76  H   IDS d 301     135.890  14.134  87.633  0.00  0.00     0.097 H 
ATOM     77  H   IDS d 301     137.490  14.002  85.825  0.00  0.00     0.210 HD
ATOM     78  O1S SGN d 302     140.161  13.524  83.020  0.00  0.00    -0.296 OA
ATOM     79  C2  SGN d 302     136.600  12.967  81.762  0.00  0.00     0.081 C 
ATOM     80  S2  SGN d 302     131.282  10.106  81.046  0.00  0.00     0.251 S 
ATOM     81  N   SGN d 302     137.876  13.540  82.227  0.00  0.00    -0.210 NA
ATOM     82  C4  SGN d 302     134.667  13.167  80.195  0.00  0.00     0.095 C 
ATOM     83  O6  SGN d 302     132.426  11.157  80.871  0.00  0.00    -0.254 OA
ATOM     84  C5  SGN d 302     133.718  13.146  81.437  0.00  0.00     0.091 C 
ATOM     85  O4S SGN d 302     130.119  10.635  80.390  0.00  0.00    -0.572 OA
ATOM     86  O2S SGN d 302     138.751  11.758  83.723  0.00  0.00    -0.296 OA
ATOM     87  S1  SGN d 302     139.143  12.595  82.631  0.00  0.00     0.156 S 
ATOM     88  O5S SGN d 302     131.766   8.918  80.413  0.00  0.00    -0.572 OA
ATOM     89  O6S SGN d 302     131.115   9.957  82.462  0.00  0.00    -0.572 OA
ATOM     90  C6  SGN d 302     132.333  12.529  81.172  0.00  0.00     0.067 C 
ATOM     91  O3  SGN d 302     136.914  13.840  79.557  0.00  0.00    -0.391 OA
ATOM     92  C3  SGN d 302     136.000  13.805  80.640  0.00  0.00     0.083 C 
ATOM     93  O4  SGN d 302     134.323  13.961  79.063  0.00  0.00    -0.348 OA
ATOM     94  O3S SGN d 302     139.478  11.860  81.445  0.00  0.00    -0.296 OA
ATOM     95  C1  SGN d 302     135.615  12.877  82.955  0.00  0.00     0.150 C 
ATOM     96  O5  SGN d 302     134.335  12.400  82.523  0.00  0.00    -0.349 OA
ATOM     97  H   SGN d 302     139.883  13.991  83.824  0.00  0.00     0.231 HD
ATOM     98  H   SGN d 302     136.784  11.987  81.374  0.00  0.00     0.076 H 
ATOM     99  H   SGN d 302     137.657  14.095  83.055  0.00  0.00     0.140 HD
ATOM    100  H   SGN d 302     134.651  12.143  79.885  0.00  0.00     0.091 H 
ATOM    101  H   SGN d 302     133.568  14.175  81.689  0.00  0.00     0.090 H 
ATOM    102  H   SGN d 302     138.538  12.308  84.492  0.00  0.00     0.231 HD
ATOM    103  H   SGN d 302     131.726  12.654  82.044  0.00  0.00     0.080 H 
ATOM    104  H   SGN d 302     131.901  13.028  80.330  0.00  0.00     0.080 H 
ATOM    105  H   SGN d 302     137.746  14.243  79.849  0.00  0.00     0.210 HD
ATOM    106  H   SGN d 302     135.814  14.803  80.977  0.00  0.00     0.089 H 
ATOM    107  H   SGN d 302     139.734  12.478  80.744  0.00  0.00     0.231 HD
ATOM    108  H   SGN d 302     136.046  12.178  83.641  0.00  0.00     0.131 H 
ATOM    109  C1  IDS d 305     133.709   8.202  71.145  0.00  0.00     0.161 C 
ATOM    110  O1S IDS d 305     135.946   5.884  74.362  0.00  0.00    -0.572 OA
ATOM    111  S   IDS d 305     134.557   6.040  74.033  0.00  0.00     0.252 S 
ATOM    112  C4  IDS d 305     132.109   6.157  69.620  0.00  0.00    -0.005 C 
ATOM    113  O61 IDS d 305     129.992   8.508  68.374  0.00  0.00    -0.646 OA
ATOM    114  O3  IDS d 305     133.066   4.474  71.059  0.00  0.00    -0.393 OA
ATOM    115  O62 IDS d 305     131.793   8.375  67.352  0.00  0.00    -0.646 OA
ATOM    116  O2S IDS d 305     133.957   7.139  74.729  0.00  0.00    -0.572 OA
ATOM    117  O2  IDS d 305     134.555   6.387  72.507  0.00  0.00    -0.244 OA
ATOM    118  O5  IDS d 305     133.078   8.401  69.871  0.00  0.00    -0.343 OA
ATOM    119  C5  IDS d 305     131.835   7.698  69.649  0.00  0.00     0.127 C 
ATOM    120  C3  IDS d 305     133.302   5.768  70.539  0.00  0.00     0.069 C 
ATOM    121  C2  IDS d 305     133.454   6.774  71.699  0.00  0.00     0.132 C 
ATOM    122  C6  IDS d 305     131.171   8.225  68.380  0.00  0.00     0.203 C 
ATOM    123  O3S IDS d 305     133.817   4.819  74.157  0.00  0.00    -0.572 OA
ATOM    124  H   IDS d 305     134.757   8.346  70.979  0.00  0.00     0.133 H 
ATOM    125  H   IDS d 305     131.231   5.643  69.955  0.00  0.00     0.041 H 
ATOM    126  H   IDS d 305     132.356   5.880  68.617  0.00  0.00     0.041 H 
ATOM    127  H   IDS d 305     132.971   3.844  70.328  0.00  0.00     0.210 HD
ATOM    128  H   IDS d 305     131.145   7.873  70.448  0.00  0.00     0.100 H 
ATOM    129  H   IDS d 305     134.206   5.783  69.966  0.00  0.00     0.087 H 
ATOM    130  H   IDS d 305     132.553   6.779  72.276  0.00  0.00     0.097 H 
ENDROOT
TORSDOF 39
ENDMDL
MODEL 5
REMARK VINA RESULT:      -7.1      3.277     13.821
REMARK  0 active torsions:
REMARK  status: ('A' for Active; 'I' for Inactive)
REMARK       I    between atoms: C2_2  and  N_68 
REMARK       I    between atoms: C1_3  and  O4_24 
REMARK       I    between atoms: O1S_5  and  S1_58 
REMARK       I    between atoms: O1_6  and  C1_31 
REMARK       I    between atoms: C4_7  and  O4_36 
REMARK       I    between atoms: C1_8  and  O4_37 
REMARK       I    between atoms: O3_9  and  C3_74 
REMARK       I    between atoms: C5_10  and  C6_32 
REMARK       I    between atoms: C2_11  and  N_20 
REMARK       I    between atoms: C6_12  and  C5_53 
REMARK       I    between atoms: S2_14  and  O6_33 
REMARK       I    between atoms: O3S_16  and  S1_51 
REMARK       I    between atoms: S_17  and  O2_44 
REMARK       I    between atoms: N_20  and  S1_58 
REMARK       I    between atoms: O4_24  and  C4_38 
REMARK       I    between atoms: S_25  and  O2_64 
REMARK       I    between atoms: O2S_27  and  S1_51 
REMARK       I    between atoms: C4_28  and  O4_73 
REMARK       I    between atoms: C3_30  and  O3_62 
REMARK       I    between atoms: O6_33  and  C6_63 
REMARK       I    between atoms: O3_35  and  C3_55 
REMARK       I    between atoms: O4_36  and  C1_84 
REMARK       I    between atoms: O4_37  and  C4_54 
REMARK       I    between atoms: C3_39  and  O3_48 
REMARK       I    between atoms: C5_42  and  C6_63 
REMARK       I    between atoms: O2_44  and  C2_61 
REMARK       I    between atoms: O6_45  and  C6_77 
REMARK       I    between atoms: O6_45  and  S2_82 
REMARK       I    between atoms: C5_49  and  C6_76 
REMARK       I    between atoms: S1_51  and  N_68 
REMARK       I    between atoms: S1_51  and  O1S_81 
REMARK       I    between atoms: O2S_52  and  S1_58 
REMARK       I    between atoms: C2_57  and  O2_64 
REMARK       I    between atoms: S1_58  and  O3S_75 
REMARK       I    between atoms: O3_66  and  C3_67 
REMARK       I    between atoms: O2_69  and  C2_79 
REMARK       I    between atoms: O2_69  and  S_72 
REMARK       I    between atoms: C5_70  and  C6_77 
REMARK       I    between atoms: C1_71  and  O4_73 
ROOT
ATOM      1  O2S IDS d 303     137.324   5.596  81.136  0.00  0.00    -0.572 OA
ATOM      2  C6  IDS d 303     136.594  12.797  81.550  0.00  0.00     0.206 C 
ATOM      3  O1S IDS d 303     135.257   6.249  80.133  0.00  0.00    -0.572 OA
ATOM      4  O3S IDS d 303     137.249   6.165  78.801  0.00  0.00    -0.572 OA
ATOM      5  O4  IDS d 303     137.708  10.053  82.446  0.00  0.00    -0.348 OA
ATOM      6  O61 IDS d 303     137.292  13.770  81.749  0.00  0.00    -0.646 OA
ATOM      7  C4  IDS d 303     138.206  10.781  81.313  0.00  0.00     0.103 C 
ATOM      8  C3  IDS d 303     138.621   9.663  80.313  0.00  0.00     0.094 C 
ATOM      9  O62 IDS d 303     135.493  12.773  82.060  0.00  0.00    -0.646 OA
ATOM     10  O3  IDS d 303     139.413  10.251  79.295  0.00  0.00    -0.390 OA
ATOM     11  C5  IDS d 303     137.084  11.639  80.680  0.00  0.00     0.152 C 
ATOM     12  O2  IDS d 303     137.003   7.877  80.495  0.00  0.00    -0.244 OA
ATOM     13  C1  IDS d 303     136.186   9.824  79.341  0.00  0.00     0.161 C 
ATOM     14  S   IDS d 303     136.688   6.385  80.110  0.00  0.00     0.252 S 
ATOM     15  C2  IDS d 303     137.420   8.935  79.648  0.00  0.00     0.134 C 
ATOM     16  O5  IDS d 303     135.974  10.788  80.365  0.00  0.00    -0.340 OA
ATOM     17  H   IDS d 303     139.005  11.445  81.572  0.00  0.00     0.092 H 
ATOM     18  H   IDS d 303     139.155   8.925  80.873  0.00  0.00     0.091 H 
ATOM     19  H   IDS d 303     138.886  10.911  78.817  0.00  0.00     0.210 HD
ATOM     20  H   IDS d 303     137.509  12.090  79.808  0.00  0.00     0.104 H 
ATOM     21  H   IDS d 303     135.305   9.217  79.315  0.00  0.00     0.133 H 
ATOM     22  H   IDS d 303     137.783   8.597  78.700  0.00  0.00     0.097 H 
ATOM     23  C2  SGN d 304     138.206   8.827  84.511  0.00  0.00     0.081 C 
ATOM     24  C1  SGN d 304     138.464  10.086  83.637  0.00  0.00     0.150 C 
ATOM     25  O3  SGN d 304     136.534   7.704  85.845  0.00  0.00    -0.391 OA
ATOM     26  O3S SGN d 304     139.991   5.783  84.223  0.00  0.00    -0.296 OA
ATOM     27  O5S SGN d 304     139.228  13.462  88.397  0.00  0.00    -0.572 OA
ATOM     28  O2S SGN d 304     140.928   7.988  84.146  0.00  0.00    -0.296 OA
ATOM     29  O4S SGN d 304     136.887  13.965  88.425  0.00  0.00    -0.572 OA
ATOM     30  O4  SGN d 304     135.335   9.869  86.560  0.00  0.00    -0.348 OA
ATOM     31  O6  SGN d 304     137.899  12.878  86.520  0.00  0.00    -0.254 OA
ATOM     32  S1  SGN d 304     140.007   7.051  83.555  0.00  0.00     0.156 S 
ATOM     33  C4  SGN d 304     136.588  10.130  85.906  0.00  0.00     0.095 C 
ATOM     34  O6S SGN d 304     138.368  15.179  86.985  0.00  0.00    -0.572 OA
ATOM     35  N   SGN d 304     138.475   7.635  83.691  0.00  0.00    -0.210 NA
ATOM     36  C5  SGN d 304     136.860  11.359  84.979  0.00  0.00     0.091 C 
ATOM     37  C3  SGN d 304     136.758   8.851  85.044  0.00  0.00     0.083 C 
ATOM     38  C6  SGN d 304     136.778  12.726  85.674  0.00  0.00     0.067 C 
ATOM     39  O5  SGN d 304     138.178  11.274  84.376  0.00  0.00    -0.349 OA
ATOM     40  O1S SGN d 304     140.215   6.920  82.140  0.00  0.00    -0.296 OA
ATOM     41  S2  SGN d 304     138.097  13.938  87.650  0.00  0.00     0.251 S 
ATOM     42  H   SGN d 304     138.853   8.811  85.363  0.00  0.00     0.076 H 
ATOM     43  H   SGN d 304     139.499  10.086  83.366  0.00  0.00     0.131 H 
ATOM     44  H   SGN d 304     136.640   6.906  85.303  0.00  0.00     0.210 HD
ATOM     45  H   SGN d 304     139.848   5.920  85.172  0.00  0.00     0.231 HD
ATOM     46  H   SGN d 304     140.758   8.050  85.099  0.00  0.00     0.231 HD
ATOM     47  H   SGN d 304     137.260  10.381  86.700  0.00  0.00     0.091 H 
ATOM     48  H   SGN d 304     138.158   7.851  82.746  0.00  0.00     0.140 HD
ATOM     49  H   SGN d 304     136.076  11.308  84.253  0.00  0.00     0.090 H 
ATOM     50  H   SGN d 304     136.059   8.853  84.234  0.00  0.00     0.089 H 
ATOM     51  H   SGN d 304     136.775  13.503  84.938  0.00  0.00     0.080 H 
ATOM     52  H   SGN d 304     135.878  12.786  86.249  0.00  0.00     0.080 H 
ATOM     53  H   SGN d 304     141.107   6.577  81.974  0.00  0.00     0.231 HD
ATOM     54  O62 IDS d 301     132.760   8.564  73.783  0.00  0.00    -0.646 OA
ATOM     55  O1  IDS d 301     132.347  10.386  69.122  0.00  0.00    -0.368 OA
ATOM     56  C4  IDS d 301     133.702  11.452  72.831  0.00  0.00     0.103 C 
ATOM     57  C5  IDS d 301     132.629  10.432  72.294  0.00  0.00     0.152 C 
ATOM     58  O61 IDS d 301     130.944   9.554  73.724  0.00  0.00    -0.646 OA
ATOM     59  S   IDS d 301     133.966  13.778  68.375  0.00  0.00     0.252 S 
ATOM     60  C3  IDS d 301     134.466  12.118  71.643  0.00  0.00     0.094 C 
ATOM     61  C1  IDS d 301     133.438  10.467  69.997  0.00  0.00     0.158 C 
ATOM     62  C6  IDS d 301     132.083   9.455  73.328  0.00  0.00     0.206 C 
ATOM     63  O5  IDS d 301     133.196   9.702  71.183  0.00  0.00    -0.340 OA
ATOM     64  O4  IDS d 301     134.507  11.796  73.970  0.00  0.00    -0.348 OA
ATOM     65  O3S IDS d 301     134.730  13.599  67.166  0.00  0.00    -0.572 OA
ATOM     66  O1S IDS d 301     132.551  13.655  68.150  0.00  0.00    -0.572 OA
ATOM     67  C2  IDS d 301     133.674  11.971  70.329  0.00  0.00     0.134 C 
ATOM     68  O3  IDS d 301     134.656  13.497  71.920  0.00  0.00    -0.390 OA
ATOM     69  O2  IDS d 301     134.406  12.580  69.282  0.00  0.00    -0.244 OA
ATOM     70  O2S IDS d 301     134.325  14.971  69.098  0.00  0.00    -0.572 OA
ATOM     71  H   IDS d 301     132.531  10.911  68.327  0.00  0.00     0.212 HD
ATOM     72  H   IDS d 301     132.883  11.411  73.518  0.00  0.00     0.092 H 
ATOM     73  H   IDS d 301     131.786  11.020  71.997  0.00  0.00     0.104 H 
ATOM     74  H   IDS d 301     135.411  11.628  71.531  0.00  0.00     0.091 H 
ATOM     75  H   IDS d 301     134.313  10.057  69.539  0.00  0.00     0.133 H 
ATOM     76  H   IDS d 301     132.722  12.448  70.438  0.00  0.00     0.097 H 
ATOM     77  H   IDS d 301     133.794  13.929  72.020  0.00  0.00     0.210 HD
ATOM     78  O1S SGN d 302     135.259  16.464  74.600  0.00  0.00    -0.296 OA
ATOM     79  C2  SGN d 302     134.675  13.008  76.112  0.00  0.00     0.081 C 
ATOM     80  S2  SGN d 302     131.510   8.313  78.329  0.00  0.00     0.251 S 
ATOM     81  N   SGN d 302     135.197  14.175  75.379  0.00  0.00    -0.210 NA
ATOM     82  C4  SGN d 302     135.211  10.980  77.467  0.00  0.00     0.095 C 
ATOM     83  O6  SGN d 302     132.720   9.218  77.931  0.00  0.00    -0.254 OA
ATOM     84  C5  SGN d 302     134.409  10.132  76.427  0.00  0.00     0.091 C 
ATOM     85  O4S SGN d 302     132.044   7.031  78.696  0.00  0.00    -0.572 OA
ATOM     86  O2S SGN d 302     133.132  15.470  74.890  0.00  0.00    -0.296 OA
ATOM     87  S1  SGN d 302     134.448  15.624  75.428  0.00  0.00     0.156 S 
ATOM     88  O5S SGN d 302     130.894   8.977  79.435  0.00  0.00    -0.572 OA
ATOM     89  O6S SGN d 302     130.672   8.264  77.166  0.00  0.00    -0.572 OA
ATOM     90  C6  SGN d 302     133.732   8.879  77.011  0.00  0.00     0.067 C 
ATOM     91  O3  SGN d 302     136.540  13.010  77.612  0.00  0.00    -0.391 OA
ATOM     92  C3  SGN d 302     135.809  12.189  76.716  0.00  0.00     0.083 C 
ATOM     93  O4  SGN d 302     136.362  10.420  78.091  0.00  0.00    -0.348 OA
ATOM     94  O3S SGN d 302     134.454  16.021  76.807  0.00  0.00    -0.296 OA
ATOM     95  C1  SGN d 302     133.831  12.134  75.151  0.00  0.00     0.150 C 
ATOM     96  O5  SGN d 302     133.374  10.947  75.810  0.00  0.00    -0.349 OA
ATOM     97  H   SGN d 302     135.219  16.150  73.683  0.00  0.00     0.231 HD
ATOM     98  H   SGN d 302     134.059  13.354  76.917  0.00  0.00     0.076 H 
ATOM     99  H   SGN d 302     135.232  13.904  74.395  0.00  0.00     0.140 HD
ATOM    100  H   SGN d 302     134.480  11.144  78.231  0.00  0.00     0.091 H 
ATOM    101  H   SGN d 302     135.138   9.801  75.718  0.00  0.00     0.090 H 
ATOM    102  H   SGN d 302     133.192  15.201  73.960  0.00  0.00     0.231 HD
ATOM    103  H   SGN d 302     133.300   8.314  76.212  0.00  0.00     0.080 H 
ATOM    104  H   SGN d 302     134.475   8.307  77.527  0.00  0.00     0.080 H 
ATOM    105  H   SGN d 302     136.910  13.765  77.129  0.00  0.00     0.210 HD
ATOM    106  H   SGN d 302     136.464  11.834  75.949  0.00  0.00     0.089 H 
ATOM    107  H   SGN d 302     135.370  16.109  77.114  0.00  0.00     0.231 HD
ATOM    108  H   SGN d 302     132.991  12.734  74.868  0.00  0.00     0.131 H 
ATOM    109  C1  IDS d 305     135.103  10.449  87.819  0.00  0.00     0.161 C 
ATOM    110  O1S IDS d 305     132.028  13.286  86.026  0.00  0.00    -0.572 OA
ATOM    111  S   IDS d 305     132.042  11.876  86.295  0.00  0.00     0.252 S 
ATOM    112  C4  IDS d 305     133.765   9.184  90.202  0.00  0.00    -0.005 C 
ATOM    113  O61 IDS d 305     135.949   6.579  90.249  0.00  0.00    -0.646 OA
ATOM    114  O3  IDS d 305     131.828  10.537  89.713  0.00  0.00    -0.393 OA
ATOM    115  O62 IDS d 305     136.684   8.305  91.136  0.00  0.00    -0.646 OA
ATOM    116  O2S IDS d 305     132.529  11.118  85.181  0.00  0.00    -0.572 OA
ATOM    117  O2  IDS d 305     133.068  11.712  87.465  0.00  0.00    -0.244 OA
ATOM    118  O5  IDS d 305     135.757   9.713  88.865  0.00  0.00    -0.343 OA
ATOM    119  C5  IDS d 305     135.014   8.619  89.448  0.00  0.00     0.127 C 
ATOM    120  C3  IDS d 305     133.231  10.485  89.537  0.00  0.00     0.069 C 
ATOM    121  C2  IDS d 305     133.566  10.510  88.031  0.00  0.00     0.132 C 
ATOM    122  C6  IDS d 305     135.939   7.788  90.332  0.00  0.00     0.203 C 
ATOM    123  O3S IDS d 305     130.790  11.396  86.803  0.00  0.00    -0.572 OA
ATOM    124  H   IDS d 305     135.515  11.436  87.854  0.00  0.00     0.133 H 
ATOM    125  H   IDS d 305     132.990   8.446  90.192  0.00  0.00     0.041 H 
ATOM    126  H   IDS d 305     134.058   9.418  91.204  0.00  0.00     0.041 H 
ATOM    127  H   IDS d 305     131.620  10.521  90.660  0.00  0.00     0.210 HD
ATOM    128  H   IDS d 305     134.644   7.959  88.691  0.00  0.00     0.100 H 
ATOM    129  H   IDS d 305     133.698  11.331  89.995  0.00  0.00     0.087 H 
ATOM    130  H   IDS d 305     133.114   9.662  87.559  0.00  0.00     0.097 H 
ENDROOT
TORSDOF 39
ENDMDL
MODEL 6
REMARK VINA RESULT:      -6.9      3.775      5.157
REMARK  0 active torsions:
REMARK  status: ('A' for Active; 'I' for Inactive)
REMARK       I    between atoms: C2_2  and  N_68 
REMARK       I    between atoms: C1_3  and  O4_24 
REMARK       I    between atoms: O1S_5  and  S1_58 
REMARK       I    between atoms: O1_6  and  C1_31 
REMARK       I    between atoms: C4_7  and  O4_36 
REMARK       I    between atoms: C1_8  and  O4_37 
REMARK       I    between atoms: O3_9  and  C3_74 
REMARK       I    between atoms: C5_10  and  C6_32 
REMARK       I    between atoms: C2_11  and  N_20 
REMARK       I    between atoms: C6_12  and  C5_53 
REMARK       I    between atoms: S2_14  and  O6_33 
REMARK       I    between atoms: O3S_16  and  S1_51 
REMARK       I    between atoms: S_17  and  O2_44 
REMARK       I    between atoms: N_20  and  S1_58 
REMARK       I    between atoms: O4_24  and  C4_38 
REMARK       I    between atoms: S_25  and  O2_64 
REMARK       I    between atoms: O2S_27  and  S1_51 
REMARK       I    between atoms: C4_28  and  O4_73 
REMARK       I    between atoms: C3_30  and  O3_62 
REMARK       I    between atoms: O6_33  and  C6_63 
REMARK       I    between atoms: O3_35  and  C3_55 
REMARK       I    between atoms: O4_36  and  C1_84 
REMARK       I    between atoms: O4_37  and  C4_54 
REMARK       I    between atoms: C3_39  and  O3_48 
REMARK       I    between atoms: C5_42  and  C6_63 
REMARK       I    between atoms: O2_44  and  C2_61 
REMARK       I    between atoms: O6_45  and  C6_77 
REMARK       I    between atoms: O6_45  and  S2_82 
REMARK       I    between atoms: C5_49  and  C6_76 
REMARK       I    between atoms: S1_51  and  N_68 
REMARK       I    between atoms: S1_51  and  O1S_81 
REMARK       I    between atoms: O2S_52  and  S1_58 
REMARK       I    between atoms: C2_57  and  O2_64 
REMARK       I    between atoms: S1_58  and  O3S_75 
REMARK       I    between atoms: O3_66  and  C3_67 
REMARK       I    between atoms: O2_69  and  C2_79 
REMARK       I    between atoms: O2_69  and  S_72 
REMARK       I    between atoms: C5_70  and  C6_77 
REMARK       I    between atoms: C1_71  and  O4_73 
ROOT
ATOM      1  O2S IDS d 303     130.329   6.083  76.990  0.00  0.00    -0.572 OA
ATOM      2  C6  IDS d 303     135.265  11.392  76.963  0.00  0.00     0.206 C 
ATOM      3  O1S IDS d 303     132.520   5.136  76.907  0.00  0.00    -0.572 OA
ATOM      4  O3S IDS d 303     131.507   5.599  79.030  0.00  0.00    -0.572 OA
ATOM      5  O4  IDS d 303     132.453  10.200  76.472  0.00  0.00    -0.348 OA
ATOM      6  O61 IDS d 303     135.327  12.576  77.227  0.00  0.00    -0.646 OA
ATOM      7  C4  IDS d 303     132.936  10.588  77.767  0.00  0.00     0.103 C 
ATOM      8  C3  IDS d 303     132.265   9.566  78.730  0.00  0.00     0.094 C 
ATOM      9  O62 IDS d 303     135.855  10.998  75.979  0.00  0.00    -0.646 OA
ATOM     10  O3  IDS d 303     132.415  10.042  80.056  0.00  0.00    -0.390 OA
ATOM     11  C5  IDS d 303     134.473  10.428  77.846  0.00  0.00     0.152 C 
ATOM     12  O2  IDS d 303     132.208   7.426  77.606  0.00  0.00    -0.244 OA
ATOM     13  C1  IDS d 303     134.392   8.063  78.391  0.00  0.00     0.161 C 
ATOM     14  S   IDS d 303     131.611   5.972  77.643  0.00  0.00     0.252 S 
ATOM     15  C2  IDS d 303     132.863   8.135  78.647  0.00  0.00     0.134 C 
ATOM     16  O5  IDS d 303     134.816   9.081  77.492  0.00  0.00    -0.340 OA
ATOM     17  H   IDS d 303     132.711  11.609  77.998  0.00  0.00     0.092 H 
ATOM     18  H   IDS d 303     131.239   9.487  78.436  0.00  0.00     0.091 H 
ATOM     19  H   IDS d 303     133.359  10.096  80.275  0.00  0.00     0.210 HD
ATOM     20  H   IDS d 303     134.746  10.664  78.853  0.00  0.00     0.104 H 
ATOM     21  H   IDS d 303     134.635   7.132  77.923  0.00  0.00     0.133 H 
ATOM     22  H   IDS d 303     132.705   7.704  79.613  0.00  0.00     0.097 H 
ATOM     23  C2  SGN d 304     130.652  10.296  74.810  0.00  0.00     0.081 C 
ATOM     24  C1  SGN d 304     131.553  11.066  75.814  0.00  0.00     0.150 C 
ATOM     25  O3  SGN d 304     130.676   9.073  72.727  0.00  0.00    -0.391 OA
ATOM     26  O3S SGN d 304     127.567   8.772  75.645  0.00  0.00    -0.296 OA
ATOM     27  O5S SGN d 304     131.597  15.853  72.391  0.00  0.00    -0.572 OA
ATOM     28  O2S SGN d 304     128.330  10.921  76.382  0.00  0.00    -0.296 OA
ATOM     29  O4S SGN d 304     133.547  15.040  71.265  0.00  0.00    -0.572 OA
ATOM     30  O4  SGN d 304     132.653  10.386  71.726  0.00  0.00    -0.348 OA
ATOM     31  O6  SGN d 304     132.773  14.008  73.308  0.00  0.00    -0.254 OA
ATOM     32  S1  SGN d 304     128.577   9.501  76.352  0.00  0.00     0.156 S 
ATOM     33  C4  SGN d 304     132.154  10.987  72.933  0.00  0.00     0.095 C 
ATOM     34  O6S SGN d 304     133.750  16.193  73.355  0.00  0.00    -0.572 OA
ATOM     35  N   SGN d 304     129.976   9.209  75.538  0.00  0.00    -0.210 NA
ATOM     36  C5  SGN d 304     133.045  11.722  73.987  0.00  0.00     0.091 C 
ATOM     37  C3  SGN d 304     131.507   9.767  73.641  0.00  0.00     0.083 C 
ATOM     38  C6  SGN d 304     133.741  12.992  73.476  0.00  0.00     0.067 C 
ATOM     39  O5  SGN d 304     132.265  12.110  75.148  0.00  0.00    -0.349 OA
ATOM     40  O1S SGN d 304     128.811   8.973  77.667  0.00  0.00    -0.296 OA
ATOM     41  S2  SGN d 304     132.936  15.352  72.528  0.00  0.00     0.251 S 
ATOM     42  H   SGN d 304     129.908  10.940  74.389  0.00  0.00     0.076 H 
ATOM     43  H   SGN d 304     130.916  11.499  76.557  0.00  0.00     0.131 H 
ATOM     44  H   SGN d 304     130.274   8.311  73.172  0.00  0.00     0.210 HD
ATOM     45  H   SGN d 304     127.443   9.162  74.766  0.00  0.00     0.231 HD
ATOM     46  H   SGN d 304     128.177  11.241  75.480  0.00  0.00     0.231 HD
ATOM     47  H   SGN d 304     131.581  11.828  72.599  0.00  0.00     0.091 H 
ATOM     48  H   SGN d 304     130.644   8.854  76.222  0.00  0.00     0.140 HD
ATOM     49  H   SGN d 304     133.800  11.003  74.226  0.00  0.00     0.090 H 
ATOM     50  H   SGN d 304     132.264   9.101  73.999  0.00  0.00     0.089 H 
ATOM     51  H   SGN d 304     134.476  13.309  74.186  0.00  0.00     0.080 H 
ATOM     52  H   SGN d 304     134.222  12.790  72.541  0.00  0.00     0.080 H 
ATOM     53  H   SGN d 304     128.023   9.109  78.216  0.00  0.00     0.231 HD
ATOM     54  O62 IDS d 301     137.817   3.224  81.402  0.00  0.00    -0.646 OA
ATOM     55  O1  IDS d 301     140.787   2.648  85.409  0.00  0.00    -0.368 OA
ATOM     56  C4  IDS d 301     139.297   5.569  82.965  0.00  0.00     0.103 C 
ATOM     57  C5  IDS d 301     139.580   4.027  82.806  0.00  0.00     0.152 C 
ATOM     58  O61 IDS d 301     139.737   3.023  80.656  0.00  0.00    -0.646 OA
ATOM     59  S   IDS d 301     142.045   5.807  87.176  0.00  0.00     0.252 S 
ATOM     60  C3  IDS d 301     139.572   6.026  84.432  0.00  0.00     0.094 C 
ATOM     61  C1  IDS d 301     139.787   3.605  85.195  0.00  0.00     0.158 C 
ATOM     62  C6  IDS d 301     139.005   3.386  81.549  0.00  0.00     0.206 C 
ATOM     63  O5  IDS d 301     139.083   3.340  83.976  0.00  0.00    -0.340 OA
ATOM     64  O4  IDS d 301     138.578   6.679  82.407  0.00  0.00    -0.348 OA
ATOM     65  O3S IDS d 301     141.791   5.607  88.581  0.00  0.00    -0.572 OA
ATOM     66  O1S IDS d 301     143.033   4.896  86.664  0.00  0.00    -0.572 OA
ATOM     67  C2  IDS d 301     140.465   5.007  85.167  0.00  0.00     0.134 C 
ATOM     68  O3  IDS d 301     140.221   7.289  84.418  0.00  0.00    -0.390 OA
ATOM     69  O2  IDS d 301     140.680   5.457  86.492  0.00  0.00    -0.244 OA
ATOM     70  O2S IDS d 301     142.311   7.182  86.840  0.00  0.00    -0.572 OA
ATOM     71  H   IDS d 301     141.251   2.845  86.239  0.00  0.00     0.212 HD
ATOM     72  H   IDS d 301     139.620   5.374  81.964  0.00  0.00     0.092 H 
ATOM     73  H   IDS d 301     140.640   3.931  82.705  0.00  0.00     0.104 H 
ATOM     74  H   IDS d 301     138.636   6.096  84.947  0.00  0.00     0.091 H 
ATOM     75  H   IDS d 301     139.063   3.569  85.982  0.00  0.00     0.133 H 
ATOM     76  H   IDS d 301     141.398   4.922  84.652  0.00  0.00     0.097 H 
ATOM     77  H   IDS d 301     141.067   7.212  83.950  0.00  0.00     0.210 HD
ATOM     78  O1S SGN d 302     140.799  10.892  82.678  0.00  0.00    -0.296 OA
ATOM     79  C2  SGN d 302     138.525   8.508  80.750  0.00  0.00     0.081 C 
ATOM     80  S2  SGN d 302     137.046   4.102  76.828  0.00  0.00     0.251 S 
ATOM     81  N   SGN d 302     139.138   9.396  81.754  0.00  0.00    -0.210 NA
ATOM     82  C4  SGN d 302     136.422   7.739  79.646  0.00  0.00     0.095 C 
ATOM     83  O6  SGN d 302     136.901   5.273  77.853  0.00  0.00    -0.254 OA
ATOM     84  C5  SGN d 302     136.788   6.280  80.071  0.00  0.00     0.091 C 
ATOM     85  O4S SGN d 302     135.739   3.533  76.649  0.00  0.00    -0.572 OA
ATOM     86  O2S SGN d 302     141.566   9.138  81.287  0.00  0.00    -0.296 OA
ATOM     87  S1  SGN d 302     140.565  10.140  81.482  0.00  0.00     0.156 S 
ATOM     88  O5S SGN d 302     137.536   4.713  75.631  0.00  0.00    -0.572 OA
ATOM     89  O6S SGN d 302     137.984   3.193  77.418  0.00  0.00    -0.572 OA
ATOM     90  C6  SGN d 302     136.278   5.188  79.113  0.00  0.00     0.067 C 
ATOM     91  O3  SGN d 302     136.728  10.039  80.367  0.00  0.00    -0.391 OA
ATOM     92  C3  SGN d 302     137.014   8.692  80.705  0.00  0.00     0.083 C 
ATOM     93  O4  SGN d 302     135.056   8.139  79.618  0.00  0.00    -0.348 OA
ATOM     94  O3S SGN d 302     140.361  10.970  80.329  0.00  0.00    -0.296 OA
ATOM     95  C1  SGN d 302     138.879   7.036  81.085  0.00  0.00     0.150 C 
ATOM     96  O5  SGN d 302     138.232   6.138  80.176  0.00  0.00    -0.349 OA
ATOM     97  H   SGN d 302     140.930  10.283  83.422  0.00  0.00     0.231 HD
ATOM     98  H   SGN d 302     138.913   8.759  79.784  0.00  0.00     0.076 H 
ATOM     99  H   SGN d 302     139.264   8.834  82.596  0.00  0.00     0.140 HD
ATOM    100  H   SGN d 302     136.788   7.775  78.641  0.00  0.00     0.091 H 
ATOM    101  H   SGN d 302     136.299   6.134  81.012  0.00  0.00     0.090 H 
ATOM    102  H   SGN d 302     141.659   8.611  82.096  0.00  0.00     0.231 HD
ATOM    103  H   SGN d 302     136.485   4.229  79.539  0.00  0.00     0.080 H 
ATOM    104  H   SGN d 302     135.226   5.328  78.977  0.00  0.00     0.080 H 
ATOM    105  H   SGN d 302     137.104  10.628  81.039  0.00  0.00     0.210 HD
ATOM    106  H   SGN d 302     136.580   8.468  81.657  0.00  0.00     0.089 H 
ATOM    107  H   SGN d 302     139.674  11.626  80.521  0.00  0.00     0.231 HD
ATOM    108  H   SGN d 302     139.940   6.956  80.975  0.00  0.00     0.131 H 
ATOM    109  C1  IDS d 305     132.771  11.188  70.578  0.00  0.00     0.161 C 
ATOM    110  O1S IDS d 305     137.311  11.099  70.893  0.00  0.00    -0.572 OA
ATOM    111  S   IDS d 305     136.320  10.125  70.532  0.00  0.00     0.252 S 
ATOM    112  C4  IDS d 305     132.128  10.425  67.736  0.00  0.00    -0.005 C 
ATOM    113  O61 IDS d 305     128.931   9.572  68.518  0.00  0.00    -0.646 OA
ATOM    114  O3  IDS d 305     134.503  10.278  67.339  0.00  0.00    -0.393 OA
ATOM    115  O62 IDS d 305     129.218  11.613  68.277  0.00  0.00    -0.646 OA
ATOM    116  O2S IDS d 305     135.864   9.374  71.663  0.00  0.00    -0.572 OA
ATOM    117  O2  IDS d 305     135.113  10.973  70.007  0.00  0.00    -0.244 OA
ATOM    118  O5  IDS d 305     131.503  11.356  69.923  0.00  0.00    -0.343 OA
ATOM    119  C5  IDS d 305     131.141  10.352  68.949  0.00  0.00     0.127 C 
ATOM    120  C3  IDS d 305     133.543  10.897  68.175  0.00  0.00     0.069 C 
ATOM    121  C2  IDS d 305     133.818  10.520  69.646  0.00  0.00     0.132 C 
ATOM    122  C6  IDS d 305     129.676  10.527  68.558  0.00  0.00     0.203 C 
ATOM    123  O3S IDS d 305     136.727   9.302  69.431  0.00  0.00    -0.572 OA
ATOM    124  H   IDS d 305     133.096  12.172  70.845  0.00  0.00     0.133 H 
ATOM    125  H   IDS d 305     132.207   9.454  67.294  0.00  0.00     0.041 H 
ATOM    126  H   IDS d 305     131.742  11.135  67.035  0.00  0.00     0.041 H 
ATOM    127  H   IDS d 305     134.328  10.516  66.415  0.00  0.00     0.210 HD
ATOM    128  H   IDS d 305     131.231   9.368  69.359  0.00  0.00     0.100 H 
ATOM    129  H   IDS d 305     133.602  11.961  68.088  0.00  0.00     0.087 H 
ATOM    130  H   IDS d 305     133.752   9.457  69.751  0.00  0.00     0.097 H 
ENDROOT
TORSDOF 39
ENDMDL
MODEL 7
REMARK VINA RESULT:      -6.8      2.333      2.916
REMARK  0 active torsions:
REMARK  status: ('A' for Active; 'I' for Inactive)
REMARK       I    between atoms: C2_2  and  N_68 
REMARK       I    between atoms: C1_3  and  O4_24 
REMARK       I    between atoms: O1S_5  and  S1_58 
REMARK       I    between atoms: O1_6  and  C1_31 
REMARK       I    between atoms: C4_7  and  O4_36 
REMARK       I    between atoms: C1_8  and  O4_37 
REMARK       I    between atoms: O3_9  and  C3_74 
REMARK       I    between atoms: C5_10  and  C6_32 
REMARK       I    between atoms: C2_11  and  N_20 
REMARK       I    between atoms: C6_12  and  C5_53 
REMARK       I    between atoms: S2_14  and  O6_33 
REMARK       I    between atoms: O3S_16  and  S1_51 
REMARK       I    between atoms: S_17  and  O2_44 
REMARK       I    between atoms: N_20  and  S1_58 
REMARK       I    between atoms: O4_24  and  C4_38 
REMARK       I    between atoms: S_25  and  O2_64 
REMARK       I    between atoms: O2S_27  and  S1_51 
REMARK       I    between atoms: C4_28  and  O4_73 
REMARK       I    between atoms: C3_30  and  O3_62 
REMARK       I    between atoms: O6_33  and  C6_63 
REMARK       I    between atoms: O3_35  and  C3_55 
REMARK       I    between atoms: O4_36  and  C1_84 
REMARK       I    between atoms: O4_37  and  C4_54 
REMARK       I    between atoms: C3_39  and  O3_48 
REMARK       I    between atoms: C5_42  and  C6_63 
REMARK       I    between atoms: O2_44  and  C2_61 
REMARK       I    between atoms: O6_45  and  C6_77 
REMARK       I    between atoms: O6_45  and  S2_82 
REMARK       I    between atoms: C5_49  and  C6_76 
REMARK       I    between atoms: S1_51  and  N_68 
REMARK       I    between atoms: S1_51  and  O1S_81 
REMARK       I    between atoms: O2S_52  and  S1_58 
REMARK       I    between atoms: C2_57  and  O2_64 
REMARK       I    between atoms: S1_58  and  O3S_75 
REMARK       I    between atoms: O3_66  and  C3_67 
REMARK       I    between atoms: O2_69  and  C2_79 
REMARK       I    between atoms: O2_69  and  S_72 
REMARK       I    between atoms: C5_70  and  C6_77 
REMARK       I    between atoms: C1_71  and  O4_73 
ROOT
ATOM      1  O2S IDS d 303     130.285   8.769  79.414  0.00  0.00    -0.572 OA
ATOM      2  C6  IDS d 303     134.674  13.771  76.538  0.00  0.00     0.206 C 
ATOM      3  O1S IDS d 303     132.556   8.224  79.917  0.00  0.00    -0.572 OA
ATOM      4  O3S IDS d 303     131.318   9.643  81.402  0.00  0.00    -0.572 OA
ATOM      5  O4  IDS d 303     132.044  12.154  76.736  0.00  0.00    -0.348 OA
ATOM      6  O61 IDS d 303     134.598  14.901  76.099  0.00  0.00    -0.646 OA
ATOM      7  C4  IDS d 303     132.370  13.249  77.605  0.00  0.00     0.103 C 
ATOM      8  C3  IDS d 303     131.717  12.849  78.960  0.00  0.00     0.094 C 
ATOM      9  O62 IDS d 303     135.384  12.981  75.952  0.00  0.00    -0.646 OA
ATOM     10  O3  IDS d 303     131.703  13.991  79.799  0.00  0.00    -0.390 OA
ATOM     11  C5  IDS d 303     133.903  13.359  77.792  0.00  0.00     0.152 C 
ATOM     12  O2  IDS d 303     131.965  10.458  79.217  0.00  0.00    -0.244 OA
ATOM     13  C1  IDS d 303     134.000  11.697  79.560  0.00  0.00     0.161 C 
ATOM     14  S   IDS d 303     131.509   9.202  80.044  0.00  0.00     0.252 S 
ATOM     15  C2  IDS d 303     132.455  11.699  79.700  0.00  0.00     0.134 C 
ATOM     16  O5  IDS d 303     134.403  12.097  78.255  0.00  0.00    -0.340 OA
ATOM     17  H   IDS d 303     132.029  14.189  77.224  0.00  0.00     0.092 H 
ATOM     18  H   IDS d 303     130.733  12.490  78.739  0.00  0.00     0.091 H 
ATOM     19  H   IDS d 303     132.614  14.277  79.970  0.00  0.00     0.210 HD
ATOM     20  H   IDS d 303     134.061  14.143  78.502  0.00  0.00     0.104 H 
ATOM     21  H   IDS d 303     134.371  10.702  79.694  0.00  0.00     0.133 H 
ATOM     22  H   IDS d 303     132.253  11.855  80.739  0.00  0.00     0.097 H 
ATOM     23  C2  SGN d 304     130.396  11.088  75.265  0.00  0.00     0.081 C 
ATOM     24  C1  SGN d 304     131.127  12.391  75.689  0.00  0.00     0.150 C 
ATOM     25  O3  SGN d 304     130.722   8.936  74.216  0.00  0.00    -0.391 OA
ATOM     26  O3S SGN d 304     127.409   9.892  76.742  0.00  0.00    -0.296 OA
ATOM     27  O5S SGN d 304     131.017  14.465  70.182  0.00  0.00    -0.572 OA
ATOM     28  O2S SGN d 304     127.895  12.169  76.175  0.00  0.00    -0.296 OA
ATOM     29  O4S SGN d 304     133.128  13.426  69.740  0.00  0.00    -0.572 OA
ATOM     30  O4  SGN d 304     132.646   9.724  72.696  0.00  0.00    -0.348 OA
ATOM     31  O6  SGN d 304     132.278  13.597  71.995  0.00  0.00    -0.254 OA
ATOM     32  S1  SGN d 304     128.278  11.013  76.945  0.00  0.00     0.156 S 
ATOM     33  C4  SGN d 304     131.986  10.819  73.352  0.00  0.00     0.095 C 
ATOM     34  O6S SGN d 304     133.033  15.553  70.838  0.00  0.00    -0.572 OA
ATOM     35  N   SGN d 304     129.765  10.504  76.460  0.00  0.00    -0.210 NA
ATOM     36  C5  SGN d 304     132.706  12.120  73.837  0.00  0.00     0.091 C 
ATOM     37  C3  SGN d 304     131.399  10.119  74.606  0.00  0.00     0.083 C 
ATOM     38  C6  SGN d 304     133.319  12.976  72.720  0.00  0.00     0.067 C 
ATOM     39  O5  SGN d 304     131.792  12.978  74.569  0.00  0.00    -0.349 OA
ATOM     40  O1S SGN d 304     128.444  11.331  78.336  0.00  0.00    -0.296 OA
ATOM     41  S2  SGN d 304     132.381  14.299  70.603  0.00  0.00     0.251 S 
ATOM     42  H   SGN d 304     129.635  11.292  74.541  0.00  0.00     0.076 H 
ATOM     43  H   SGN d 304     130.388  13.076  76.052  0.00  0.00     0.131 H 
ATOM     44  H   SGN d 304     130.357   8.500  75.002  0.00  0.00     0.210 HD
ATOM     45  H   SGN d 304     127.327   9.714  75.793  0.00  0.00     0.231 HD
ATOM     46  H   SGN d 304     127.792  11.917  75.244  0.00  0.00     0.231 HD
ATOM     47  H   SGN d 304     131.368  11.255  72.595  0.00  0.00     0.091 H 
ATOM     48  H   SGN d 304     130.401  10.674  77.240  0.00  0.00     0.140 HD
ATOM     49  H   SGN d 304     133.502  11.755  74.452  0.00  0.00     0.090 H 
ATOM     50  H   SGN d 304     132.181   9.864  75.290  0.00  0.00     0.089 H 
ATOM     51  H   SGN d 304     133.955  13.723  73.148  0.00  0.00     0.080 H 
ATOM     52  H   SGN d 304     133.898  12.358  72.066  0.00  0.00     0.080 H 
ATOM     53  H   SGN d 304     127.601  11.642  78.700  0.00  0.00     0.231 HD
ATOM     54  O62 IDS d 301     137.591   9.801  84.825  0.00  0.00    -0.646 OA
ATOM     55  O1  IDS d 301     140.234  11.913  88.535  0.00  0.00    -0.368 OA
ATOM     56  C4  IDS d 301     138.695  12.786  84.848  0.00  0.00     0.103 C 
ATOM     57  C5  IDS d 301     139.137  11.463  85.580  0.00  0.00     0.152 C 
ATOM     58  O61 IDS d 301     139.580   9.472  84.357  0.00  0.00    -0.646 OA
ATOM     59  S   IDS d 301     141.022  15.653  88.269  0.00  0.00     0.252 S 
ATOM     60  C3  IDS d 301     138.794  14.006  85.817  0.00  0.00     0.094 C 
ATOM     61  C1  IDS d 301     139.171  12.455  87.803  0.00  0.00     0.158 C 
ATOM     62  C6  IDS d 301     138.740  10.169  84.881  0.00  0.00     0.206 C 
ATOM     63  O5  IDS d 301     138.606  11.476  86.924  0.00  0.00    -0.340 OA
ATOM     64  O4  IDS d 301     137.925  13.303  83.751  0.00  0.00    -0.348 OA
ATOM     65  O3S IDS d 301     140.665  16.228  89.542  0.00  0.00    -0.572 OA
ATOM     66  O1S IDS d 301     142.134  14.747  88.372  0.00  0.00    -0.572 OA
ATOM     67  C2  IDS d 301     139.711  13.685  87.014  0.00  0.00     0.134 C 
ATOM     68  O3  IDS d 301     139.318  15.124  85.116  0.00  0.00    -0.390 OA
ATOM     69  O2  IDS d 301     139.763  14.812  87.868  0.00  0.00    -0.244 OA
ATOM     70  O2S IDS d 301     141.185  16.637  87.230  0.00  0.00    -0.572 OA
ATOM     71  H   IDS d 301     140.602  12.591  89.123  0.00  0.00     0.212 HD
ATOM     72  H   IDS d 301     139.123  12.117  84.132  0.00  0.00     0.092 H 
ATOM     73  H   IDS d 301     140.206  11.465  85.572  0.00  0.00     0.104 H 
ATOM     74  H   IDS d 301     137.813  14.226  86.186  0.00  0.00     0.091 H 
ATOM     75  H   IDS d 301     138.387  12.765  88.462  0.00  0.00     0.133 H 
ATOM     76  H   IDS d 301     140.690  13.451  86.652  0.00  0.00     0.097 H 
ATOM     77  H   IDS d 301     140.205  14.912  84.787  0.00  0.00     0.210 HD
ATOM     78  O1S SGN d 302     139.701  17.214  81.677  0.00  0.00    -0.296 OA
ATOM     79  C2  SGN d 302     137.846  13.894  81.357  0.00  0.00     0.081 C 
ATOM     80  S2  SGN d 302     137.149   7.911  80.521  0.00  0.00     0.251 S 
ATOM     81  N   SGN d 302     138.279  15.257  81.708  0.00  0.00    -0.210 NA
ATOM     82  C4  SGN d 302     135.932  12.381  80.824  0.00  0.00     0.095 C 
ATOM     83  O6  SGN d 302     136.802   9.422  80.718  0.00  0.00    -0.254 OA
ATOM     84  C5  SGN d 302     136.396  11.458  81.997  0.00  0.00     0.091 C 
ATOM     85  O4S SGN d 302     135.923   7.174  80.662  0.00  0.00    -0.572 OA
ATOM     86  O2S SGN d 302     140.753  15.101  81.514  0.00  0.00    -0.296 OA
ATOM     87  S1  SGN d 302     139.646  15.906  81.097  0.00  0.00     0.156 S 
ATOM     88  O5S SGN d 302     137.683   7.819  79.197  0.00  0.00    -0.572 OA
ATOM     89  O6S SGN d 302     138.113   7.606  81.537  0.00  0.00    -0.572 OA
ATOM     90  C6  SGN d 302     136.080   9.965  81.799  0.00  0.00     0.067 C 
ATOM     91  O3  SGN d 302     135.951  14.715  80.148  0.00  0.00    -0.391 OA
ATOM     92  C3  SGN d 302     136.333  13.827  81.185  0.00  0.00     0.083 C 
ATOM     93  O4  SGN d 302     134.541  12.520  80.549  0.00  0.00    -0.348 OA
ATOM     94  O3S SGN d 302     139.468  15.930  79.674  0.00  0.00    -0.296 OA
ATOM     95  C1  SGN d 302     138.307  12.909  82.461  0.00  0.00     0.150 C 
ATOM     96  O5  SGN d 302     137.833  11.585  82.193  0.00  0.00    -0.349 OA
ATOM     97  H   SGN d 302     139.822  17.138  82.637  0.00  0.00     0.231 HD
ATOM     98  H   SGN d 302     138.292  13.620  80.423  0.00  0.00     0.076 H 
ATOM     99  H   SGN d 302     138.383  15.274  82.723  0.00  0.00     0.140 HD
ATOM    100  H   SGN d 302     136.381  11.905  79.977  0.00  0.00     0.091 H 
ATOM    101  H   SGN d 302     135.842  11.792  82.849  0.00  0.00     0.090 H 
ATOM    102  H   SGN d 302     140.823  15.123  82.481  0.00  0.00     0.231 HD
ATOM    103  H   SGN d 302     136.339   9.434  82.691  0.00  0.00     0.080 H 
ATOM    104  H   SGN d 302     135.036   9.869  81.586  0.00  0.00     0.080 H 
ATOM    105  H   SGN d 302     136.208  15.619  80.387  0.00  0.00     0.210 HD
ATOM    106  H   SGN d 302     135.841  14.110  82.091  0.00  0.00     0.089 H 
ATOM    107  H   SGN d 302     138.706  16.489  79.453  0.00  0.00     0.231 HD
ATOM    108  H   SGN d 302     139.377  12.919  82.436  0.00  0.00     0.131 H 
ATOM    109  C1  IDS d 305     132.787   9.769  71.298  0.00  0.00     0.161 C 
ATOM    110  O1S IDS d 305     137.270  10.454  71.703  0.00  0.00    -0.572 OA
ATOM    111  S   IDS d 305     136.412   9.324  71.925  0.00  0.00     0.252 S 
ATOM    112  C4  IDS d 305     132.475   7.494  69.349  0.00  0.00    -0.005 C 
ATOM    113  O61 IDS d 305     129.318   6.808  70.407  0.00  0.00    -0.646 OA
ATOM    114  O3  IDS d 305     134.879   7.460  69.150  0.00  0.00    -0.393 OA
ATOM    115  O62 IDS d 305     129.429   8.396  69.077  0.00  0.00    -0.646 OA
ATOM    116  O2S IDS d 305     135.931   9.268  73.272  0.00  0.00    -0.572 OA
ATOM    117  O2  IDS d 305     135.182   9.579  70.992  0.00  0.00    -0.244 OA
ATOM    118  O5  IDS d 305     131.573   9.384  70.633  0.00  0.00    -0.343 OA
ATOM    119  C5  IDS d 305     131.396   7.973  70.376  0.00  0.00     0.127 C 
ATOM    120  C3  IDS d 305     133.795   8.307  69.480  0.00  0.00     0.069 C 
ATOM    121  C2  IDS d 305     133.972   8.840  70.917  0.00  0.00     0.132 C 
ATOM    122  C6  IDS d 305     129.962   7.713  69.924  0.00  0.00     0.203 C 
ATOM    123  O3S IDS d 305     136.992   8.092  71.478  0.00  0.00    -0.572 OA
ATOM    124  H   IDS d 305     132.992  10.770  70.978  0.00  0.00     0.133 H 
ATOM    125  H   IDS d 305     132.686   6.460  69.524  0.00  0.00     0.041 H 
ATOM    126  H   IDS d 305     132.088   7.645  68.363  0.00  0.00     0.041 H 
ATOM    127  H   IDS d 305     134.766   7.126  68.247  0.00  0.00     0.210 HD
ATOM    128  H   IDS d 305     131.543   7.398  71.267  0.00  0.00     0.100 H 
ATOM    129  H   IDS d 305     133.759   9.145  68.817  0.00  0.00     0.087 H 
ATOM    130  H   IDS d 305     134.000   8.013  71.595  0.00  0.00     0.097 H 
ENDROOT
TORSDOF 39
ENDMDL
MODEL 8
REMARK VINA RESULT:      -6.6      2.581      3.052
REMARK  0 active torsions:
REMARK  status: ('A' for Active; 'I' for Inactive)
REMARK       I    between atoms: C2_2  and  N_68 
REMARK       I    between atoms: C1_3  and  O4_24 
REMARK       I    between atoms: O1S_5  and  S1_58 
REMARK       I    between atoms: O1_6  and  C1_31 
REMARK       I    between atoms: C4_7  and  O4_36 
REMARK       I    between atoms: C1_8  and  O4_37 
REMARK       I    between atoms: O3_9  and  C3_74 
REMARK       I    between atoms: C5_10  and  C6_32 
REMARK       I    between atoms: C2_11  and  N_20 
REMARK       I    between atoms: C6_12  and  C5_53 
REMARK       I    between atoms: S2_14  and  O6_33 
REMARK       I    between atoms: O3S_16  and  S1_51 
REMARK       I    between atoms: S_17  and  O2_44 
REMARK       I    between atoms: N_20  and  S1_58 
REMARK       I    between atoms: O4_24  and  C4_38 
REMARK       I    between atoms: S_25  and  O2_64 
REMARK       I    between atoms: O2S_27  and  S1_51 
REMARK       I    between atoms: C4_28  and  O4_73 
REMARK       I    between atoms: C3_30  and  O3_62 
REMARK       I    between atoms: O6_33  and  C6_63 
REMARK       I    between atoms: O3_35  and  C3_55 
REMARK       I    between atoms: O4_36  and  C1_84 
REMARK       I    between atoms: O4_37  and  C4_54 
REMARK       I    between atoms: C3_39  and  O3_48 
REMARK       I    between atoms: C5_42  and  C6_63 
REMARK       I    between atoms: O2_44  and  C2_61 
REMARK       I    between atoms: O6_45  and  C6_77 
REMARK       I    between atoms: O6_45  and  S2_82 
REMARK       I    between atoms: C5_49  and  C6_76 
REMARK       I    between atoms: S1_51  and  N_68 
REMARK       I    between atoms: S1_51  and  O1S_81 
REMARK       I    between atoms: O2S_52  and  S1_58 
REMARK       I    between atoms: C2_57  and  O2_64 
REMARK       I    between atoms: S1_58  and  O3S_75 
REMARK       I    between atoms: O3_66  and  C3_67 
REMARK       I    between atoms: O2_69  and  C2_79 
REMARK       I    between atoms: O2_69  and  S_72 
REMARK       I    between atoms: C5_70  and  C6_77 
REMARK       I    between atoms: C1_71  and  O4_73 
ROOT
ATOM      1  O2S IDS d 303     131.779   5.004  74.673  0.00  0.00    -0.572 OA
ATOM      2  C6  IDS d 303     135.007  11.494  74.540  0.00  0.00     0.206 C 
ATOM      3  O1S IDS d 303     133.633   5.006  76.179  0.00  0.00    -0.572 OA
ATOM      4  O3S IDS d 303     131.471   5.695  76.955  0.00  0.00    -0.572 OA
ATOM      5  O4  IDS d 303     133.276   9.218  73.358  0.00  0.00    -0.348 OA
ATOM      6  O61 IDS d 303     134.755  12.625  74.179  0.00  0.00    -0.646 OA
ATOM      7  C4  IDS d 303     132.796  10.155  74.334  0.00  0.00     0.103 C 
ATOM      8  C3  IDS d 303     131.793   9.322  75.182  0.00  0.00     0.094 C 
ATOM      9  O62 IDS d 303     136.122  11.065  74.328  0.00  0.00    -0.646 OA
ATOM     10  O3  IDS d 303     131.027  10.217  75.969  0.00  0.00    -0.390 OA
ATOM     11  C5  IDS d 303     133.954  10.637  75.242  0.00  0.00     0.152 C 
ATOM     12  O2  IDS d 303     132.694   7.089  75.400  0.00  0.00    -0.244 OA
ATOM     13  C1  IDS d 303     133.820   8.736  76.747  0.00  0.00     0.161 C 
ATOM     14  S   IDS d 303     132.375   5.613  75.836  0.00  0.00     0.252 S 
ATOM     15  C2  IDS d 303     132.471   8.289  76.124  0.00  0.00     0.134 C 
ATOM     16  O5  IDS d 303     134.593   9.491  75.821  0.00  0.00    -0.340 OA
ATOM     17  H   IDS d 303     132.363  11.025  73.885  0.00  0.00     0.092 H 
ATOM     18  H   IDS d 303     131.193   8.763  74.495  0.00  0.00     0.091 H 
ATOM     19  H   IDS d 303     131.614  10.698  76.573  0.00  0.00     0.210 HD
ATOM     20  H   IDS d 303     133.509  11.270  75.980  0.00  0.00     0.104 H 
ATOM     21  H   IDS d 303     134.405   7.874  76.990  0.00  0.00     0.133 H 
ATOM     22  H   IDS d 303     131.794   8.165  76.944  0.00  0.00     0.097 H 
ATOM     23  C2  SGN d 304     132.910   8.071  71.221  0.00  0.00     0.081 C 
ATOM     24  C1  SGN d 304     132.892   9.408  72.013  0.00  0.00     0.150 C 
ATOM     25  O3  SGN d 304     134.368   6.355  70.348  0.00  0.00    -0.391 OA
ATOM     26  O3S SGN d 304     130.178   5.829  71.009  0.00  0.00    -0.296 OA
ATOM     27  O5S SGN d 304     134.518  12.465  67.254  0.00  0.00    -0.572 OA
ATOM     28  O2S SGN d 304     130.063   8.219  70.867  0.00  0.00    -0.296 OA
ATOM     29  O4S SGN d 304     136.821  12.155  67.832  0.00  0.00    -0.572 OA
ATOM     30  O4  SGN d 304     136.371   7.933  69.987  0.00  0.00    -0.348 OA
ATOM     31  O6  SGN d 304     135.065  11.619  69.402  0.00  0.00    -0.254 OA
ATOM     32  S1  SGN d 304     130.434   7.078  71.664  0.00  0.00     0.156 S 
ATOM     33  C4  SGN d 304     135.164   8.647  70.301  0.00  0.00     0.095 C 
ATOM     34  O6S SGN d 304     135.541  13.901  68.857  0.00  0.00    -0.572 OA
ATOM     35  N   SGN d 304     132.057   7.104  71.931  0.00  0.00    -0.210 NA
ATOM     36  C5  SGN d 304     135.111   9.965  71.141  0.00  0.00     0.091 C 
ATOM     37  C3  SGN d 304     134.361   7.570  71.077  0.00  0.00     0.083 C 
ATOM     38  C6  SGN d 304     135.823  11.168  70.506  0.00  0.00     0.067 C 
ATOM     39  O5  SGN d 304     133.739  10.371  71.385  0.00  0.00    -0.349 OA
ATOM     40  O1S SGN d 304     129.855   7.134  72.977  0.00  0.00    -0.296 OA
ATOM     41  S2  SGN d 304     135.525  12.593  68.271  0.00  0.00     0.251 S 
ATOM     42  H   SGN d 304     132.525   8.206  70.231  0.00  0.00     0.076 H 
ATOM     43  H   SGN d 304     131.887   9.775  72.010  0.00  0.00     0.131 H 
ATOM     44  H   SGN d 304     133.866   5.683  70.835  0.00  0.00     0.210 HD
ATOM     45  H   SGN d 304     130.586   5.836  70.129  0.00  0.00     0.231 HD
ATOM     46  H   SGN d 304     130.471   8.147  69.990  0.00  0.00     0.231 HD
ATOM     47  H   SGN d 304     134.834   9.045  69.364  0.00  0.00     0.091 H 
ATOM     48  H   SGN d 304     132.187   7.275  72.928  0.00  0.00     0.140 HD
ATOM     49  H   SGN d 304     135.627   9.712  72.043  0.00  0.00     0.090 H 
ATOM     50  H   SGN d 304     134.798   7.401  72.039  0.00  0.00     0.089 H 
ATOM     51  H   SGN d 304     135.913  11.954  71.226  0.00  0.00     0.080 H 
ATOM     52  H   SGN d 304     136.801  10.879  70.181  0.00  0.00     0.080 H 
ATOM     53  H   SGN d 304     128.888   7.122  72.905  0.00  0.00     0.231 HD
ATOM     54  O62 IDS d 301     135.139   6.841  82.982  0.00  0.00    -0.646 OA
ATOM     55  O1  IDS d 301     134.998   8.778  87.613  0.00  0.00    -0.368 OA
ATOM     56  C4  IDS d 301     135.040   9.943  83.693  0.00  0.00     0.103 C 
ATOM     57  C5  IDS d 301     135.533   8.668  84.476  0.00  0.00     0.152 C 
ATOM     58  O61 IDS d 301     137.111   7.170  83.515  0.00  0.00    -0.646 OA
ATOM     59  S   IDS d 301     134.508  12.562  87.958  0.00  0.00     0.252 S 
ATOM     60  C3  IDS d 301     134.285  10.916  84.653  0.00  0.00     0.094 C 
ATOM     61  C1  IDS d 301     134.251   9.150  86.489  0.00  0.00     0.158 C 
ATOM     62  C6  IDS d 301     135.947   7.488  83.605  0.00  0.00     0.206 C 
ATOM     63  O5  IDS d 301     134.498   8.258  85.396  0.00  0.00    -0.340 OA
ATOM     64  O4  IDS d 301     134.706  10.446  82.390  0.00  0.00    -0.348 OA
ATOM     65  O3S IDS d 301     133.458  12.743  88.929  0.00  0.00    -0.572 OA
ATOM     66  O1S IDS d 301     135.695  11.992  88.537  0.00  0.00    -0.572 OA
ATOM     67  C2  IDS d 301     134.632  10.616  86.124  0.00  0.00     0.134 C 
ATOM     68  O3  IDS d 301     134.652  12.253  84.351  0.00  0.00    -0.390 OA
ATOM     69  O2  IDS d 301     133.920  11.513  86.956  0.00  0.00    -0.244 OA
ATOM     70  O2S IDS d 301     134.767  13.747  87.181  0.00  0.00    -0.572 OA
ATOM     71  H   IDS d 301     134.817   9.394  88.340  0.00  0.00     0.212 HD
ATOM     72  H   IDS d 301     135.937   9.578  83.238  0.00  0.00     0.092 H 
ATOM     73  H   IDS d 301     136.427   8.962  84.985  0.00  0.00     0.104 H 
ATOM     74  H   IDS d 301     133.232  10.780  84.514  0.00  0.00     0.091 H 
ATOM     75  H   IDS d 301     133.204   9.091  86.703  0.00  0.00     0.133 H 
ATOM     76  H   IDS d 301     135.685  10.738  86.268  0.00  0.00     0.097 H 
ATOM     77  H   IDS d 301     135.606  12.364  84.480  0.00  0.00     0.210 HD
ATOM     78  O1S SGN d 302     135.775  15.034  81.639  0.00  0.00    -0.296 OA
ATOM     79  C2  SGN d 302     135.491  11.475  80.289  0.00  0.00     0.081 C 
ATOM     80  S2  SGN d 302     137.298   5.835  78.906  0.00  0.00     0.251 S 
ATOM     81  N   SGN d 302     135.238  12.802  80.877  0.00  0.00    -0.210 NA
ATOM     82  C4  SGN d 302     134.643   9.642  78.820  0.00  0.00     0.095 C 
ATOM     83  O6  SGN d 302     136.412   7.120  78.991  0.00  0.00    -0.254 OA
ATOM     84  C5  SGN d 302     134.826   8.659  80.021  0.00  0.00     0.091 C 
ATOM     85  O4S SGN d 302     136.464   4.780  78.400  0.00  0.00    -0.572 OA
ATOM     86  O2S SGN d 302     137.435  13.368  81.893  0.00  0.00    -0.296 OA
ATOM     87  S1  SGN d 302     136.425  13.909  81.037  0.00  0.00     0.156 S 
ATOM     88  O5S SGN d 302     138.355   6.168  78.001  0.00  0.00    -0.572 OA
ATOM     89  O6S SGN d 302     137.758   5.601  80.244  0.00  0.00    -0.572 OA
ATOM     90  C6  SGN d 302     135.154   7.211  79.616  0.00  0.00     0.067 C 
ATOM     91  O3  SGN d 302     134.167  11.981  78.362  0.00  0.00    -0.391 OA
ATOM     92  C3  SGN d 302     134.330  11.036  79.406  0.00  0.00     0.083 C 
ATOM     93  O4  SGN d 302     133.558   9.452  77.916  0.00  0.00    -0.348 OA
ATOM     94  O3S SGN d 302     136.893  14.178  79.708  0.00  0.00    -0.296 OA
ATOM     95  C1  SGN d 302     135.724  10.447  81.425  0.00  0.00     0.150 C 
ATOM     96  O5  SGN d 302     135.893   9.128  80.892  0.00  0.00    -0.349 OA
ATOM     97  H   SGN d 302     135.480  14.797  82.533  0.00  0.00     0.231 HD
ATOM     98  H   SGN d 302     136.365  11.532  79.673  0.00  0.00     0.076 H 
ATOM     99  H   SGN d 302     134.873  12.635  81.816  0.00  0.00     0.140 HD
ATOM    100  H   SGN d 302     135.548   9.493  78.271  0.00  0.00     0.091 H 
ATOM    101  H   SGN d 302     133.878   8.646  80.516  0.00  0.00     0.090 H 
ATOM    102  H   SGN d 302     137.062  13.207  82.774  0.00  0.00     0.231 HD
ATOM    103  H   SGN d 302     135.157   6.598  80.493  0.00  0.00     0.080 H 
ATOM    104  H   SGN d 302     134.410   6.881  78.921  0.00  0.00     0.080 H 
ATOM    105  H   SGN d 302     133.971  12.852  78.742  0.00  0.00     0.210 HD
ATOM    106  H   SGN d 302     133.427  10.980  79.976  0.00  0.00     0.089 H 
ATOM    107  H   SGN d 302     136.167  14.542  79.177  0.00  0.00     0.231 HD
ATOM    108  H   SGN d 302     136.622  10.752  81.920  0.00  0.00     0.131 H 
ATOM    109  C1  IDS d 305     137.088   8.303  68.836  0.00  0.00     0.161 C 
ATOM    110  O1S IDS d 305     140.411  10.083  71.388  0.00  0.00    -0.572 OA
ATOM    111  S   IDS d 305     139.981   8.741  71.109  0.00  0.00     0.252 S 
ATOM    112  C4  IDS d 305     138.452   6.483  66.861  0.00  0.00    -0.005 C 
ATOM    113  O61 IDS d 305     135.590   4.761  66.228  0.00  0.00    -0.646 OA
ATOM    114  O3  IDS d 305     140.552   7.147  67.845  0.00  0.00    -0.393 OA
ATOM    115  O62 IDS d 305     135.730   6.559  65.201  0.00  0.00    -0.646 OA
ATOM    116  O2S IDS d 305     139.008   8.279  72.053  0.00  0.00    -0.572 OA
ATOM    117  O2  IDS d 305     139.280   8.839  69.713  0.00  0.00    -0.244 OA
ATOM    118  O5  IDS d 305     136.498   7.749  67.649  0.00  0.00    -0.343 OA
ATOM    119  C5  IDS d 305     136.940   6.428  67.264  0.00  0.00     0.127 C 
ATOM    120  C3  IDS d 305     139.218   7.579  67.655  0.00  0.00     0.069 C 
ATOM    121  C2  IDS d 305     138.555   7.832  69.025  0.00  0.00     0.132 C 
ATOM    122  C6  IDS d 305     136.033   5.887  66.163  0.00  0.00     0.203 C 
ATOM    123  O3S IDS d 305     141.076   7.834  70.933  0.00  0.00    -0.572 OA
ATOM    124  H   IDS d 305     137.060   9.365  68.708  0.00  0.00     0.133 H 
ATOM    125  H   IDS d 305     138.899   5.532  67.062  0.00  0.00     0.041 H 
ATOM    126  H   IDS d 305     138.511   6.723  65.820  0.00  0.00     0.041 H 
ATOM    127  H   IDS d 305     140.967   6.988  66.983  0.00  0.00     0.210 HD
ATOM    128  H   IDS d 305     136.866   5.743  68.083  0.00  0.00     0.100 H 
ATOM    129  H   IDS d 305     139.197   8.494  67.102  0.00  0.00     0.087 H 
ATOM    130  H   IDS d 305     138.560   6.921  69.588  0.00  0.00     0.097 H 
ENDROOT
TORSDOF 39
ENDMDL
MODEL 9
REMARK VINA RESULT:      -6.6      1.810      2.253
REMARK  0 active torsions:
REMARK  status: ('A' for Active; 'I' for Inactive)
REMARK       I    between atoms: C2_2  and  N_68 
REMARK       I    between atoms: C1_3  and  O4_24 
REMARK       I    between atoms: O1S_5  and  S1_58 
REMARK       I    between atoms: O1_6  and  C1_31 
REMARK       I    between atoms: C4_7  and  O4_36 
REMARK       I    between atoms: C1_8  and  O4_37 
REMARK       I    between atoms: O3_9  and  C3_74 
REMARK       I    between atoms: C5_10  and  C6_32 
REMARK       I    between atoms: C2_11  and  N_20 
REMARK       I    between atoms: C6_12  and  C5_53 
REMARK       I    between atoms: S2_14  and  O6_33 
REMARK       I    between atoms: O3S_16  and  S1_51 
REMARK       I    between atoms: S_17  and  O2_44 
REMARK       I    between atoms: N_20  and  S1_58 
REMARK       I    between atoms: O4_24  and  C4_38 
REMARK       I    between atoms: S_25  and  O2_64 
REMARK       I    between atoms: O2S_27  and  S1_51 
REMARK       I    between atoms: C4_28  and  O4_73 
REMARK       I    between atoms: C3_30  and  O3_62 
REMARK       I    between atoms: O6_33  and  C6_63 
REMARK       I    between atoms: O3_35  and  C3_55 
REMARK       I    between atoms: O4_36  and  C1_84 
REMARK       I    between atoms: O4_37  and  C4_54 
REMARK       I    between atoms: C3_39  and  O3_48 
REMARK       I    between atoms: C5_42  and  C6_63 
REMARK       I    between atoms: O2_44  and  C2_61 
REMARK       I    between atoms: O6_45  and  C6_77 
REMARK       I    between atoms: O6_45  and  S2_82 
REMARK       I    between atoms: C5_49  and  C6_76 
REMARK       I    between atoms: S1_51  and  N_68 
REMARK       I    between atoms: S1_51  and  O1S_81 
REMARK       I    between atoms: O2S_52  and  S1_58 
REMARK       I    between atoms: C2_57  and  O2_64 
REMARK       I    between atoms: S1_58  and  O3S_75 
REMARK       I    between atoms: O3_66  and  C3_67 
REMARK       I    between atoms: O2_69  and  C2_79 
REMARK       I    between atoms: O2_69  and  S_72 
REMARK       I    between atoms: C5_70  and  C6_77 
REMARK       I    between atoms: C1_71  and  O4_73 
ROOT
ATOM      1  O2S IDS d 303     131.916   5.303  76.997  0.00  0.00    -0.572 OA
ATOM      2  C6  IDS d 303     135.510  11.578  76.486  0.00  0.00     0.206 C 
ATOM      3  O1S IDS d 303     134.156   5.007  77.774  0.00  0.00    -0.572 OA
ATOM      4  O3S IDS d 303     132.447   5.696  79.310  0.00  0.00    -0.572 OA
ATOM      5  O4  IDS d 303     133.281   9.574  75.722  0.00  0.00    -0.348 OA
ATOM      6  O61 IDS d 303     135.260  12.760  76.359  0.00  0.00    -0.646 OA
ATOM      7  C4  IDS d 303     133.241  10.395  76.899  0.00  0.00     0.103 C 
ATOM      8  C3  IDS d 303     132.501   9.507  77.940  0.00  0.00     0.094 C 
ATOM      9  O62 IDS d 303     136.447  11.126  75.862  0.00  0.00    -0.646 OA
ATOM     10  O3  IDS d 303     132.127  10.326  79.035  0.00  0.00    -0.390 OA
ATOM     11  C5  IDS d 303     134.673  10.690  77.406  0.00  0.00     0.152 C 
ATOM     12  O2  IDS d 303     133.211   7.222  77.594  0.00  0.00    -0.244 OA
ATOM     13  C1  IDS d 303     134.868   8.613  78.649  0.00  0.00     0.161 C 
ATOM     14  S   IDS d 303     132.918   5.719  77.948  0.00  0.00     0.252 S 
ATOM     15  C2  IDS d 303     133.353   8.323  78.477  0.00  0.00     0.134 C 
ATOM     16  O5  IDS d 303     135.358   9.445  77.605  0.00  0.00    -0.340 OA
ATOM     17  H   IDS d 303     132.767  11.338  76.723  0.00  0.00     0.092 H 
ATOM     18  H   IDS d 303     131.658   9.077  77.442  0.00  0.00     0.091 H 
ATOM     19  H   IDS d 303     132.922  10.691  79.452  0.00  0.00     0.210 HD
ATOM     20  H   IDS d 303     134.559  11.239  78.317  0.00  0.00     0.104 H 
ATOM     21  H   IDS d 303     135.418   7.698  78.584  0.00  0.00     0.133 H 
ATOM     22  H   IDS d 303     132.977   8.125  79.459  0.00  0.00     0.097 H 
ATOM     23  C2  SGN d 304     132.123   8.746  73.724  0.00  0.00     0.081 C 
ATOM     24  C1  SGN d 304     132.494   9.962  74.617  0.00  0.00     0.150 C 
ATOM     25  O3  SGN d 304     133.043   7.090  72.225  0.00  0.00    -0.391 OA
ATOM     26  O3S SGN d 304     129.278   6.695  74.209  0.00  0.00    -0.296 OA
ATOM     27  O5S SGN d 304     132.732  13.546  69.954  0.00  0.00    -0.572 OA
ATOM     28  O2S SGN d 304     129.346   9.085  74.378  0.00  0.00    -0.296 OA
ATOM     29  O4S SGN d 304     135.056  13.043  69.676  0.00  0.00    -0.572 OA
ATOM     30  O4  SGN d 304     134.953   8.598  71.381  0.00  0.00    -0.348 OA
ATOM     31  O6  SGN d 304     133.877  12.390  71.681  0.00  0.00    -0.254 OA
ATOM     32  S1  SGN d 304     129.852   7.829  74.871  0.00  0.00     0.156 S 
ATOM     33  C4  SGN d 304     133.990   9.324  72.162  0.00  0.00     0.095 C 
ATOM     34  O6S SGN d 304     134.357  14.698  71.261  0.00  0.00    -0.572 OA
ATOM     35  N   SGN d 304     131.467   7.737  74.572  0.00  0.00    -0.210 NA
ATOM     36  C5  SGN d 304     134.341  10.518  73.109  0.00  0.00     0.091 C 
ATOM     37  C3  SGN d 304     133.392   8.195  73.042  0.00  0.00     0.083 C 
ATOM     38  C6  SGN d 304     134.912  11.757  72.405  0.00  0.00     0.067 C 
ATOM     39  O5  SGN d 304     133.171  10.957  73.848  0.00  0.00    -0.349 OA
ATOM     40  O1S SGN d 304     129.747   7.737  76.301  0.00  0.00    -0.296 OA
ATOM     41  S2  SGN d 304     134.026  13.484  70.575  0.00  0.00     0.251 S 
ATOM     42  H   SGN d 304     131.447   9.031  72.946  0.00  0.00     0.076 H 
ATOM     43  H   SGN d 304     131.583  10.377  74.996  0.00  0.00     0.131 H 
ATOM     44  H   SGN d 304     132.670   6.385  72.778  0.00  0.00     0.210 HD
ATOM     45  H   SGN d 304     129.371   6.799  73.250  0.00  0.00     0.231 HD
ATOM     46  H   SGN d 304     129.433   9.111  73.412  0.00  0.00     0.231 HD
ATOM     47  H   SGN d 304     133.407   9.861  71.442  0.00  0.00     0.091 H 
ATOM     48  H   SGN d 304     131.935   7.765  75.478  0.00  0.00     0.140 HD
ATOM     49  H   SGN d 304     135.100  10.120  73.748  0.00  0.00     0.090 H 
ATOM     50  H   SGN d 304     134.104   7.876  73.773  0.00  0.00     0.089 H 
ATOM     51  H   SGN d 304     135.307  12.434  73.133  0.00  0.00     0.080 H 
ATOM     52  H   SGN d 304     135.696  11.466  71.737  0.00  0.00     0.080 H 
ATOM     53  H   SGN d 304     128.814   7.785  76.561  0.00  0.00     0.231 HD
ATOM     54  O62 IDS d 301     137.992   5.832  83.818  0.00  0.00    -0.646 OA
ATOM     55  O1  IDS d 301     139.573   7.132  88.403  0.00  0.00    -0.368 OA
ATOM     56  C4  IDS d 301     138.424   8.810  84.855  0.00  0.00     0.103 C 
ATOM     57  C5  IDS d 301     139.027   7.418  85.279  0.00  0.00     0.152 C 
ATOM     58  O61 IDS d 301     140.051   5.985  83.681  0.00  0.00    -0.646 OA
ATOM     59  S   IDS d 301     139.580  10.856  89.306  0.00  0.00     0.252 S 
ATOM     60  C3  IDS d 301     138.123   9.682  86.115  0.00  0.00     0.094 C 
ATOM     61  C1  IDS d 301     138.533   7.689  87.648  0.00  0.00     0.158 C 
ATOM     62  C6  IDS d 301     139.017   6.347  84.196  0.00  0.00     0.206 C 
ATOM     63  O5  IDS d 301     138.320   6.941  86.445  0.00  0.00    -0.340 OA
ATOM     64  O4  IDS d 301     137.726   9.500  83.806  0.00  0.00    -0.348 OA
ATOM     65  O3S IDS d 301     138.932  10.957  90.590  0.00  0.00    -0.572 OA
ATOM     66  O1S IDS d 301     140.833  10.153  89.381  0.00  0.00    -0.572 OA
ATOM     67  C2  IDS d 301     138.908   9.170  87.338  0.00  0.00     0.134 C 
ATOM     68  O3  IDS d 301     138.493  11.028  85.855  0.00  0.00    -0.390 OA
ATOM     69  O2  IDS d 301     138.598   9.982  88.455  0.00  0.00    -0.244 OA
ATOM     70  O2S IDS d 301     139.677  12.119  88.622  0.00  0.00    -0.572 OA
ATOM     71  H   IDS d 301     139.700   7.653  89.212  0.00  0.00     0.212 HD
ATOM     72  H   IDS d 301     139.082   8.465  84.085  0.00  0.00     0.092 H 
ATOM     73  H   IDS d 301     140.062   7.595  85.483  0.00  0.00     0.104 H 
ATOM     74  H   IDS d 301     137.076   9.620  86.328  0.00  0.00     0.091 H 
ATOM     75  H   IDS d 301     137.616   7.656  88.197  0.00  0.00     0.133 H 
ATOM     76  H   IDS d 301     139.956   9.217  87.128  0.00  0.00     0.097 H 
ATOM     77  H   IDS d 301     139.443  11.071  85.663  0.00  0.00     0.210 HD
ATOM     78  O1S SGN d 302     138.910  14.087  83.245  0.00  0.00    -0.296 OA
ATOM     79  C2  SGN d 302     137.865  10.761  81.690  0.00  0.00     0.081 C 
ATOM     80  S2  SGN d 302     138.577   5.274  79.166  0.00  0.00     0.251 S 
ATOM     81  N   SGN d 302     137.946  12.008  82.471  0.00  0.00    -0.210 NA
ATOM     82  C4  SGN d 302     136.411   9.189  80.406  0.00  0.00     0.095 C 
ATOM     83  O6  SGN d 302     137.893   6.580  79.687  0.00  0.00    -0.254 OA
ATOM     84  C5  SGN d 302     136.888   8.045  81.358  0.00  0.00     0.091 C 
ATOM     85  O4S SGN d 302     137.528   4.341  78.861  0.00  0.00    -0.572 OA
ATOM     86  O2S SGN d 302     140.398  12.319  82.734  0.00  0.00    -0.296 OA
ATOM     87  S1  SGN d 302     139.217  13.022  82.337  0.00  0.00     0.156 S 
ATOM     88  O5S SGN d 302     139.301   5.672  77.999  0.00  0.00    -0.572 OA
ATOM     89  O6S SGN d 302     139.429   4.839  80.234  0.00  0.00    -0.572 OA
ATOM     90  C6  SGN d 302     136.927   6.649  80.709  0.00  0.00     0.067 C 
ATOM     91  O3  SGN d 302     136.031  11.590  80.396  0.00  0.00    -0.391 OA
ATOM     92  C3  SGN d 302     136.441  10.505  81.212  0.00  0.00     0.083 C 
ATOM     93  O4  SGN d 302     135.076   9.177  79.909  0.00  0.00    -0.348 OA
ATOM     94  O3S SGN d 302     139.242  13.443  80.966  0.00  0.00    -0.296 OA
ATOM     95  C1  SGN d 302     138.363   9.579  82.559  0.00  0.00     0.150 C 
ATOM     96  O5  SGN d 302     138.222   8.337  81.859  0.00  0.00    -0.349 OA
ATOM     97  H   SGN d 302     138.907  13.747  84.153  0.00  0.00     0.231 HD
ATOM     98  H   SGN d 302     138.487  10.856  80.824  0.00  0.00     0.076 H 
ATOM     99  H   SGN d 302     137.898  11.736  83.453  0.00  0.00     0.140 HD
ATOM    100  H   SGN d 302     137.066   9.069  79.568  0.00  0.00     0.091 H 
ATOM    101  H   SGN d 302     136.160   8.014  82.141  0.00  0.00     0.090 H 
ATOM    102  H   SGN d 302     140.323  12.061  83.667  0.00  0.00     0.231 HD
ATOM    103  H   SGN d 302     137.163   5.924  81.460  0.00  0.00     0.080 H 
ATOM    104  H   SGN d 302     135.968   6.455  80.277  0.00  0.00     0.080 H 
ATOM    105  H   SGN d 302     136.055  12.410  80.913  0.00  0.00     0.210 HD
ATOM    106  H   SGN d 302     135.776  10.420  82.045  0.00  0.00     0.089 H 
ATOM    107  H   SGN d 302     138.419  13.911  80.757  0.00  0.00     0.231 HD
ATOM    108  H   SGN d 302     139.398   9.769  82.750  0.00  0.00     0.131 H 
ATOM    109  C1  IDS d 305     135.279   9.082  70.102  0.00  0.00     0.161 C 
ATOM    110  O1S IDS d 305     139.410  10.330  71.551  0.00  0.00    -0.572 OA
ATOM    111  S   IDS d 305     138.789   9.062  71.290  0.00  0.00     0.252 S 
ATOM    112  C4  IDS d 305     135.737   7.478  67.595  0.00  0.00    -0.005 C 
ATOM    113  O61 IDS d 305     132.679   6.005  67.787  0.00  0.00    -0.646 OA
ATOM    114  O3  IDS d 305     138.096   7.895  67.873  0.00  0.00    -0.393 OA
ATOM    115  O62 IDS d 305     132.639   7.915  66.978  0.00  0.00    -0.646 OA
ATOM    116  O2S IDS d 305     138.144   8.527  72.451  0.00  0.00    -0.572 OA
ATOM    117  O2  IDS d 305     137.678   9.383  70.235  0.00  0.00    -0.244 OA
ATOM    118  O5  IDS d 305     134.281   8.724  69.133  0.00  0.00    -0.343 OA
ATOM    119  C5  IDS d 305     134.446   7.446  68.479  0.00  0.00     0.127 C 
ATOM    120  C3  IDS d 305     136.822   8.416  68.196  0.00  0.00     0.069 C 
ATOM    121  C2  IDS d 305     136.676   8.515  69.728  0.00  0.00     0.132 C 
ATOM    122  C6  IDS d 305     133.179   7.105  67.700  0.00  0.00     0.203 C 
ATOM    123  O3S IDS d 305     139.675   8.132  70.654  0.00  0.00    -0.572 OA
ATOM    124  H   IDS d 305     135.311  10.152  70.108  0.00  0.00     0.133 H 
ATOM    125  H   IDS d 305     136.134   6.487  67.526  0.00  0.00     0.041 H 
ATOM    126  H   IDS d 305     135.470   7.852  66.628  0.00  0.00     0.041 H 
ATOM    127  H   IDS d 305     138.186   7.833  66.909  0.00  0.00     0.210 HD
ATOM    128  H   IDS d 305     134.583   6.662  69.194  0.00  0.00     0.100 H 
ATOM    129  H   IDS d 305     136.704   9.397  67.787  0.00  0.00     0.087 H 
ATOM    130  H   IDS d 305     136.781   7.539  70.153  0.00  0.00     0.097 H 
ENDROOT
TORSDOF 39
ENDMDL
MODEL 10
REMARK VINA RESULT:      -6.5      3.504      6.223
REMARK  0 active torsions:
REMARK  status: ('A' for Active; 'I' for Inactive)
REMARK       I    between atoms: C2_2  and  N_68 
REMARK       I    between atoms: C1_3  and  O4_24 
REMARK       I    between atoms: O1S_5  and  S1_58 
REMARK       I    between atoms: O1_6  and  C1_31 
REMARK       I    between atoms: C4_7  and  O4_36 
REMARK       I    between atoms: C1_8  and  O4_37 
REMARK       I    between atoms: O3_9  and  C3_74 
REMARK       I    between atoms: C5_10  and  C6_32 
REMARK       I    between atoms: C2_11  and  N_20 
REMARK       I    between atoms: C6_12  and  C5_53 
REMARK       I    between atoms: S2_14  and  O6_33 
REMARK       I    between atoms: O3S_16  and  S1_51 
REMARK       I    between atoms: S_17  and  O2_44 
REMARK       I    between atoms: N_20  and  S1_58 
REMARK       I    between atoms: O4_24  and  C4_38 
REMARK       I    between atoms: S_25  and  O2_64 
REMARK       I    between atoms: O2S_27  and  S1_51 
REMARK       I    between atoms: C4_28  and  O4_73 
REMARK       I    between atoms: C3_30  and  O3_62 
REMARK       I    between atoms: O6_33  and  C6_63 
REMARK       I    between atoms: O3_35  and  C3_55 
REMARK       I    between atoms: O4_36  and  C1_84 
REMARK       I    between atoms: O4_37  and  C4_54 
REMARK       I    between atoms: C3_39  and  O3_48 
REMARK       I    between atoms: C5_42  and  C6_63 
REMARK       I    between atoms: O2_44  and  C2_61 
REMARK       I    between atoms: O6_45  and  C6_77 
REMARK       I    between atoms: O6_45  and  S2_82 
REMARK       I    between atoms: C5_49  and  C6_76 
REMARK       I    between atoms: S1_51  and  N_68 
REMARK       I    between atoms: S1_51  and  O1S_81 
REMARK       I    between atoms: O2S_52  and  S1_58 
REMARK       I    between atoms: C2_57  and  O2_64 
REMARK       I    between atoms: S1_58  and  O3S_75 
REMARK       I    between atoms: O3_66  and  C3_67 
REMARK       I    between atoms: O2_69  and  C2_79 
REMARK       I    between atoms: O2_69  and  S_72 
REMARK       I    between atoms: C5_70  and  C6_77 
REMARK       I    between atoms: C1_71  and  O4_73 
ROOT
ATOM      1  O2S IDS d 303     130.160  16.003  74.907  0.00  0.00    -0.572 OA
ATOM      2  C6  IDS d 303     135.471  11.072  74.723  0.00  0.00     0.206 C 
ATOM      3  O1S IDS d 303     130.103  14.692  76.903  0.00  0.00    -0.572 OA
ATOM      4  O3S IDS d 303     131.450  16.675  76.822  0.00  0.00    -0.572 OA
ATOM      5  O4  IDS d 303     133.443  13.032  73.451  0.00  0.00    -0.348 OA
ATOM      6  O61 IDS d 303     136.504  10.873  74.116  0.00  0.00    -0.646 OA
ATOM      7  C4  IDS d 303     134.679  13.448  74.050  0.00  0.00     0.103 C 
ATOM      8  C3  IDS d 303     134.341  14.838  74.661  0.00  0.00     0.094 C 
ATOM      9  O62 IDS d 303     134.755  10.121  74.953  0.00  0.00    -0.646 OA
ATOM     10  O3  IDS d 303     135.558  15.480  75.002  0.00  0.00    -0.390 OA
ATOM     11  C5  IDS d 303     135.087  12.478  75.186  0.00  0.00     0.152 C 
ATOM     12  O2  IDS d 303     132.087  14.732  75.527  0.00  0.00    -0.244 OA
ATOM     13  C1  IDS d 303     133.707  13.558  76.866  0.00  0.00     0.161 C 
ATOM     14  S   IDS d 303     130.883  15.578  76.080  0.00  0.00     0.252 S 
ATOM     15  C2  IDS d 303     133.447  14.768  75.930  0.00  0.00     0.134 C 
ATOM     16  O5  IDS d 303     134.005  12.383  76.122  0.00  0.00    -0.340 OA
ATOM     17  H   IDS d 303     135.487  13.470  73.348  0.00  0.00     0.092 H 
ATOM     18  H   IDS d 303     133.786  15.377  73.923  0.00  0.00     0.091 H 
ATOM     19  H   IDS d 303     136.024  14.955  75.671  0.00  0.00     0.210 HD
ATOM     20  H   IDS d 303     135.970  12.891  75.627  0.00  0.00     0.104 H 
ATOM     21  H   IDS d 303     132.821  13.341  77.425  0.00  0.00     0.133 H 
ATOM     22  H   IDS d 303     133.693  15.640  76.499  0.00  0.00     0.097 H 
ATOM     23  C2  SGN d 304     131.919  13.152  71.532  0.00  0.00     0.081 C 
ATOM     24  C1  SGN d 304     133.376  12.977  72.042  0.00  0.00     0.150 C 
ATOM     25  O3  SGN d 304     129.748  12.096  71.471  0.00  0.00    -0.391 OA
ATOM     26  O3S SGN d 304     130.398  16.274  70.840  0.00  0.00    -0.296 OA
ATOM     27  O5S SGN d 304     134.685   9.335  67.608  0.00  0.00    -0.572 OA
ATOM     28  O2S SGN d 304     132.635  15.631  70.270  0.00  0.00    -0.296 OA
ATOM     29  O4S SGN d 304     133.998   7.462  68.933  0.00  0.00    -0.572 OA
ATOM     30  O4  SGN d 304     130.672   9.693  71.509  0.00  0.00    -0.348 OA
ATOM     31  O6  SGN d 304     134.296   9.643  69.928  0.00  0.00    -0.254 OA
ATOM     32  S1  SGN d 304     131.674  15.838  71.324  0.00  0.00     0.156 S 
ATOM     33  C4  SGN d 304     131.704  10.671  71.297  0.00  0.00     0.095 C 
ATOM     34  O6S SGN d 304     136.194   8.385  69.189  0.00  0.00    -0.572 OA
ATOM     35  N   SGN d 304     131.386  14.409  72.085  0.00  0.00    -0.210 NA
ATOM     36  C5  SGN d 304     133.164  10.546  71.843  0.00  0.00     0.091 C 
ATOM     37  C3  SGN d 304     131.072  11.931  71.946  0.00  0.00     0.083 C 
ATOM     38  C6  SGN d 304     133.970   9.369  71.275  0.00  0.00     0.067 C 
ATOM     39  O5  SGN d 304     133.927  11.749  71.565  0.00  0.00    -0.349 OA
ATOM     40  O1S SGN d 304     132.189  16.695  72.354  0.00  0.00    -0.296 OA
ATOM     41  S2  SGN d 304     134.823   8.637  68.856  0.00  0.00     0.251 S 
ATOM     42  H   SGN d 304     131.889  13.208  70.464  0.00  0.00     0.076 H 
ATOM     43  H   SGN d 304     133.955  13.791  71.657  0.00  0.00     0.131 H 
ATOM     44  H   SGN d 304     129.355  12.884  71.879  0.00  0.00     0.210 HD
ATOM     45  H   SGN d 304     130.090  15.668  70.148  0.00  0.00     0.231 HD
ATOM     46  H   SGN d 304     132.254  15.049  69.594  0.00  0.00     0.231 HD
ATOM     47  H   SGN d 304     131.922  10.611  70.251  0.00  0.00     0.091 H 
ATOM     48  H   SGN d 304     131.765  14.498  73.028  0.00  0.00     0.140 HD
ATOM     49  H   SGN d 304     133.030  10.383  72.891  0.00  0.00     0.090 H 
ATOM     50  H   SGN d 304     131.051  11.831  73.010  0.00  0.00     0.089 H 
ATOM     51  H   SGN d 304     134.867   9.240  71.843  0.00  0.00     0.080 H 
ATOM     52  H   SGN d 304     133.389   8.472  71.332  0.00  0.00     0.080 H 
ATOM     53  H   SGN d 304     132.387  17.568  71.980  0.00  0.00     0.231 HD
ATOM     54  O62 IDS d 301     133.170  14.535  83.421  0.00  0.00    -0.646 OA
ATOM     55  O1  IDS d 301     136.176  15.294  87.371  0.00  0.00    -0.368 OA
ATOM     56  C4  IDS d 301     136.285  13.888  83.532  0.00  0.00     0.103 C 
ATOM     57  C5  IDS d 301     135.167  14.019  84.634  0.00  0.00     0.152 C 
ATOM     58  O61 IDS d 301     133.151  12.764  84.492  0.00  0.00    -0.646 OA
ATOM     59  S   IDS d 301     139.934  14.708  86.902  0.00  0.00     0.252 S 
ATOM     60  C3  IDS d 301     137.615  14.542  84.023  0.00  0.00     0.094 C 
ATOM     61  C1  IDS d 301     136.421  15.578  86.021  0.00  0.00     0.158 C 
ATOM     62  C6  IDS d 301     133.744  13.763  84.151  0.00  0.00     0.206 C 
ATOM     63  O5  IDS d 301     135.252  15.331  85.230  0.00  0.00    -0.340 OA
ATOM     64  O4  IDS d 301     136.512  13.706  82.125  0.00  0.00    -0.348 OA
ATOM     65  O3S IDS d 301     140.590  15.872  87.442  0.00  0.00    -0.572 OA
ATOM     66  O1S IDS d 301     139.264  13.939  87.916  0.00  0.00    -0.572 OA
ATOM     67  C2  IDS d 301     137.619  14.696  85.557  0.00  0.00     0.134 C 
ATOM     68  O3  IDS d 301     138.712  13.729  83.635  0.00  0.00    -0.390 OA
ATOM     69  O2  IDS d 301     138.835  15.300  85.955  0.00  0.00    -0.244 OA
ATOM     70  O2S IDS d 301     140.792  13.915  86.060  0.00  0.00    -0.572 OA
ATOM     71  H   IDS d 301     136.979  15.467  87.888  0.00  0.00     0.212 HD
ATOM     72  H   IDS d 301     135.619  13.055  83.455  0.00  0.00     0.092 H 
ATOM     73  H   IDS d 301     135.361  13.243  85.344  0.00  0.00     0.104 H 
ATOM     74  H   IDS d 301     137.699  15.513  83.581  0.00  0.00     0.091 H 
ATOM     75  H   IDS d 301     136.664  16.612  85.897  0.00  0.00     0.133 H 
ATOM     76  H   IDS d 301     137.523  13.730  86.006  0.00  0.00     0.097 H 
ATOM     77  H   IDS d 301     138.624  12.853  84.041  0.00  0.00     0.210 HD
ATOM     78  O1S SGN d 302     140.387  11.164  80.997  0.00  0.00    -0.296 OA
ATOM     79  C2  SGN d 302     136.772  12.131  80.244  0.00  0.00     0.081 C 
ATOM     80  S2  SGN d 302     130.705  11.790  80.476  0.00  0.00     0.251 S 
ATOM     81  N   SGN d 302     138.225  12.122  80.489  0.00  0.00    -0.210 NA
ATOM     82  C4  SGN d 302     134.883  13.073  78.910  0.00  0.00     0.095 C 
ATOM     83  O6  SGN d 302     132.141  12.243  80.057  0.00  0.00    -0.254 OA
ATOM     84  C5  SGN d 302     134.214  13.511  80.254  0.00  0.00     0.091 C 
ATOM     85  O4S SGN d 302     129.782  12.737  79.915  0.00  0.00    -0.572 OA
ATOM     86  O2S SGN d 302     138.496  10.200  82.042  0.00  0.00    -0.296 OA
ATOM     87  S1  SGN d 302     139.028  10.743  80.831  0.00  0.00     0.156 S 
ATOM     88  O5S SGN d 302     130.546  10.484  79.913  0.00  0.00    -0.572 OA
ATOM     89  O6S SGN d 302     130.710  11.786  81.910  0.00  0.00    -0.572 OA
ATOM     90  C6  SGN d 302     132.676  13.535  80.224  0.00  0.00     0.067 C 
ATOM     91  O3  SGN d 302     137.078  12.695  77.939  0.00  0.00    -0.391 OA
ATOM     92  C3  SGN d 302     136.411  13.098  79.123  0.00  0.00     0.083 C 
ATOM     93  O4  SGN d 302     134.732  13.890  77.754  0.00  0.00    -0.348 OA
ATOM     94  O3S SGN d 302     138.840   9.888  79.695  0.00  0.00    -0.296 OA
ATOM     95  C1  SGN d 302     136.034  12.520  81.550  0.00  0.00     0.150 C 
ATOM     96  O5  SGN d 302     134.623  12.617  81.328  0.00  0.00    -0.349 OA
ATOM     97  H   SGN d 302     140.455  11.737  81.776  0.00  0.00     0.231 HD
ATOM     98  H   SGN d 302     136.468  11.151  79.938  0.00  0.00     0.076 H 
ATOM     99  H   SGN d 302     138.387  12.751  81.276  0.00  0.00     0.140 HD
ATOM    100  H   SGN d 302     134.394  12.143  78.712  0.00  0.00     0.091 H 
ATOM    101  H   SGN d 302     134.547  14.514  80.416  0.00  0.00     0.090 H 
ATOM    102  H   SGN d 302     138.652  10.821  82.771  0.00  0.00     0.231 HD
ATOM    103  H   SGN d 302     132.317  13.942  81.146  0.00  0.00     0.080 H 
ATOM    104  H   SGN d 302     132.367  14.135  79.394  0.00  0.00     0.080 H 
ATOM    105  H   SGN d 302     138.036  12.714  78.085  0.00  0.00     0.210 HD
ATOM    106  H   SGN d 302     136.712  14.093  79.376  0.00  0.00     0.089 H 
ATOM    107  H   SGN d 302     139.219  10.308  78.908  0.00  0.00     0.231 HD
ATOM    108  H   SGN d 302     136.235  11.733  82.247  0.00  0.00     0.131 H 
ATOM    109  C1  IDS d 305     130.566   8.625  70.602  0.00  0.00     0.161 C 
ATOM    110  O1S IDS d 305     132.097   5.708  73.744  0.00  0.00    -0.572 OA
ATOM    111  S   IDS d 305     130.867   6.429  73.571  0.00  0.00     0.252 S 
ATOM    112  C4  IDS d 305     128.045   7.399  69.500  0.00  0.00    -0.005 C 
ATOM    113  O61 IDS d 305     126.938  10.375  68.285  0.00  0.00    -0.646 OA
ATOM    114  O3  IDS d 305     128.422   5.529  70.976  0.00  0.00    -0.393 OA
ATOM    115  O62 IDS d 305     128.339   9.444  67.071  0.00  0.00    -0.646 OA
ATOM    116  O2S IDS d 305     130.895   7.707  74.218  0.00  0.00    -0.572 OA
ATOM    117  O2  IDS d 305     130.776   6.681  72.029  0.00  0.00    -0.244 OA
ATOM    118  O5  IDS d 305     129.887   9.023  69.399  0.00  0.00    -0.343 OA
ATOM    119  C5  IDS d 305     128.446   8.909  69.403  0.00  0.00     0.127 C 
ATOM    120  C3  IDS d 305     129.093   6.576  70.301  0.00  0.00     0.069 C 
ATOM    121  C2  IDS d 305     129.827   7.467  71.325  0.00  0.00     0.132 C 
ATOM    122  C6  IDS d 305     127.876   9.617  68.177  0.00  0.00     0.203 C 
ATOM    123  O3S IDS d 305     129.714   5.648  73.909  0.00  0.00    -0.572 OA
ATOM    124  H   IDS d 305     131.539   8.301  70.295  0.00  0.00     0.133 H 
ATOM    125  H   IDS d 305     127.096   7.324  69.989  0.00  0.00     0.041 H 
ATOM    126  H   IDS d 305     127.997   7.002  68.507  0.00  0.00     0.041 H 
ATOM    127  H   IDS d 305     127.962   4.971  70.331  0.00  0.00     0.210 HD
ATOM    128  H   IDS d 305     128.024   9.395  70.258  0.00  0.00     0.100 H 
ATOM    129  H   IDS d 305     129.821   6.180  69.625  0.00  0.00     0.087 H 
ATOM    130  H   IDS d 305     129.110   7.880  72.004  0.00  0.00     0.097 H 
ENDROOT
TORSDOF 39
ENDMDL
MODEL 11
REMARK VINA RESULT:      -6.4      3.563      5.580
REMARK  0 active torsions:
REMARK  status: ('A' for Active; 'I' for Inactive)
REMARK       I    between atoms: C2_2  and  N_68 
REMARK       I    between atoms: C1_3  and  O4_24 
REMARK       I    between atoms: O1S_5  and  S1_58 
REMARK       I    between atoms: O1_6  and  C1_31 
REMARK       I    between atoms: C4_7  and  O4_36 
REMARK       I    between atoms: C1_8  and  O4_37 
REMARK       I    between atoms: O3_9  and  C3_74 
REMARK       I    between atoms: C5_10  and  C6_32 
REMARK       I    between atoms: C2_11  and  N_20 
REMARK       I    between atoms: C6_12  and  C5_53 
REMARK       I    between atoms: S2_14  and  O6_33 
REMARK       I    between atoms: O3S_16  and  S1_51 
REMARK       I    between atoms: S_17  and  O2_44 
REMARK       I    between atoms: N_20  and  S1_58 
REMARK       I    between atoms: O4_24  and  C4_38 
REMARK       I    between atoms: S_25  and  O2_64 
REMARK       I    between atoms: O2S_27  and  S1_51 
REMARK       I    between atoms: C4_28  and  O4_73 
REMARK       I    between atoms: C3_30  and  O3_62 
REMARK       I    between atoms: O6_33  and  C6_63 
REMARK       I    between atoms: O3_35  and  C3_55 
REMARK       I    between atoms: O4_36  and  C1_84 
REMARK       I    between atoms: O4_37  and  C4_54 
REMARK       I    between atoms: C3_39  and  O3_48 
REMARK       I    between atoms: C5_42  and  C6_63 
REMARK       I    between atoms: O2_44  and  C2_61 
REMARK       I    between atoms: O6_45  and  C6_77 
REMARK       I    between atoms: O6_45  and  S2_82 
REMARK       I    between atoms: C5_49  and  C6_76 
REMARK       I    between atoms: S1_51  and  N_68 
REMARK       I    between atoms: S1_51  and  O1S_81 
REMARK       I    between atoms: O2S_52  and  S1_58 
REMARK       I    between atoms: C2_57  and  O2_64 
REMARK       I    between atoms: S1_58  and  O3S_75 
REMARK       I    between atoms: O3_66  and  C3_67 
REMARK       I    between atoms: O2_69  and  C2_79 
REMARK       I    between atoms: O2_69  and  S_72 
REMARK       I    between atoms: C5_70  and  C6_77 
REMARK       I    between atoms: C1_71  and  O4_73 
ROOT
ATOM      1  O2S IDS d 303     130.083  14.286  79.406  0.00  0.00    -0.572 OA
ATOM      2  C6  IDS d 303     136.292  12.085  76.381  0.00  0.00     0.206 C 
ATOM      3  O1S IDS d 303     130.700  12.161  80.304  0.00  0.00    -0.572 OA
ATOM      4  O3S IDS d 303     131.499  14.167  81.346  0.00  0.00    -0.572 OA
ATOM      5  O4  IDS d 303     133.661  13.709  76.475  0.00  0.00    -0.348 OA
ATOM      6  O61 IDS d 303     137.216  12.563  75.755  0.00  0.00    -0.646 OA
ATOM      7  C4  IDS d 303     134.850  14.083  77.188  0.00  0.00     0.103 C 
ATOM      8  C3  IDS d 303     134.307  14.748  78.486  0.00  0.00     0.094 C 
ATOM      9  O62 IDS d 303     135.877  10.998  76.039  0.00  0.00    -0.646 OA
ATOM     10  O3  IDS d 303     135.376  15.432  79.114  0.00  0.00    -0.390 OA
ATOM     11  C5  IDS d 303     135.675  12.828  77.566  0.00  0.00     0.152 C 
ATOM     12  O2  IDS d 303     132.336  13.525  79.168  0.00  0.00    -0.244 OA
ATOM     13  C1  IDS d 303     134.402  12.362  79.581  0.00  0.00     0.161 C 
ATOM     14  S   IDS d 303     131.085  13.534  80.120  0.00  0.00     0.252 S 
ATOM     15  C2  IDS d 303     133.698  13.742  79.502  0.00  0.00     0.134 C 
ATOM     16  O5  IDS d 303     134.833  11.926  78.297  0.00  0.00    -0.340 OA
ATOM     17  H   IDS d 303     135.489  14.720  76.612  0.00  0.00     0.092 H 
ATOM     18  H   IDS d 303     133.515  15.404  78.192  0.00  0.00     0.091 H 
ATOM     19  H   IDS d 303     136.066  14.797  79.361  0.00  0.00     0.210 HD
ATOM     20  H   IDS d 303     136.498  13.179  78.151  0.00  0.00     0.104 H 
ATOM     21  H   IDS d 303     133.709  11.625  79.929  0.00  0.00     0.133 H 
ATOM     22  H   IDS d 303     133.828  14.195  80.462  0.00  0.00     0.097 H 
ATOM     23  C2  SGN d 304     131.833  14.385  74.986  0.00  0.00     0.081 C 
ATOM     24  C1  SGN d 304     133.357  14.406  75.286  0.00  0.00     0.150 C 
ATOM     25  O3  SGN d 304     130.001  12.939  74.365  0.00  0.00    -0.391 OA
ATOM     26  O3S SGN d 304     129.513  16.763  76.210  0.00  0.00    -0.296 OA
ATOM     27  O5S SGN d 304     134.675  14.319  69.551  0.00  0.00    -0.572 OA
ATOM     28  O2S SGN d 304     131.699  17.232  75.346  0.00  0.00    -0.296 OA
ATOM     29  O4S SGN d 304     134.703  11.924  69.586  0.00  0.00    -0.572 OA
ATOM     30  O4  SGN d 304     131.462  11.301  73.018  0.00  0.00    -0.348 OA
ATOM     31  O6  SGN d 304     134.648  13.195  71.640  0.00  0.00    -0.254 OA
ATOM     32  S1  SGN d 304     130.923  16.539  76.344  0.00  0.00     0.156 S 
ATOM     33  C4  SGN d 304     132.176  12.493  73.385  0.00  0.00     0.095 C 
ATOM     34  O6S SGN d 304     136.626  13.168  70.292  0.00  0.00    -0.572 OA
ATOM     35  N   SGN d 304     131.125  14.917  76.162  0.00  0.00    -0.210 NA
ATOM     36  C5  SGN d 304     133.697  12.536  73.743  0.00  0.00     0.091 C 
ATOM     37  C3  SGN d 304     131.390  12.948  74.643  0.00  0.00     0.083 C 
ATOM     38  C6  SGN d 304     134.644  12.155  72.597  0.00  0.00     0.067 C 
ATOM     39  O5  SGN d 304     134.090  13.861  74.188  0.00  0.00    -0.349 OA
ATOM     40  O1S SGN d 304     131.395  16.813  77.672  0.00  0.00    -0.296 OA
ATOM     41  S2  SGN d 304     135.197  13.137  70.179  0.00  0.00     0.251 S 
ATOM     42  H   SGN d 304     131.598  14.996  74.140  0.00  0.00     0.076 H 
ATOM     43  H   SGN d 304     133.647  15.428  75.424  0.00  0.00     0.131 H 
ATOM     44  H   SGN d 304     129.511  13.222  75.153  0.00  0.00     0.210 HD
ATOM     45  H   SGN d 304     129.239  16.566  75.301  0.00  0.00     0.231 HD
ATOM     46  H   SGN d 304     131.352  17.024  74.465  0.00  0.00     0.231 HD
ATOM     47  H   SGN d 304     132.210  13.075  72.488  0.00  0.00     0.091 H 
ATOM     48  H   SGN d 304     131.635  14.592  76.984  0.00  0.00     0.140 HD
ATOM     49  H   SGN d 304     133.797  11.802  74.515  0.00  0.00     0.090 H 
ATOM     50  H   SGN d 304     131.585  12.288  75.462  0.00  0.00     0.089 H 
ATOM     51  H   SGN d 304     135.634  12.015  72.979  0.00  0.00     0.080 H 
ATOM     52  H   SGN d 304     134.314  11.244  72.142  0.00  0.00     0.080 H 
ATOM     53  H   SGN d 304     131.308  17.761  77.858  0.00  0.00     0.231 HD
ATOM     54  O62 IDS d 301     134.838   9.437  85.536  0.00  0.00    -0.646 OA
ATOM     55  O1  IDS d 301     138.237   8.801  89.177  0.00  0.00    -0.368 OA
ATOM     56  C4  IDS d 301     137.985   9.796  85.218  0.00  0.00     0.103 C 
ATOM     57  C5  IDS d 301     137.085   8.971  86.213  0.00  0.00     0.152 C 
ATOM     58  O61 IDS d 301     135.434   7.459  85.411  0.00  0.00    -0.646 OA
ATOM     59  S   IDS d 301     141.879   9.713  88.407  0.00  0.00     0.252 S 
ATOM     60  C3  IDS d 301     139.187  10.443  85.976  0.00  0.00     0.094 C 
ATOM     61  C1  IDS d 301     138.160   9.825  88.224  0.00  0.00     0.158 C 
ATOM     62  C6  IDS d 301     135.701   8.605  85.690  0.00  0.00     0.206 C 
ATOM     63  O5  IDS d 301     136.961   9.709  87.449  0.00  0.00    -0.340 OA
ATOM     64  O4  IDS d 301     137.991  10.478  83.954  0.00  0.00    -0.348 OA
ATOM     65  O3S IDS d 301     142.326  10.534  89.504  0.00  0.00    -0.572 OA
ATOM     66  O1S IDS d 301     141.606   8.360  88.813  0.00  0.00    -0.572 OA
ATOM     67  C2  IDS d 301     139.430   9.738  87.325  0.00  0.00     0.134 C 
ATOM     68  O3  IDS d 301     140.357  10.338  85.179  0.00  0.00    -0.390 OA
ATOM     69  O2  IDS d 301     140.519  10.361  87.979  0.00  0.00    -0.244 OA
ATOM     70  O2S IDS d 301     142.736   9.798  87.253  0.00  0.00    -0.572 OA
ATOM     71  H   IDS d 301     139.055   8.898  89.690  0.00  0.00     0.212 HD
ATOM     72  H   IDS d 301     137.534   8.982  84.690  0.00  0.00     0.092 H 
ATOM     73  H   IDS d 301     137.583   8.035  86.354  0.00  0.00     0.104 H 
ATOM     74  H   IDS d 301     138.956  11.471  86.162  0.00  0.00     0.091 H 
ATOM     75  H   IDS d 301     138.124  10.779  88.706  0.00  0.00     0.133 H 
ATOM     76  H   IDS d 301     139.649   8.706  87.147  0.00  0.00     0.097 H 
ATOM     77  H   IDS d 301     140.556   9.403  85.017  0.00  0.00     0.210 HD
ATOM     78  O1S SGN d 302     142.092  10.240  81.528  0.00  0.00    -0.296 OA
ATOM     79  C2  SGN d 302     138.276  10.330  81.507  0.00  0.00     0.081 C 
ATOM     80  S2  SGN d 302     132.608   8.127  81.586  0.00  0.00     0.251 S 
ATOM     81  N   SGN d 302     139.709  10.624  81.685  0.00  0.00    -0.210 NA
ATOM     82  C4  SGN d 302     136.008  11.228  80.971  0.00  0.00     0.095 C 
ATOM     83  O6  SGN d 302     133.795   9.138  81.479  0.00  0.00    -0.254 OA
ATOM     84  C5  SGN d 302     135.508  10.649  82.334  0.00  0.00     0.091 C 
ATOM     85  O4S SGN d 302     131.401   8.901  81.675  0.00  0.00    -0.572 OA
ATOM     86  O2S SGN d 302     140.704   8.353  81.866  0.00  0.00    -0.296 OA
ATOM     87  S1  SGN d 302     140.865   9.593  81.172  0.00  0.00     0.156 S 
ATOM     88  O5S SGN d 302     132.666   7.355  80.383  0.00  0.00    -0.572 OA
ATOM     89  O6S SGN d 302     132.872   7.352  82.763  0.00  0.00    -0.572 OA
ATOM     90  C6  SGN d 302     134.029  10.225  82.344  0.00  0.00     0.067 C 
ATOM     91  O3  SGN d 302     138.019  12.108  79.927  0.00  0.00    -0.391 OA
ATOM     92  C3  SGN d 302     137.500  11.588  81.140  0.00  0.00     0.083 C 
ATOM     93  O4  SGN d 302     135.462  12.450  80.486  0.00  0.00    -0.348 OA
ATOM     94  O3S SGN d 302     140.685   9.476  79.753  0.00  0.00    -0.296 OA
ATOM     95  C1  SGN d 302     137.714   9.712  82.813  0.00  0.00     0.150 C 
ATOM     96  O5  SGN d 302     136.304   9.488  82.705  0.00  0.00    -0.349 OA
ATOM     97  H   SGN d 302     142.161  10.292  82.495  0.00  0.00     0.231 HD
ATOM     98  H   SGN d 302     138.164   9.632  80.703  0.00  0.00     0.076 H 
ATOM     99  H   SGN d 302     139.856  10.744  82.687  0.00  0.00     0.140 HD
ATOM    100  H   SGN d 302     135.727  10.456  80.286  0.00  0.00     0.091 H 
ATOM    101  H   SGN d 302     135.616  11.451  83.033  0.00  0.00     0.090 H 
ATOM    102  H   SGN d 302     140.837   8.495  82.817  0.00  0.00     0.231 HD
ATOM    103  H   SGN d 302     133.755   9.942  83.339  0.00  0.00     0.080 H 
ATOM    104  H   SGN d 302     133.442  11.053  82.006  0.00  0.00     0.080 H 
ATOM    105  H   SGN d 302     138.955  12.330  80.046  0.00  0.00     0.210 HD
ATOM    106  H   SGN d 302     137.595  12.325  81.909  0.00  0.00     0.089 H 
ATOM    107  H   SGN d 302     140.805  10.344  79.339  0.00  0.00     0.231 HD
ATOM    108  H   SGN d 302     138.219   8.776  82.936  0.00  0.00     0.131 H 
ATOM    109  C1  IDS d 305     131.451  10.917  71.665  0.00  0.00     0.161 C 
ATOM    110  O1S IDS d 305     134.172   7.382  72.572  0.00  0.00    -0.572 OA
ATOM    111  S   IDS d 305     132.796   7.677  72.857  0.00  0.00     0.252 S 
ATOM    112  C4  IDS d 305     129.139   9.794  70.097  0.00  0.00    -0.005 C 
ATOM    113  O61 IDS d 305     127.155  12.463  70.803  0.00  0.00    -0.646 OA
ATOM    114  O3  IDS d 305     130.210   7.638  70.243  0.00  0.00    -0.393 OA
ATOM    115  O62 IDS d 305     128.495  12.802  69.256  0.00  0.00    -0.646 OA
ATOM    116  O2S IDS d 305     132.635   8.342  74.115  0.00  0.00    -0.572 OA
ATOM    117  O2  IDS d 305     132.371   8.679  71.732  0.00  0.00    -0.244 OA
ATOM    118  O5  IDS d 305     130.493  11.676  70.911  0.00  0.00    -0.343 OA
ATOM    119  C5  IDS d 305     129.145  11.155  70.870  0.00  0.00     0.127 C 
ATOM    120  C3  IDS d 305     130.480   9.026  70.274  0.00  0.00     0.069 C 
ATOM    121  C2  IDS d 305     131.152   9.394  71.613  0.00  0.00     0.132 C 
ATOM    122  C6  IDS d 305     128.212  12.204  70.271  0.00  0.00     0.203 C 
ATOM    123  O3S IDS d 305     131.942   6.535  72.706  0.00  0.00    -0.572 OA
ATOM    124  H   IDS d 305     132.402  11.117  71.216  0.00  0.00     0.133 H 
ATOM    125  H   IDS d 305     128.339   9.188  70.469  0.00  0.00     0.041 H 
ATOM    126  H   IDS d 305     129.009  10.003  69.055  0.00  0.00     0.041 H 
ATOM    127  H   IDS d 305     129.787   7.409  69.401  0.00  0.00     0.210 HD
ATOM    128  H   IDS d 305     128.781  10.951  71.855  0.00  0.00     0.100 H 
ATOM    129  H   IDS d 305     131.147   9.296  69.482  0.00  0.00     0.087 H 
ATOM    130  H   IDS d 305     130.492   9.140  72.416  0.00  0.00     0.097 H 
ENDROOT
TORSDOF 39
ENDMDL
MODEL 12
REMARK VINA RESULT:      -6.2      4.424      6.453
REMARK  0 active torsions:
REMARK  status: ('A' for Active; 'I' for Inactive)
REMARK       I    between atoms: C2_2  and  N_68 
REMARK       I    between atoms: C1_3  and  O4_24 
REMARK       I    between atoms: O1S_5  and  S1_58 
REMARK       I    between atoms: O1_6  and  C1_31 
REMARK       I    between atoms: C4_7  and  O4_36 
REMARK       I    between atoms: C1_8  and  O4_37 
REMARK       I    between atoms: O3_9  and  C3_74 
REMARK       I    between atoms: C5_10  and  C6_32 
REMARK       I    between atoms: C2_11  and  N_20 
REMARK       I    between atoms: C6_12  and  C5_53 
REMARK       I    between atoms: S2_14  and  O6_33 
REMARK       I    between atoms: O3S_16  and  S1_51 
REMARK       I    between atoms: S_17  and  O2_44 
REMARK       I    between atoms: N_20  and  S1_58 
REMARK       I    between atoms: O4_24  and  C4_38 
REMARK       I    between atoms: S_25  and  O2_64 
REMARK       I    between atoms: O2S_27  and  S1_51 
REMARK       I    between atoms: C4_28  and  O4_73 
REMARK       I    between atoms: C3_30  and  O3_62 
REMARK       I    between atoms: O6_33  and  C6_63 
REMARK       I    between atoms: O3_35  and  C3_55 
REMARK       I    between atoms: O4_36  and  C1_84 
REMARK       I    between atoms: O4_37  and  C4_54 
REMARK       I    between atoms: C3_39  and  O3_48 
REMARK       I    between atoms: C5_42  and  C6_63 
REMARK       I    between atoms: O2_44  and  C2_61 
REMARK       I    between atoms: O6_45  and  C6_77 
REMARK       I    between atoms: O6_45  and  S2_82 
REMARK       I    between atoms: C5_49  and  C6_76 
REMARK       I    between atoms: S1_51  and  N_68 
REMARK       I    between atoms: S1_51  and  O1S_81 
REMARK       I    between atoms: O2S_52  and  S1_58 
REMARK       I    between atoms: C2_57  and  O2_64 
REMARK       I    between atoms: S1_58  and  O3S_75 
REMARK       I    between atoms: O3_66  and  C3_67 
REMARK       I    between atoms: O2_69  and  C2_79 
REMARK       I    between atoms: O2_69  and  S_72 
REMARK       I    between atoms: C5_70  and  C6_77 
REMARK       I    between atoms: C1_71  and  O4_73 
ROOT
ATOM      1  O2S IDS d 303     129.365   8.922  79.798  0.00  0.00    -0.572 OA
ATOM      2  C6  IDS d 303     135.437  12.660  78.485  0.00  0.00     0.206 C 
ATOM      3  O1S IDS d 303     131.139   7.409  79.278  0.00  0.00    -0.572 OA
ATOM      4  O3S IDS d 303     130.785   8.086  81.550  0.00  0.00    -0.572 OA
ATOM      5  O4  IDS d 303     132.369  12.302  78.665  0.00  0.00    -0.348 OA
ATOM      6  O61 IDS d 303     135.877  13.775  78.681  0.00  0.00    -0.646 OA
ATOM      7  C4  IDS d 303     133.212  12.513  79.808  0.00  0.00     0.103 C 
ATOM      8  C3  IDS d 303     132.516  11.695  80.934  0.00  0.00     0.094 C 
ATOM      9  O62 IDS d 303     135.664  12.141  77.412  0.00  0.00    -0.646 OA
ATOM     10  O3  IDS d 303     133.079  12.081  82.175  0.00  0.00    -0.390 OA
ATOM     11  C5  IDS d 303     134.625  11.933  79.556  0.00  0.00     0.152 C 
ATOM     12  O2  IDS d 303     131.629   9.680  79.936  0.00  0.00    -0.244 OA
ATOM     13  C1  IDS d 303     134.021   9.671  80.201  0.00  0.00     0.161 C 
ATOM     14  S   IDS d 303     130.679   8.447  80.160  0.00  0.00     0.252 S 
ATOM     15  C2  IDS d 303     132.666  10.156  80.779  0.00  0.00     0.134 C 
ATOM     16  O5  IDS d 303     134.498  10.552  79.191  0.00  0.00    -0.340 OA
ATOM     17  H   IDS d 303     133.333  13.551  80.041  0.00  0.00     0.092 H 
ATOM     18  H   IDS d 303     131.469  11.909  80.874  0.00  0.00     0.091 H 
ATOM     19  H   IDS d 303     134.025  11.868  82.181  0.00  0.00     0.210 HD
ATOM     20  H   IDS d 303     135.167  12.062  80.470  0.00  0.00     0.104 H 
ATOM     21  H   IDS d 303     133.889   8.720  79.728  0.00  0.00     0.133 H 
ATOM     22  H   IDS d 303     132.612   9.765  81.774  0.00  0.00     0.097 H 
ATOM     23  C2  SGN d 304     130.343  12.929  77.433  0.00  0.00     0.081 C 
ATOM     24  C1  SGN d 304     131.619  13.397  78.185  0.00  0.00     0.150 C 
ATOM     25  O3  SGN d 304     129.572  11.794  75.445  0.00  0.00    -0.391 OA
ATOM     26  O3S SGN d 304     127.221  12.299  78.979  0.00  0.00    -0.296 OA
ATOM     27  O5S SGN d 304     132.219  18.061  74.646  0.00  0.00    -0.572 OA
ATOM     28  O2S SGN d 304     128.687  14.136  79.447  0.00  0.00    -0.296 OA
ATOM     29  O4S SGN d 304     133.574  16.766  73.155  0.00  0.00    -0.572 OA
ATOM     30  O4  SGN d 304     131.562  12.531  73.987  0.00  0.00    -0.348 OA
ATOM     31  O6  SGN d 304     133.016  15.943  75.357  0.00  0.00    -0.254 OA
ATOM     32  S1  SGN d 304     128.523  12.705  79.420  0.00  0.00     0.156 S 
ATOM     33  C4  SGN d 304     131.525  13.220  75.247  0.00  0.00     0.095 C 
ATOM     34  O6S SGN d 304     134.540  17.772  75.104  0.00  0.00    -0.572 OA
ATOM     35  N   SGN d 304     129.573  12.056  78.333  0.00  0.00    -0.210 NA
ATOM     36  C5  SGN d 304     132.793  13.656  76.052  0.00  0.00     0.091 C 
ATOM     37  C3  SGN d 304     130.742  12.211  76.128  0.00  0.00     0.083 C 
ATOM     38  C6  SGN d 304     133.680  14.695  75.351  0.00  0.00     0.067 C 
ATOM     39  O5  SGN d 304     132.424  14.219  77.339  0.00  0.00    -0.349 OA
ATOM     40  O1S SGN d 304     128.887  12.103  80.673  0.00  0.00    -0.296 OA
ATOM     41  S2  SGN d 304     133.366  17.206  74.508  0.00  0.00     0.251 S 
ATOM     42  H   SGN d 304     129.731  13.763  77.158  0.00  0.00     0.076 H 
ATOM     43  H   SGN d 304     131.305  13.973  79.031  0.00  0.00     0.131 H 
ATOM     44  H   SGN d 304     129.084  11.163  75.997  0.00  0.00     0.210 HD
ATOM     45  H   SGN d 304     127.018  12.727  78.134  0.00  0.00     0.231 HD
ATOM     46  H   SGN d 304     128.433  14.506  78.587  0.00  0.00     0.231 HD
ATOM     47  H   SGN d 304     131.146  14.193  75.013  0.00  0.00     0.091 H 
ATOM     48  H   SGN d 304     130.252  11.515  78.869  0.00  0.00     0.140 HD
ATOM     49  H   SGN d 304     133.355  12.751  76.150  0.00  0.00     0.090 H 
ATOM     50  H   SGN d 304     131.346  11.354  76.339  0.00  0.00     0.089 H 
ATOM     51  H   SGN d 304     134.612  14.782  75.871  0.00  0.00     0.080 H 
ATOM     52  H   SGN d 304     133.869  14.390  74.343  0.00  0.00     0.080 H 
ATOM     53  H   SGN d 304     128.307  12.439  81.374  0.00  0.00     0.231 HD
ATOM     54  O62 IDS d 301     136.562   4.008  82.585  0.00  0.00    -0.646 OA
ATOM     55  O1  IDS d 301     140.067   2.546  85.869  0.00  0.00    -0.368 OA
ATOM     56  C4  IDS d 301     138.935   5.818  83.693  0.00  0.00     0.103 C 
ATOM     57  C5  IDS d 301     138.742   4.262  83.538  0.00  0.00     0.152 C 
ATOM     58  O61 IDS d 301     138.140   3.301  81.447  0.00  0.00    -0.646 OA
ATOM     59  S   IDS d 301     142.500   5.194  87.192  0.00  0.00     0.252 S 
ATOM     60  C3  IDS d 301     139.642   6.149  85.046  0.00  0.00     0.094 C 
ATOM     61  C1  IDS d 301     139.346   3.746  85.839  0.00  0.00     0.158 C 
ATOM     62  C6  IDS d 301     137.752   3.833  82.463  0.00  0.00     0.206 C 
ATOM     63  O5  IDS d 301     138.347   3.713  84.814  0.00  0.00    -0.340 OA
ATOM     64  O4  IDS d 301     138.443   7.096  83.260  0.00  0.00    -0.348 OA
ATOM     65  O3S IDS d 301     142.518   5.041  88.625  0.00  0.00    -0.572 OA
ATOM     66  O1S IDS d 301     143.062   4.057  86.514  0.00  0.00    -0.572 OA
ATOM     67  C2  IDS d 301     140.360   4.907  85.609  0.00  0.00     0.134 C 
ATOM     68  O3  IDS d 301     140.592   7.183  84.840  0.00  0.00    -0.390 OA
ATOM     69  O2  IDS d 301     140.976   5.250  86.836  0.00  0.00    -0.244 OA
ATOM     70  O2S IDS d 301     143.053   6.449  86.751  0.00  0.00    -0.572 OA
ATOM     71  H   IDS d 301     140.738   2.588  86.569  0.00  0.00     0.212 HD
ATOM     72  H   IDS d 301     138.964   5.563  82.654  0.00  0.00     0.092 H 
ATOM     73  H   IDS d 301     139.686   3.879  83.213  0.00  0.00     0.104 H 
ATOM     74  H   IDS d 301     138.898   6.463  85.748  0.00  0.00     0.091 H 
ATOM     75  H   IDS d 301     138.832   3.894  86.766  0.00  0.00     0.133 H 
ATOM     76  H   IDS d 301     141.097   4.579  84.906  0.00  0.00     0.097 H 
ATOM     77  H   IDS d 301     141.260   6.886  84.202  0.00  0.00     0.210 HD
ATOM     78  O1S SGN d 302     141.738  10.524  82.872  0.00  0.00    -0.296 OA
ATOM     79  C2  SGN d 302     138.531   8.904  81.583  0.00  0.00     0.081 C 
ATOM     80  S2  SGN d 302     135.074   5.167  78.257  0.00  0.00     0.251 S 
ATOM     81  N   SGN d 302     139.569   9.565  82.393  0.00  0.00    -0.210 NA
ATOM     82  C4  SGN d 302     136.108   8.771  80.995  0.00  0.00     0.095 C 
ATOM     83  O6  SGN d 302     135.485   6.309  79.241  0.00  0.00    -0.254 OA
ATOM     84  C5  SGN d 302     136.144   7.258  81.389  0.00  0.00     0.091 C 
ATOM     85  O4S SGN d 302     133.655   4.985  78.389  0.00  0.00    -0.572 OA
ATOM     86  O2S SGN d 302     141.669   8.657  81.419  0.00  0.00    -0.296 OA
ATOM     87  S1  SGN d 302     141.049   9.893  81.787  0.00  0.00     0.156 S 
ATOM     88  O5S SGN d 302     135.437   5.645  76.958  0.00  0.00    -0.572 OA
ATOM     89  O6S SGN d 302     135.833   4.021  78.665  0.00  0.00    -0.572 OA
ATOM     90  C6  SGN d 302     135.156   6.372  80.609  0.00  0.00     0.067 C 
ATOM     91  O3  SGN d 302     137.184  10.880  81.540  0.00  0.00    -0.391 OA
ATOM     92  C3  SGN d 302     137.157   9.500  81.861  0.00  0.00     0.083 C 
ATOM     93  O4  SGN d 302     134.933   9.534  81.249  0.00  0.00    -0.348 OA
ATOM     94  O3S SGN d 302     140.832  10.772  80.674  0.00  0.00    -0.296 OA
ATOM     95  C1  SGN d 302     138.532   7.385  81.891  0.00  0.00     0.150 C 
ATOM     96  O5  SGN d 302     137.480   6.720  81.182  0.00  0.00    -0.349 OA
ATOM     97  H   SGN d 302     141.857   9.886  83.594  0.00  0.00     0.231 HD
ATOM     98  H   SGN d 302     138.750   9.060  80.547  0.00  0.00     0.076 H 
ATOM     99  H   SGN d 302     139.719   8.972  83.210  0.00  0.00     0.140 HD
ATOM    100  H   SGN d 302     136.239   8.727  79.934  0.00  0.00     0.091 H 
ATOM    101  H   SGN d 302     135.854   7.233  82.418  0.00  0.00     0.090 H 
ATOM    102  H   SGN d 302     141.789   8.108  82.210  0.00  0.00     0.231 HD
ATOM    103  H   SGN d 302     135.181   5.383  81.018  0.00  0.00     0.080 H 
ATOM    104  H   SGN d 302     134.180   6.800  80.700  0.00  0.00     0.080 H 
ATOM    105  H   SGN d 302     137.846  11.327  82.090  0.00  0.00     0.210 HD
ATOM    106  H   SGN d 302     136.900   9.383  82.893  0.00  0.00     0.089 H 
ATOM    107  H   SGN d 302     140.411  11.588  80.985  0.00  0.00     0.231 HD
ATOM    108  H   SGN d 302     139.480   7.017  81.556  0.00  0.00     0.131 H 
ATOM    109  C1  IDS d 305     131.639  13.295  72.809  0.00  0.00     0.161 C 
ATOM    110  O1S IDS d 305     135.934  11.948  72.131  0.00  0.00    -0.572 OA
ATOM    111  S   IDS d 305     134.660  11.294  72.034  0.00  0.00     0.252 S 
ATOM    112  C4  IDS d 305     130.202  12.803  70.208  0.00  0.00    -0.005 C 
ATOM    113  O61 IDS d 305     127.148  12.849  71.701  0.00  0.00    -0.646 OA
ATOM    114  O3  IDS d 305     132.297  12.014  69.310  0.00  0.00    -0.393 OA
ATOM    115  O62 IDS d 305     127.923  14.735  71.321  0.00  0.00    -0.646 OA
ATOM    116  O2S IDS d 305     134.276  10.673  73.266  0.00  0.00    -0.572 OA
ATOM    117  O2  IDS d 305     133.647  12.453  71.750  0.00  0.00    -0.244 OA
ATOM    118  O5  IDS d 305     130.354  13.821  72.439  0.00  0.00    -0.343 OA
ATOM    119  C5  IDS d 305     129.525  12.978  71.608  0.00  0.00     0.127 C 
ATOM    120  C3  IDS d 305     131.753  12.855  70.309  0.00  0.00     0.069 C 
ATOM    121  C2  IDS d 305     132.231  12.385  71.698  0.00  0.00     0.132 C 
ATOM    122  C6  IDS d 305     128.116  13.559  71.539  0.00  0.00     0.203 C 
ATOM    123  O3S IDS d 305     134.573  10.415  70.905  0.00  0.00    -0.572 OA
ATOM    124  H   IDS d 305     132.272  14.145  72.959  0.00  0.00     0.133 H 
ATOM    125  H   IDS d 305     129.912  11.857  69.799  0.00  0.00     0.041 H 
ATOM    126  H   IDS d 305     129.882  13.607  69.579  0.00  0.00     0.041 H 
ATOM    127  H   IDS d 305     131.996  12.311  68.437  0.00  0.00     0.210 HD
ATOM    128  H   IDS d 305     129.430  11.999  72.028  0.00  0.00     0.100 H 
ATOM    129  H   IDS d 305     132.081  13.864  70.169  0.00  0.00     0.087 H 
ATOM    130  H   IDS d 305     131.901  11.379  71.858  0.00  0.00     0.097 H 
ENDROOT
TORSDOF 39
ENDMDL
MODEL 13
REMARK VINA RESULT:      -6.2      3.757      6.084
REMARK  0 active torsions:
REMARK  status: ('A' for Active; 'I' for Inactive)
REMARK       I    between atoms: C2_2  and  N_68 
REMARK       I    between atoms: C1_3  and  O4_24 
REMARK       I    between atoms: O1S_5  and  S1_58 
REMARK       I    between atoms: O1_6  and  C1_31 
REMARK       I    between atoms: C4_7  and  O4_36 
REMARK       I    between atoms: C1_8  and  O4_37 
REMARK       I    between atoms: O3_9  and  C3_74 
REMARK       I    between atoms: C5_10  and  C6_32 
REMARK       I    between atoms: C2_11  and  N_20 
REMARK       I    between atoms: C6_12  and  C5_53 
REMARK       I    between atoms: S2_14  and  O6_33 
REMARK       I    between atoms: O3S_16  and  S1_51 
REMARK       I    between atoms: S_17  and  O2_44 
REMARK       I    between atoms: N_20  and  S1_58 
REMARK       I    between atoms: O4_24  and  C4_38 
REMARK       I    between atoms: S_25  and  O2_64 
REMARK       I    between atoms: O2S_27  and  S1_51 
REMARK       I    between atoms: C4_28  and  O4_73 
REMARK       I    between atoms: C3_30  and  O3_62 
REMARK       I    between atoms: O6_33  and  C6_63 
REMARK       I    between atoms: O3_35  and  C3_55 
REMARK       I    between atoms: O4_36  and  C1_84 
REMARK       I    between atoms: O4_37  and  C4_54 
REMARK       I    between atoms: C3_39  and  O3_48 
REMARK       I    between atoms: C5_42  and  C6_63 
REMARK       I    between atoms: O2_44  and  C2_61 
REMARK       I    between atoms: O6_45  and  C6_77 
REMARK       I    between atoms: O6_45  and  S2_82 
REMARK       I    between atoms: C5_49  and  C6_76 
REMARK       I    between atoms: S1_51  and  N_68 
REMARK       I    between atoms: S1_51  and  O1S_81 
REMARK       I    between atoms: O2S_52  and  S1_58 
REMARK       I    between atoms: C2_57  and  O2_64 
REMARK       I    between atoms: S1_58  and  O3S_75 
REMARK       I    between atoms: O3_66  and  C3_67 
REMARK       I    between atoms: O2_69  and  C2_79 
REMARK       I    between atoms: O2_69  and  S_72 
REMARK       I    between atoms: C5_70  and  C6_77 
REMARK       I    between atoms: C1_71  and  O4_73 
ROOT
ATOM      1  O2S IDS d 303     129.698  13.812  73.093  0.00  0.00    -0.572 OA
ATOM      2  C6  IDS d 303     136.249  11.959  75.586  0.00  0.00     0.206 C 
ATOM      3  O1S IDS d 303     129.459  12.542  75.101  0.00  0.00    -0.572 OA
ATOM      4  O3S IDS d 303     129.689  14.926  75.224  0.00  0.00    -0.572 OA
ATOM      5  O4  IDS d 303     134.237  12.792  73.388  0.00  0.00    -0.348 OA
ATOM      6  O61 IDS d 303     137.406  12.294  75.433  0.00  0.00    -0.646 OA
ATOM      7  C4  IDS d 303     134.813  13.713  74.328  0.00  0.00     0.103 C 
ATOM      8  C3  IDS d 303     133.681  14.755  74.561  0.00  0.00     0.094 C 
ATOM      9  O62 IDS d 303     136.008  10.774  75.677  0.00  0.00    -0.646 OA
ATOM     10  O3  IDS d 303     134.240  15.877  75.222  0.00  0.00    -0.390 OA
ATOM     11  C5  IDS d 303     135.131  12.999  75.664  0.00  0.00     0.152 C 
ATOM     12  O2  IDS d 303     131.576  13.566  74.552  0.00  0.00    -0.244 OA
ATOM     13  C1  IDS d 303     132.881  13.232  76.547  0.00  0.00     0.161 C 
ATOM     14  S   IDS d 303     130.012  13.724  74.498  0.00  0.00     0.252 S 
ATOM     15  C2  IDS d 303     132.497  14.219  75.412  0.00  0.00     0.134 C 
ATOM     16  O5  IDS d 303     133.937  12.367  76.145  0.00  0.00    -0.340 OA
ATOM     17  H   IDS d 303     135.727  14.142  73.972  0.00  0.00     0.092 H 
ATOM     18  H   IDS d 303     133.281  15.002  73.600  0.00  0.00     0.091 H 
ATOM     19  H   IDS d 303     134.588  15.602  76.085  0.00  0.00     0.210 HD
ATOM     20  H   IDS d 303     135.485  13.758  76.330  0.00  0.00     0.104 H 
ATOM     21  H   IDS d 303     132.047  12.600  76.770  0.00  0.00     0.133 H 
ATOM     22  H   IDS d 303     132.083  15.078  75.897  0.00  0.00     0.097 H 
ATOM     23  C2  SGN d 304     133.706  12.269  71.051  0.00  0.00     0.081 C 
ATOM     24  C1  SGN d 304     134.758  12.775  72.076  0.00  0.00     0.150 C 
ATOM     25  O3  SGN d 304     132.454  10.322  70.361  0.00  0.00    -0.391 OA
ATOM     26  O3S SGN d 304     131.357  14.340  69.399  0.00  0.00    -0.296 OA
ATOM     27  O5S SGN d 304     139.170  10.368  69.013  0.00  0.00    -0.572 OA
ATOM     28  O2S SGN d 304     133.667  14.847  69.784  0.00  0.00    -0.296 OA
ATOM     29  O4S SGN d 304     138.937   8.336  70.259  0.00  0.00    -0.572 OA
ATOM     30  O4  SGN d 304     134.257   8.633  71.088  0.00  0.00    -0.348 OA
ATOM     31  O6  SGN d 304     137.813  10.357  70.960  0.00  0.00    -0.254 OA
ATOM     32  S1  SGN d 304     132.390  14.532  70.373  0.00  0.00     0.156 S 
ATOM     33  C4  SGN d 304     134.734   9.989  71.123  0.00  0.00     0.095 C 
ATOM     34  O6S SGN d 304     140.192  10.169  71.157  0.00  0.00    -0.572 OA
ATOM     35  N   SGN d 304     132.500  13.103  71.180  0.00  0.00    -0.210 NA
ATOM     36  C5  SGN d 304     135.752  10.539  72.175  0.00  0.00     0.091 C 
ATOM     37  C3  SGN d 304     133.409  10.776  71.304  0.00  0.00     0.083 C 
ATOM     38  C6  SGN d 304     137.148   9.903  72.120  0.00  0.00     0.067 C 
ATOM     39  O5  SGN d 304     135.937  11.971  72.020  0.00  0.00    -0.349 OA
ATOM     40  O1S SGN d 304     132.019  15.485  71.381  0.00  0.00    -0.296 OA
ATOM     41  S2  SGN d 304     139.106   9.762  70.315  0.00  0.00     0.251 S 
ATOM     42  H   SGN d 304     134.073  12.350  70.050  0.00  0.00     0.076 H 
ATOM     43  H   SGN d 304     135.011  13.781  71.812  0.00  0.00     0.131 H 
ATOM     44  H   SGN d 304     131.626  10.815  70.476  0.00  0.00     0.210 HD
ATOM     45  H   SGN d 304     131.650  13.691  68.741  0.00  0.00     0.231 HD
ATOM     46  H   SGN d 304     133.884  14.184  69.110  0.00  0.00     0.231 HD
ATOM     47  H   SGN d 304     135.344  10.084  70.249  0.00  0.00     0.091 H 
ATOM     48  H   SGN d 304     132.396  13.318  72.172  0.00  0.00     0.140 HD
ATOM     49  H   SGN d 304     135.307  10.286  73.115  0.00  0.00     0.090 H 
ATOM     50  H   SGN d 304     133.021  10.631  72.290  0.00  0.00     0.089 H 
ATOM     51  H   SGN d 304     137.706  10.186  72.988  0.00  0.00     0.080 H 
ATOM     52  H   SGN d 304     137.059   8.837  72.094  0.00  0.00     0.080 H 
ATOM     53  H   SGN d 304     131.934  16.364  70.980  0.00  0.00     0.231 HD
ATOM     54  O62 IDS d 301     129.454  13.556  82.235  0.00  0.00    -0.646 OA
ATOM     55  O1  IDS d 301     129.992  15.462  86.849  0.00  0.00    -0.368 OA
ATOM     56  C4  IDS d 301     132.207  14.440  83.567  0.00  0.00     0.103 C 
ATOM     57  C5  IDS d 301     130.819  13.983  84.153  0.00  0.00     0.152 C 
ATOM     58  O61 IDS d 301     129.811  11.938  83.475  0.00  0.00    -0.646 OA
ATOM     59  S   IDS d 301     133.462  16.727  87.872  0.00  0.00     0.252 S 
ATOM     60  C3  IDS d 301     132.793  15.620  84.406  0.00  0.00     0.094 C 
ATOM     61  C1  IDS d 301     130.589  15.886  85.655  0.00  0.00     0.158 C 
ATOM     62  C6  IDS d 301     129.976  13.112  83.230  0.00  0.00     0.206 C 
ATOM     63  O5  IDS d 301     130.068  15.156  84.539  0.00  0.00    -0.340 OA
ATOM     64  O4  IDS d 301     133.020  14.447  82.382  0.00  0.00    -0.348 OA
ATOM     65  O3S IDS d 301     133.259  18.038  88.436  0.00  0.00    -0.572 OA
ATOM     66  O1S IDS d 301     132.871  15.690  88.675  0.00  0.00    -0.572 OA
ATOM     67  C2  IDS d 301     132.129  15.690  85.795  0.00  0.00     0.134 C 
ATOM     68  O3  IDS d 301     134.191  15.433  84.567  0.00  0.00    -0.390 OA
ATOM     69  O2  IDS d 301     132.683  16.775  86.514  0.00  0.00    -0.244 OA
ATOM     70  O2S IDS d 301     134.836  16.467  87.528  0.00  0.00    -0.572 OA
ATOM     71  H   IDS d 301     130.359  15.969  87.591  0.00  0.00     0.212 HD
ATOM     72  H   IDS d 301     132.074  13.396  83.377  0.00  0.00     0.092 H 
ATOM     73  H   IDS d 301     131.044  13.359  84.992  0.00  0.00     0.104 H 
ATOM     74  H   IDS d 301     132.599  16.535  83.886  0.00  0.00     0.091 H 
ATOM     75  H   IDS d 301     130.371  16.918  85.477  0.00  0.00     0.133 H 
ATOM     76  H   IDS d 301     132.308  14.773  86.316  0.00  0.00     0.097 H 
ATOM     77  H   IDS d 301     134.354  14.601  85.039  0.00  0.00     0.210 HD
ATOM     78  O1S SGN d 302     137.716  14.070  83.131  0.00  0.00    -0.296 OA
ATOM     79  C2  SGN d 302     134.668  13.262  80.979  0.00  0.00     0.081 C 
ATOM     80  S2  SGN d 302     129.846  10.107  79.036  0.00  0.00     0.251 S 
ATOM     81  N   SGN d 302     135.745  13.924  81.735  0.00  0.00    -0.210 NA
ATOM     82  C4  SGN d 302     133.246  13.266  78.926  0.00  0.00     0.095 C 
ATOM     83  O6  SGN d 302     130.963  11.198  79.106  0.00  0.00    -0.254 OA
ATOM     84  C5  SGN d 302     131.989  13.280  79.854  0.00  0.00     0.091 C 
ATOM     85  O4S SGN d 302     128.899  10.535  78.044  0.00  0.00    -0.572 OA
ATOM     86  O2S SGN d 302     136.216  12.288  83.546  0.00  0.00    -0.296 OA
ATOM     87  S1  SGN d 302     136.874  13.069  82.546  0.00  0.00     0.156 S 
ATOM     88  O5S SGN d 302     130.521   8.905  78.653  0.00  0.00    -0.572 OA
ATOM     89  O6S SGN d 302     129.292  10.043  80.357  0.00  0.00    -0.572 OA
ATOM     90  C6  SGN d 302     130.751  12.581  79.263  0.00  0.00     0.067 C 
ATOM     91  O3  SGN d 302     135.562  14.003  78.888  0.00  0.00    -0.391 OA
ATOM     92  C3  SGN d 302     134.383  13.995  79.675  0.00  0.00     0.083 C 
ATOM     93  O4  SGN d 302     133.211  13.966  77.687  0.00  0.00    -0.348 OA
ATOM     94  O3S SGN d 302     137.549  12.276  81.559  0.00  0.00    -0.296 OA
ATOM     95  C1  SGN d 302     133.390  13.202  81.855  0.00  0.00     0.150 C 
ATOM     96  O5  SGN d 302     132.297  12.636  81.122  0.00  0.00    -0.349 OA
ATOM     97  H   SGN d 302     137.210  14.574  83.787  0.00  0.00     0.231 HD
ATOM     98  H   SGN d 302     134.980  12.268  80.733  0.00  0.00     0.076 H 
ATOM     99  H   SGN d 302     135.288  14.521  82.425  0.00  0.00     0.140 HD
ATOM    100  H   SGN d 302     133.346  12.224  78.704  0.00  0.00     0.091 H 
ATOM    101  H   SGN d 302     131.745  14.314  79.976  0.00  0.00     0.090 H 
ATOM    102  H   SGN d 302     135.780  12.876  84.182  0.00  0.00     0.231 HD
ATOM    103  H   SGN d 302     129.920  12.733  79.920  0.00  0.00     0.080 H 
ATOM    104  H   SGN d 302     130.558  13.002  78.299  0.00  0.00     0.080 H 
ATOM    105  H   SGN d 302     136.267  14.464  79.368  0.00  0.00     0.210 HD
ATOM    106  H   SGN d 302     134.081  15.003  79.870  0.00  0.00     0.089 H 
ATOM    107  H   SGN d 302     137.974  12.859  80.911  0.00  0.00     0.231 HD
ATOM    108  H   SGN d 302     133.631  12.571  82.685  0.00  0.00     0.131 H 
ATOM    109  C1  IDS d 305     135.003   7.680  70.372  0.00  0.00     0.161 C 
ATOM    110  O1S IDS d 305     136.313   5.687  74.250  0.00  0.00    -0.572 OA
ATOM    111  S   IDS d 305     135.068   5.755  73.537  0.00  0.00     0.252 S 
ATOM    112  C4  IDS d 305     133.952   5.466  68.623  0.00  0.00    -0.005 C 
ATOM    113  O61 IDS d 305     132.205   7.625  66.663  0.00  0.00    -0.646 OA
ATOM    114  O3  IDS d 305     134.515   3.928  70.394  0.00  0.00    -0.393 OA
ATOM    115  O62 IDS d 305     134.223   7.514  66.194  0.00  0.00    -0.646 OA
ATOM    116  O2S IDS d 305     134.267   6.867  73.954  0.00  0.00    -0.572 OA
ATOM    117  O2  IDS d 305     135.484   6.001  72.049  0.00  0.00    -0.244 OA
ATOM    118  O5  IDS d 305     134.749   7.766  68.961  0.00  0.00    -0.343 OA
ATOM    119  C5  IDS d 305     133.638   6.990  68.457  0.00  0.00     0.127 C 
ATOM    120  C3  IDS d 305     134.851   5.196  69.863  0.00  0.00     0.069 C 
ATOM    121  C2  IDS d 305     134.644   6.281  70.940  0.00  0.00     0.132 C 
ATOM    122  C6  IDS d 305     133.342   7.401  67.018  0.00  0.00     0.203 C 
ATOM    123  O3S IDS d 305     134.357   4.510  73.544  0.00  0.00    -0.572 OA
ATOM    124  H   IDS d 305     136.051   7.864  70.492  0.00  0.00     0.133 H 
ATOM    125  H   IDS d 305     133.031   4.933  68.739  0.00  0.00     0.041 H 
ATOM    126  H   IDS d 305     134.479   5.137  67.751  0.00  0.00     0.041 H 
ATOM    127  H   IDS d 305     134.646   3.248  69.716  0.00  0.00     0.210 HD
ATOM    128  H   IDS d 305     132.748   7.183  69.018  0.00  0.00     0.100 H 
ATOM    129  H   IDS d 305     135.878   5.216  69.564  0.00  0.00     0.087 H 
ATOM    130  H   IDS d 305     133.617   6.280  71.242  0.00  0.00     0.097 H 
ENDROOT
TORSDOF 39
ENDMDL
MODEL 14
REMARK VINA RESULT:      -6.2      4.309     13.602
REMARK  0 active torsions:
REMARK  status: ('A' for Active; 'I' for Inactive)
REMARK       I    between atoms: C2_2  and  N_68 
REMARK       I    between atoms: C1_3  and  O4_24 
REMARK       I    between atoms: O1S_5  and  S1_58 
REMARK       I    between atoms: O1_6  and  C1_31 
REMARK       I    between atoms: C4_7  and  O4_36 
REMARK       I    between atoms: C1_8  and  O4_37 
REMARK       I    between atoms: O3_9  and  C3_74 
REMARK       I    between atoms: C5_10  and  C6_32 
REMARK       I    between atoms: C2_11  and  N_20 
REMARK       I    between atoms: C6_12  and  C5_53 
REMARK       I    between atoms: S2_14  and  O6_33 
REMARK       I    between atoms: O3S_16  and  S1_51 
REMARK       I    between atoms: S_17  and  O2_44 
REMARK       I    between atoms: N_20  and  S1_58 
REMARK       I    between atoms: O4_24  and  C4_38 
REMARK       I    between atoms: S_25  and  O2_64 
REMARK       I    between atoms: O2S_27  and  S1_51 
REMARK       I    between atoms: C4_28  and  O4_73 
REMARK       I    between atoms: C3_30  and  O3_62 
REMARK       I    between atoms: O6_33  and  C6_63 
REMARK       I    between atoms: O3_35  and  C3_55 
REMARK       I    between atoms: O4_36  and  C1_84 
REMARK       I    between atoms: O4_37  and  C4_54 
REMARK       I    between atoms: C3_39  and  O3_48 
REMARK       I    between atoms: C5_42  and  C6_63 
REMARK       I    between atoms: O2_44  and  C2_61 
REMARK       I    between atoms: O6_45  and  C6_77 
REMARK       I    between atoms: O6_45  and  S2_82 
REMARK       I    between atoms: C5_49  and  C6_76 
REMARK       I    between atoms: S1_51  and  N_68 
REMARK       I    between atoms: S1_51  and  O1S_81 
REMARK       I    between atoms: O2S_52  and  S1_58 
REMARK       I    between atoms: C2_57  and  O2_64 
REMARK       I    between atoms: S1_58  and  O3S_75 
REMARK       I    between atoms: O3_66  and  C3_67 
REMARK       I    between atoms: O2_69  and  C2_79 
REMARK       I    between atoms: O2_69  and  S_72 
REMARK       I    between atoms: C5_70  and  C6_77 
REMARK       I    between atoms: C1_71  and  O4_73 
ROOT
ATOM      1  O2S IDS d 303     129.491   8.121  74.818  0.00  0.00    -0.572 OA
ATOM      2  C6  IDS d 303     135.261   5.158  78.058  0.00  0.00     0.206 C 
ATOM      3  O1S IDS d 303     131.485   9.153  74.002  0.00  0.00    -0.572 OA
ATOM      4  O3S IDS d 303     130.634   7.190  72.918  0.00  0.00    -0.572 OA
ATOM      5  O4  IDS d 303     132.272   5.929  77.851  0.00  0.00    -0.348 OA
ATOM      6  O61 IDS d 303     135.532   4.158  78.692  0.00  0.00    -0.646 OA
ATOM      7  C4  IDS d 303     132.855   4.817  77.156  0.00  0.00     0.103 C 
ATOM      8  C3  IDS d 303     132.050   4.752  75.826  0.00  0.00     0.094 C 
ATOM      9  O62 IDS d 303     135.742   6.210  78.424  0.00  0.00    -0.646 OA
ATOM     10  O3  IDS d 303     132.322   3.509  75.202  0.00  0.00    -0.390 OA
ATOM     11  C5  IDS d 303     134.344   5.093  76.837  0.00  0.00     0.152 C 
ATOM     12  O2  IDS d 303     131.592   7.023  75.134  0.00  0.00    -0.244 OA
ATOM     13  C1  IDS d 303     133.877   6.342  74.807  0.00  0.00     0.161 C 
ATOM     14  S   IDS d 303     130.756   7.922  74.153  0.00  0.00     0.252 S 
ATOM     15  C2  IDS d 303     132.392   5.892  74.827  0.00  0.00     0.134 C 
ATOM     16  O5  IDS d 303     134.439   6.328  76.114  0.00  0.00    -0.340 OA
ATOM     17  H   IDS d 303     132.816   3.912  77.727  0.00  0.00     0.092 H 
ATOM     18  H   IDS d 303     131.017   4.867  76.080  0.00  0.00     0.091 H 
ATOM     19  H   IDS d 303     133.267   3.454  74.992  0.00  0.00     0.210 HD
ATOM     20  H   IDS d 303     134.685   4.259  76.261  0.00  0.00     0.104 H 
ATOM     21  H   IDS d 303     133.941   7.354  74.466  0.00  0.00     0.133 H 
ATOM     22  H   IDS d 303     132.193   5.488  73.856  0.00  0.00     0.097 H 
ATOM     23  C2  SGN d 304     130.461   6.773  79.274  0.00  0.00     0.081 C 
ATOM     24  C1  SGN d 304     131.513   5.660  79.010  0.00  0.00     0.150 C 
ATOM     25  O3  SGN d 304     130.209   9.094  79.895  0.00  0.00    -0.391 OA
ATOM     26  O3S SGN d 304     127.189   6.801  77.921  0.00  0.00    -0.296 OA
ATOM     27  O5S SGN d 304     132.266   4.749  84.776  0.00  0.00    -0.572 OA
ATOM     28  O2S SGN d 304     128.332   4.898  78.823  0.00  0.00    -0.296 OA
ATOM     29  O4S SGN d 304     134.011   6.388  84.815  0.00  0.00    -0.572 OA
ATOM     30  O4  SGN d 304     132.349   9.170  81.327  0.00  0.00    -0.348 OA
ATOM     31  O6  SGN d 304     133.138   5.556  82.722  0.00  0.00    -0.254 OA
ATOM     32  S1  SGN d 304     128.332   5.941  77.829  0.00  0.00     0.156 S 
ATOM     33  C4  SGN d 304     131.998   7.831  80.941  0.00  0.00     0.095 C 
ATOM     34  O6S SGN d 304     134.475   4.143  84.118  0.00  0.00    -0.572 OA
ATOM     35  N   SGN d 304     129.633   6.919  78.066  0.00  0.00    -0.210 NA
ATOM     36  C5  SGN d 304     133.036   6.705  80.618  0.00  0.00     0.091 C 
ATOM     37  C3  SGN d 304     131.176   8.087  79.650  0.00  0.00     0.083 C 
ATOM     38  C6  SGN d 304     133.922   6.283  81.798  0.00  0.00     0.067 C 
ATOM     39  O5  SGN d 304     132.371   5.506  80.142  0.00  0.00    -0.349 OA
ATOM     40  O1S SGN d 304     128.514   5.416  76.505  0.00  0.00    -0.296 OA
ATOM     41  S2  SGN d 304     133.504   5.194  84.197  0.00  0.00     0.251 S 
ATOM     42  H   SGN d 304     129.825   6.515  80.096  0.00  0.00     0.076 H 
ATOM     43  H   SGN d 304     130.984   4.744  78.848  0.00  0.00     0.131 H 
ATOM     44  H   SGN d 304     129.696   9.253  79.087  0.00  0.00     0.210 HD
ATOM     45  H   SGN d 304     127.105   7.132  78.829  0.00  0.00     0.231 HD
ATOM     46  H   SGN d 304     128.207   5.288  79.702  0.00  0.00     0.231 HD
ATOM     47  H   SGN d 304     131.568   7.399  81.820  0.00  0.00     0.091 H 
ATOM     48  H   SGN d 304     130.252   6.780  77.267  0.00  0.00     0.140 HD
ATOM     49  H   SGN d 304     133.663   7.146  79.872  0.00  0.00     0.090 H 
ATOM     50  H   SGN d 304     131.818   8.407  78.857  0.00  0.00     0.089 H 
ATOM     51  H   SGN d 304     134.723   5.668  81.444  0.00  0.00     0.080 H 
ATOM     52  H   SGN d 304     134.331   7.150  82.273  0.00  0.00     0.080 H 
ATOM     53  H   SGN d 304     127.778   4.822  76.288  0.00  0.00     0.231 HD
ATOM     54  O62 IDS d 301     136.517   8.079  68.957  0.00  0.00    -0.646 OA
ATOM     55  O1  IDS d 301     139.471   6.084  65.421  0.00  0.00    -0.368 OA
ATOM     56  C4  IDS d 301     138.426   5.561  69.340  0.00  0.00     0.103 C 
ATOM     57  C5  IDS d 301     138.435   6.785  68.349  0.00  0.00     0.152 C 
ATOM     58  O61 IDS d 301     138.349   9.020  69.157  0.00  0.00    -0.646 OA
ATOM     59  S   IDS d 301     141.307   2.824  66.250  0.00  0.00     0.252 S 
ATOM     60  C3  IDS d 301     138.822   4.249  68.592  0.00  0.00     0.094 C 
ATOM     61  C1  IDS d 301     138.643   5.426  66.339  0.00  0.00     0.158 C 
ATOM     62  C6  IDS d 301     137.719   8.034  68.850  0.00  0.00     0.206 C 
ATOM     63  O5  IDS d 301     137.866   6.367  67.089  0.00  0.00    -0.340 OA
ATOM     64  O4  IDS d 301     137.890   5.078  70.582  0.00  0.00    -0.348 OA
ATOM     65  O3S IDS d 301     141.068   1.938  65.138  0.00  0.00    -0.572 OA
ATOM     66  O1S IDS d 301     142.108   3.960  65.879  0.00  0.00    -0.572 OA
ATOM     67  C2  IDS d 301     139.550   4.568  67.271  0.00  0.00     0.134 C 
ATOM     68  O3  IDS d 301     139.677   3.475  69.419  0.00  0.00    -0.390 OA
ATOM     69  O2  IDS d 301     139.881   3.353  66.624  0.00  0.00    -0.244 OA
ATOM     70  O2S IDS d 301     141.794   2.143  67.421  0.00  0.00    -0.572 OA
ATOM     71  H   IDS d 301     139.988   5.430  64.925  0.00  0.00     0.212 HD
ATOM     72  H   IDS d 301     138.679   6.447  69.882  0.00  0.00     0.092 H 
ATOM     73  H   IDS d 301     139.460   7.075  68.249  0.00  0.00     0.104 H 
ATOM     74  H   IDS d 301     137.929   3.703  68.368  0.00  0.00     0.091 H 
ATOM     75  H   IDS d 301     137.950   4.793  65.827  0.00  0.00     0.133 H 
ATOM     76  H   IDS d 301     140.438   5.124  67.486  0.00  0.00     0.097 H 
ATOM     77  H   IDS d 301     140.481   3.979  69.615  0.00  0.00     0.210 HD
ATOM     78  O1S SGN d 302     140.807   2.278  73.112  0.00  0.00    -0.296 OA
ATOM     79  C2  SGN d 302     138.098   4.966  73.038  0.00  0.00     0.081 C 
ATOM     80  S2  SGN d 302     135.761  10.578  72.891  0.00  0.00     0.251 S 
ATOM     81  N   SGN d 302     138.886   3.730  72.886  0.00  0.00    -0.210 NA
ATOM     82  C4  SGN d 302     135.860   5.976  73.492  0.00  0.00     0.095 C 
ATOM     83  O6  SGN d 302     135.852   9.021  72.995  0.00  0.00    -0.254 OA
ATOM     84  C5  SGN d 302     135.984   6.743  72.135  0.00  0.00     0.091 C 
ATOM     85  O4S SGN d 302     134.371  10.912  72.749  0.00  0.00    -0.572 OA
ATOM     86  O2S SGN d 302     141.218   4.587  72.799  0.00  0.00    -0.296 OA
ATOM     87  S1  SGN d 302     140.409   3.609  73.459  0.00  0.00     0.156 S 
ATOM     88  O5S SGN d 302     136.311  11.067  74.118  0.00  0.00    -0.572 OA
ATOM     89  O6S SGN d 302     136.548  10.930  71.745  0.00  0.00    -0.572 OA
ATOM     90  C6  SGN d 302     135.264   8.103  72.103  0.00  0.00     0.067 C 
ATOM     91  O3  SGN d 302     136.578   3.912  74.556  0.00  0.00    -0.391 OA
ATOM     92  C3  SGN d 302     136.640   4.652  73.348  0.00  0.00     0.083 C 
ATOM     93  O4  SGN d 302     134.582   5.520  73.926  0.00  0.00    -0.348 OA
ATOM     94  O3S SGN d 302     140.314   3.815  74.875  0.00  0.00    -0.296 OA
ATOM     95  C1  SGN d 302     138.205   5.804  71.739  0.00  0.00     0.150 C 
ATOM     96  O5  SGN d 302     137.385   6.976  71.820  0.00  0.00    -0.349 OA
ATOM     97  H   SGN d 302     140.855   2.196  72.146  0.00  0.00     0.231 HD
ATOM     98  H   SGN d 302     138.492   5.527  73.860  0.00  0.00     0.076 H 
ATOM     99  H   SGN d 302     138.941   3.545  71.884  0.00  0.00     0.140 HD
ATOM    100  H   SGN d 302     136.194   6.710  74.193  0.00  0.00     0.091 H 
ATOM    101  H   SGN d 302     135.508   6.112  71.415  0.00  0.00     0.090 H 
ATOM    102  H   SGN d 302     141.245   4.397  71.848  0.00  0.00     0.231 HD
ATOM    103  H   SGN d 302     135.317   8.500  71.111  0.00  0.00     0.080 H 
ATOM    104  H   SGN d 302     134.248   7.951  72.401  0.00  0.00     0.080 H 
ATOM    105  H   SGN d 302     137.071   3.084  74.453  0.00  0.00     0.210 HD
ATOM    106  H   SGN d 302     136.205   4.075  72.559  0.00  0.00     0.089 H 
ATOM    107  H   SGN d 302     139.756   3.124  75.265  0.00  0.00     0.231 HD
ATOM    108  H   SGN d 302     139.233   6.090  71.657  0.00  0.00     0.131 H 
ATOM    109  C1  IDS d 305     132.565   9.438  82.690  0.00  0.00     0.161 C 
ATOM    110  O1S IDS d 305     137.031   9.931  81.958  0.00  0.00    -0.572 OA
ATOM    111  S   IDS d 305     135.876  10.720  81.632  0.00  0.00     0.252 S 
ATOM    112  C4  IDS d 305     131.710  11.877  84.237  0.00  0.00    -0.005 C 
ATOM    113  O61 IDS d 305     128.441  11.460  83.400  0.00  0.00    -0.646 OA
ATOM    114  O3  IDS d 305     134.011  12.601  84.182  0.00  0.00    -0.393 OA
ATOM    115  O62 IDS d 305     129.066  10.253  84.968  0.00  0.00    -0.646 OA
ATOM    116  O2S IDS d 305     135.335  10.380  80.350  0.00  0.00    -0.572 OA
ATOM    117  O2  IDS d 305     134.816  10.327  82.714  0.00  0.00    -0.244 OA
ATOM    118  O5  IDS d 305     131.324   9.600  83.397  0.00  0.00    -0.343 OA
ATOM    119  C5  IDS d 305     130.764  10.932  83.422  0.00  0.00     0.127 C 
ATOM    120  C3  IDS d 305     133.199  11.444  84.115  0.00  0.00     0.069 C 
ATOM    121  C2  IDS d 305     133.452  10.709  82.782  0.00  0.00     0.132 C 
ATOM    122  C6  IDS d 305     129.340  10.876  83.966  0.00  0.00     0.203 C 
ATOM    123  O3S IDS d 305     136.101  12.126  81.797  0.00  0.00    -0.572 OA
ATOM    124  H   IDS d 305     133.062   8.613  83.156  0.00  0.00     0.133 H 
ATOM    125  H   IDS d 305     131.607  12.875  83.864  0.00  0.00     0.041 H 
ATOM    126  H   IDS d 305     131.430  11.822  85.268  0.00  0.00     0.041 H 
ATOM    127  H   IDS d 305     133.850  13.061  85.020  0.00  0.00     0.210 HD
ATOM    128  H   IDS d 305     130.698  11.341  82.436  0.00  0.00     0.100 H 
ATOM    129  H   IDS d 305     133.436  10.773  84.914  0.00  0.00     0.087 H 
ATOM    130  H   IDS d 305     133.208  11.365  81.972  0.00  0.00     0.097 H 
ENDROOT
TORSDOF 39
ENDMDL
MODEL 15
REMARK VINA RESULT:      -6.1      4.471     12.887
REMARK  0 active torsions:
REMARK  status: ('A' for Active; 'I' for Inactive)
REMARK       I    between atoms: C2_2  and  N_68 
REMARK       I    between atoms: C1_3  and  O4_24 
REMARK       I    between atoms: O1S_5  and  S1_58 
REMARK       I    between atoms: O1_6  and  C1_31 
REMARK       I    between atoms: C4_7  and  O4_36 
REMARK       I    between atoms: C1_8  and  O4_37 
REMARK       I    between atoms: O3_9  and  C3_74 
REMARK       I    between atoms: C5_10  and  C6_32 
REMARK       I    between atoms: C2_11  and  N_20 
REMARK       I    between atoms: C6_12  and  C5_53 
REMARK       I    between atoms: S2_14  and  O6_33 
REMARK       I    between atoms: O3S_16  and  S1_51 
REMARK       I    between atoms: S_17  and  O2_44 
REMARK       I    between atoms: N_20  and  S1_58 
REMARK       I    between atoms: O4_24  and  C4_38 
REMARK       I    between atoms: S_25  and  O2_64 
REMARK       I    between atoms: O2S_27  and  S1_51 
REMARK       I    between atoms: C4_28  and  O4_73 
REMARK       I    between atoms: C3_30  and  O3_62 
REMARK       I    between atoms: O6_33  and  C6_63 
REMARK       I    between atoms: O3_35  and  C3_55 
REMARK       I    between atoms: O4_36  and  C1_84 
REMARK       I    between atoms: O4_37  and  C4_54 
REMARK       I    between atoms: C3_39  and  O3_48 
REMARK       I    between atoms: C5_42  and  C6_63 
REMARK       I    between atoms: O2_44  and  C2_61 
REMARK       I    between atoms: O6_45  and  C6_77 
REMARK       I    between atoms: O6_45  and  S2_82 
REMARK       I    between atoms: C5_49  and  C6_76 
REMARK       I    between atoms: S1_51  and  N_68 
REMARK       I    between atoms: S1_51  and  O1S_81 
REMARK       I    between atoms: O2S_52  and  S1_58 
REMARK       I    between atoms: C2_57  and  O2_64 
REMARK       I    between atoms: S1_58  and  O3S_75 
REMARK       I    between atoms: O3_66  and  C3_67 
REMARK       I    between atoms: O2_69  and  C2_79 
REMARK       I    between atoms: O2_69  and  S_72 
REMARK       I    between atoms: C5_70  and  C6_77 
REMARK       I    between atoms: C1_71  and  O4_73 
ROOT
ATOM      1  O2S IDS d 303     131.843  11.475  84.229  0.00  0.00    -0.572 OA
ATOM      2  C6  IDS d 303     135.858   8.100  79.224  0.00  0.00     0.206 C 
ATOM      3  O1S IDS d 303     132.965  13.094  82.879  0.00  0.00    -0.572 OA
ATOM      4  O3S IDS d 303     130.808  12.284  82.215  0.00  0.00    -0.572 OA
ATOM      5  O4  IDS d 303     134.368   8.303  81.928  0.00  0.00    -0.348 OA
ATOM      6  O61 IDS d 303     135.942   6.999  78.720  0.00  0.00    -0.646 OA
ATOM      7  C4  IDS d 303     133.708   8.073  80.674  0.00  0.00     0.103 C 
ATOM      8  C3  IDS d 303     132.341   8.798  80.839  0.00  0.00     0.094 C 
ATOM      9  O62 IDS d 303     136.888   8.684  79.487  0.00  0.00    -0.646 OA
ATOM     10  O3  IDS d 303     131.486   8.375  79.792  0.00  0.00    -0.390 OA
ATOM     11  C5  IDS d 303     134.497   8.731  79.515  0.00  0.00     0.152 C 
ATOM     12  O2  IDS d 303     132.730  10.818  82.109  0.00  0.00    -0.244 OA
ATOM     13  C1  IDS d 303     133.507  10.926  79.833  0.00  0.00     0.161 C 
ATOM     14  S   IDS d 303     132.042  11.991  82.897  0.00  0.00     0.252 S 
ATOM     15  C2  IDS d 303     132.441  10.348  80.801  0.00  0.00     0.134 C 
ATOM     16  O5  IDS d 303     134.680  10.122  79.814  0.00  0.00    -0.340 OA
ATOM     17  H   IDS d 303     133.619   7.032  80.444  0.00  0.00     0.092 H 
ATOM     18  H   IDS d 303     131.965   8.538  81.807  0.00  0.00     0.091 H 
ATOM     19  H   IDS d 303     131.868   8.632  78.939  0.00  0.00     0.210 HD
ATOM     20  H   IDS d 303     133.911   8.581  78.633  0.00  0.00     0.104 H 
ATOM     21  H   IDS d 303     133.813  11.893  80.173  0.00  0.00     0.133 H 
ATOM     22  H   IDS d 303     131.494  10.684  80.433  0.00  0.00     0.097 H 
ATOM     23  C2  SGN d 304     134.662   7.646  84.273  0.00  0.00     0.081 C 
ATOM     24  C1  SGN d 304     134.556   7.200  82.788  0.00  0.00     0.150 C 
ATOM     25  O3  SGN d 304     136.053   8.845  85.841  0.00  0.00    -0.391 OA
ATOM     26  O3S SGN d 304     131.897   8.048  86.448  0.00  0.00    -0.296 OA
ATOM     27  O5S SGN d 304     138.319   2.759  83.661  0.00  0.00    -0.572 OA
ATOM     28  O2S SGN d 304     132.221   6.260  84.885  0.00  0.00    -0.296 OA
ATOM     29  O4S SGN d 304     140.153   4.193  83.098  0.00  0.00    -0.572 OA
ATOM     30  O4  SGN d 304     138.265   8.279  84.649  0.00  0.00    -0.348 OA
ATOM     31  O6  SGN d 304     137.873   4.873  82.680  0.00  0.00    -0.254 OA
ATOM     32  S1  SGN d 304     132.079   7.681  85.074  0.00  0.00     0.156 S 
ATOM     33  C4  SGN d 304     137.157   7.525  84.131  0.00  0.00     0.095 C 
ATOM     34  O6S SGN d 304     138.872   3.133  81.373  0.00  0.00    -0.572 OA
ATOM     35  N   SGN d 304     133.463   8.434  84.603  0.00  0.00    -0.210 NA
ATOM     36  C5  SGN d 304     136.998   7.107  82.632  0.00  0.00     0.091 C 
ATOM     37  C3  SGN d 304     135.962   8.449  84.484  0.00  0.00     0.083 C 
ATOM     38  C6  SGN d 304     138.077   6.149  82.108  0.00  0.00     0.067 C 
ATOM     39  O5  SGN d 304     135.717   6.463  82.405  0.00  0.00    -0.349 OA
ATOM     40  O1S SGN d 304     131.063   8.233  84.223  0.00  0.00    -0.296 OA
ATOM     41  S2  SGN d 304     138.873   3.673  82.701  0.00  0.00     0.251 S 
ATOM     42  H   SGN d 304     134.706   6.800  84.926  0.00  0.00     0.076 H 
ATOM     43  H   SGN d 304     133.698   6.567  82.699  0.00  0.00     0.131 H 
ATOM     44  H   SGN d 304     135.305   9.423  86.060  0.00  0.00     0.210 HD
ATOM     45  H   SGN d 304     132.604   7.655  86.984  0.00  0.00     0.231 HD
ATOM     46  H   SGN d 304     132.914   5.923  85.474  0.00  0.00     0.231 HD
ATOM     47  H   SGN d 304     137.273   6.548  84.553  0.00  0.00     0.091 H 
ATOM     48  H   SGN d 304     133.232   8.978  83.771  0.00  0.00     0.140 HD
ATOM     49  H   SGN d 304     137.088   8.032  82.100  0.00  0.00     0.090 H 
ATOM     50  H   SGN d 304     135.970   9.321  83.865  0.00  0.00     0.089 H 
ATOM     51  H   SGN d 304     138.009   6.080  81.042  0.00  0.00     0.080 H 
ATOM     52  H   SGN d 304     139.047   6.515  82.373  0.00  0.00     0.080 H 
ATOM     53  H   SGN d 304     130.206   7.835  84.442  0.00  0.00     0.231 HD
ATOM     54  O62 IDS d 301     132.054  16.571  76.633  0.00  0.00    -0.646 OA
ATOM     55  O1  IDS d 301     130.480  18.025  72.093  0.00  0.00    -0.368 OA
ATOM     56  C4  IDS d 301     132.183  14.820  73.978  0.00  0.00     0.103 C 
ATOM     57  C5  IDS d 301     132.136  16.371  74.251  0.00  0.00     0.152 C 
ATOM     58  O61 IDS d 301     133.704  17.410  75.707  0.00  0.00    -0.646 OA
ATOM     59  S   IDS d 301     130.496  15.429  69.275  0.00  0.00     0.252 S 
ATOM     60  C3  IDS d 301     131.284  14.453  72.755  0.00  0.00     0.094 C 
ATOM     61  C1  IDS d 301     130.281  16.795  72.733  0.00  0.00     0.158 C 
ATOM     62  C6  IDS d 301     132.658  16.808  75.614  0.00  0.00     0.206 C 
ATOM     63  O5  IDS d 301     130.779  16.834  74.075  0.00  0.00    -0.340 OA
ATOM     64  O4  IDS d 301     132.450  13.544  74.581  0.00  0.00    -0.348 OA
ATOM     65  O3S IDS d 301     129.199  15.508  68.650  0.00  0.00    -0.572 OA
ATOM     66  O1S IDS d 301     131.270  16.625  69.079  0.00  0.00    -0.572 OA
ATOM     67  C2  IDS d 301     130.997  15.697  71.891  0.00  0.00     0.134 C 
ATOM     68  O3  IDS d 301     131.943  13.477  71.963  0.00  0.00    -0.390 OA
ATOM     69  O2  IDS d 301     130.174  15.320  70.803  0.00  0.00    -0.244 OA
ATOM     70  O2S IDS d 301     131.213  14.226  68.937  0.00  0.00    -0.572 OA
ATOM     71  H   IDS d 301     130.135  17.977  71.187  0.00  0.00     0.212 HD
ATOM     72  H   IDS d 301     133.116  15.129  74.401  0.00  0.00     0.092 H 
ATOM     73  H   IDS d 301     132.805  16.815  73.544  0.00  0.00     0.104 H 
ATOM     74  H   IDS d 301     130.355  14.068  73.122  0.00  0.00     0.091 H 
ATOM     75  H   IDS d 301     129.236  16.575  72.799  0.00  0.00     0.133 H 
ATOM     76  H   IDS d 301     131.922  16.095  71.532  0.00  0.00     0.097 H 
ATOM     77  H   IDS d 301     132.782  13.838  71.638  0.00  0.00     0.210 HD
ATOM     78  O1S SGN d 302     134.429  10.300  71.698  0.00  0.00    -0.296 OA
ATOM     79  C2  SGN d 302     134.122  11.832  75.181  0.00  0.00     0.081 C 
ATOM     80  S2  SGN d 302     135.408  15.569  79.803  0.00  0.00     0.251 S 
ATOM     81  N   SGN d 302     133.877  11.179  73.883  0.00  0.00    -0.210 NA
ATOM     82  C4  SGN d 302     133.616  11.881  77.625  0.00  0.00     0.095 C 
ATOM     83  O6  SGN d 302     134.770  14.398  78.987  0.00  0.00    -0.254 OA
ATOM     84  C5  SGN d 302     133.174  13.371  77.456  0.00  0.00     0.091 C 
ATOM     85  O4S SGN d 302     134.673  15.677  81.032  0.00  0.00    -0.572 OA
ATOM     86  O2S SGN d 302     135.587  12.234  72.419  0.00  0.00    -0.296 OA
ATOM     87  S1  SGN d 302     135.074  10.953  72.797  0.00  0.00     0.156 S 
ATOM     88  O5S SGN d 302     136.766  15.177  80.019  0.00  0.00    -0.572 OA
ATOM     89  O6S SGN d 302     135.285  16.727  78.966  0.00  0.00    -0.572 OA
ATOM     90  C6  SGN d 302     133.399  14.249  78.699  0.00  0.00     0.067 C 
ATOM     91  O3  SGN d 302     133.722   9.799  76.376  0.00  0.00    -0.391 OA
ATOM     92  C3  SGN d 302     133.328  11.158  76.292  0.00  0.00     0.083 C 
ATOM     93  O4  SGN d 302     132.938  11.051  78.564  0.00  0.00    -0.348 OA
ATOM     94  O3S SGN d 302     136.046  10.124  73.450  0.00  0.00    -0.296 OA
ATOM     95  C1  SGN d 302     133.743  13.331  75.079  0.00  0.00     0.150 C 
ATOM     96  O5  SGN d 302     133.892  13.981  76.347  0.00  0.00    -0.349 OA
ATOM     97  H   SGN d 302     133.785  10.904  71.295  0.00  0.00     0.231 HD
ATOM     98  H   SGN d 302     135.162  11.741  75.422  0.00  0.00     0.076 H 
ATOM     99  H   SGN d 302     133.163  11.735  73.411  0.00  0.00     0.140 HD
ATOM    100  H   SGN d 302     134.626  11.986  77.960  0.00  0.00     0.091 H 
ATOM    101  H   SGN d 302     132.120  13.330  77.279  0.00  0.00     0.090 H 
ATOM    102  H   SGN d 302     134.887  12.747  71.984  0.00  0.00     0.231 HD
ATOM    103  H   SGN d 302     132.974  15.216  78.524  0.00  0.00     0.080 H 
ATOM    104  H   SGN d 302     132.932  13.772  79.535  0.00  0.00     0.080 H 
ATOM    105  H   SGN d 302     133.537   9.356  75.534  0.00  0.00     0.210 HD
ATOM    106  H   SGN d 302     132.279  11.209  76.087  0.00  0.00     0.089 H 
ATOM    107  H   SGN d 302     135.641   9.274  73.682  0.00  0.00     0.231 HD
ATOM    108  H   SGN d 302     134.423  13.760  74.373  0.00  0.00     0.131 H 
ATOM    109  C1  IDS d 305     139.412   7.582  85.067  0.00  0.00     0.161 C 
ATOM    110  O1S IDS d 305     141.758   9.163  81.500  0.00  0.00    -0.572 OA
ATOM    111  S   IDS d 305     141.260   9.760  82.708  0.00  0.00     0.252 S 
ATOM    112  C4  IDS d 305     141.117   8.140  87.486  0.00  0.00    -0.005 C 
ATOM    113  O61 IDS d 305     138.475   7.873  89.609  0.00  0.00    -0.646 OA
ATOM    114  O3  IDS d 305     142.765   9.072  85.991  0.00  0.00    -0.393 OA
ATOM    115  O62 IDS d 305     139.273   6.047  89.032  0.00  0.00    -0.646 OA
ATOM    116  O2S IDS d 305     139.943  10.297  82.541  0.00  0.00    -0.572 OA
ATOM    117  O2  IDS d 305     141.164   8.571  83.720  0.00  0.00    -0.244 OA
ATOM    118  O5  IDS d 305     139.235   7.015  86.376  0.00  0.00    -0.343 OA
ATOM    119  C5  IDS d 305     139.577   7.861  87.497  0.00  0.00     0.127 C 
ATOM    120  C3  IDS d 305     141.688   8.156  86.040  0.00  0.00     0.069 C 
ATOM    121  C2  IDS d 305     140.605   8.575  85.025  0.00  0.00     0.132 C 
ATOM    122  C6  IDS d 305     139.080   7.218  88.789  0.00  0.00     0.203 C 
ATOM    123  O3S IDS d 305     142.184  10.692  83.286  0.00  0.00    -0.572 OA
ATOM    124  H   IDS d 305     139.602   6.756  84.413  0.00  0.00     0.133 H 
ATOM    125  H   IDS d 305     141.300   9.091  87.942  0.00  0.00     0.041 H 
ATOM    126  H   IDS d 305     141.602   7.355  88.028  0.00  0.00     0.041 H 
ATOM    127  H   IDS d 305     143.444   8.806  86.630  0.00  0.00     0.210 HD
ATOM    128  H   IDS d 305     139.092   8.811  87.424  0.00  0.00     0.100 H 
ATOM    129  H   IDS d 305     142.021   7.172  85.782  0.00  0.00     0.087 H 
ATOM    130  H   IDS d 305     140.253   9.555  85.275  0.00  0.00     0.097 H 
ENDROOT
TORSDOF 39
ENDMDL
MODEL 16
REMARK VINA RESULT:      -6.1      3.017      4.130
REMARK  0 active torsions:
REMARK  status: ('A' for Active; 'I' for Inactive)
REMARK       I    between atoms: C2_2  and  N_68 
REMARK       I    between atoms: C1_3  and  O4_24 
REMARK       I    between atoms: O1S_5  and  S1_58 
REMARK       I    between atoms: O1_6  and  C1_31 
REMARK       I    between atoms: C4_7  and  O4_36 
REMARK       I    between atoms: C1_8  and  O4_37 
REMARK       I    between atoms: O3_9  and  C3_74 
REMARK       I    between atoms: C5_10  and  C6_32 
REMARK       I    between atoms: C2_11  and  N_20 
REMARK       I    between atoms: C6_12  and  C5_53 
REMARK       I    between atoms: S2_14  and  O6_33 
REMARK       I    between atoms: O3S_16  and  S1_51 
REMARK       I    between atoms: S_17  and  O2_44 
REMARK       I    between atoms: N_20  and  S1_58 
REMARK       I    between atoms: O4_24  and  C4_38 
REMARK       I    between atoms: S_25  and  O2_64 
REMARK       I    between atoms: O2S_27  and  S1_51 
REMARK       I    between atoms: C4_28  and  O4_73 
REMARK       I    between atoms: C3_30  and  O3_62 
REMARK       I    between atoms: O6_33  and  C6_63 
REMARK       I    between atoms: O3_35  and  C3_55 
REMARK       I    between atoms: O4_36  and  C1_84 
REMARK       I    between atoms: O4_37  and  C4_54 
REMARK       I    between atoms: C3_39  and  O3_48 
REMARK       I    between atoms: C5_42  and  C6_63 
REMARK       I    between atoms: O2_44  and  C2_61 
REMARK       I    between atoms: O6_45  and  C6_77 
REMARK       I    between atoms: O6_45  and  S2_82 
REMARK       I    between atoms: C5_49  and  C6_76 
REMARK       I    between atoms: S1_51  and  N_68 
REMARK       I    between atoms: S1_51  and  O1S_81 
REMARK       I    between atoms: O2S_52  and  S1_58 
REMARK       I    between atoms: C2_57  and  O2_64 
REMARK       I    between atoms: S1_58  and  O3S_75 
REMARK       I    between atoms: O3_66  and  C3_67 
REMARK       I    between atoms: O2_69  and  C2_79 
REMARK       I    between atoms: O2_69  and  S_72 
REMARK       I    between atoms: C5_70  and  C6_77 
REMARK       I    between atoms: C1_71  and  O4_73 
ROOT
ATOM      1  O2S IDS d 303     128.401  11.973  78.151  0.00  0.00    -0.572 OA
ATOM      2  C6  IDS d 303     135.062  13.740  75.901  0.00  0.00     0.206 C 
ATOM      3  O1S IDS d 303     130.020  10.729  79.390  0.00  0.00    -0.572 OA
ATOM      4  O3S IDS d 303     129.322  12.885  80.176  0.00  0.00    -0.572 OA
ATOM      5  O4  IDS d 303     131.999  13.448  75.580  0.00  0.00    -0.348 OA
ATOM      6  O61 IDS d 303     135.603  14.628  75.274  0.00  0.00    -0.646 OA
ATOM      7  C4  IDS d 303     132.623  14.517  76.308  0.00  0.00     0.103 C 
ATOM      8  C3  IDS d 303     131.615  14.818  77.454  0.00  0.00     0.094 C 
ATOM      9  O62 IDS d 303     135.422  12.600  75.696  0.00  0.00    -0.646 OA
ATOM     10  O3  IDS d 303     131.971  16.056  78.045  0.00  0.00    -0.390 OA
ATOM     11  C5  IDS d 303     133.966  14.049  76.920  0.00  0.00     0.152 C 
ATOM     12  O2  IDS d 303     130.675  12.711  78.177  0.00  0.00    -0.244 OA
ATOM     13  C1  IDS d 303     132.945  13.067  78.893  0.00  0.00     0.161 C 
ATOM     14  S   IDS d 303     129.541  12.037  79.032  0.00  0.00     0.252 S 
ATOM     15  C2  IDS d 303     131.581  13.731  78.565  0.00  0.00     0.134 C 
ATOM     16  O5  IDS d 303     133.726  12.882  77.718  0.00  0.00    -0.340 OA
ATOM     17  H   IDS d 303     132.835  15.364  75.688  0.00  0.00     0.092 H 
ATOM     18  H   IDS d 303     130.639  14.838  77.016  0.00  0.00     0.091 H 
ATOM     19  H   IDS d 303     132.860  15.987  78.427  0.00  0.00     0.210 HD
ATOM     20  H   IDS d 303     134.330  14.869  77.501  0.00  0.00     0.104 H 
ATOM     21  H   IDS d 303     132.780  12.091  79.298  0.00  0.00     0.133 H 
ATOM     22  H   IDS d 303     131.281  14.244  79.455  0.00  0.00     0.097 H 
ATOM     23  C2  SGN d 304     130.358  12.765  73.890  0.00  0.00     0.081 C 
ATOM     24  C1  SGN d 304     131.514  13.725  74.284  0.00  0.00     0.150 C 
ATOM     25  O3  SGN d 304     129.844  10.463  73.368  0.00  0.00    -0.391 OA
ATOM     26  O3S SGN d 304     126.938  13.347  74.595  0.00  0.00    -0.296 OA
ATOM     27  O5S SGN d 304     133.424  14.005  68.724  0.00  0.00    -0.572 OA
ATOM     28  O2S SGN d 304     128.520  14.971  73.818  0.00  0.00    -0.296 OA
ATOM     29  O4S SGN d 304     134.855  12.125  69.113  0.00  0.00    -0.572 OA
ATOM     30  O4  SGN d 304     132.163   9.941  72.377  0.00  0.00    -0.348 OA
ATOM     31  O6  SGN d 304     133.771  13.259  70.950  0.00  0.00    -0.254 OA
ATOM     32  S1  SGN d 304     128.171  14.030  74.853  0.00  0.00     0.156 S 
ATOM     33  C4  SGN d 304     131.974  11.346  72.611  0.00  0.00     0.095 C 
ATOM     34  O6S SGN d 304     135.549  14.328  69.754  0.00  0.00    -0.572 OA
ATOM     35  N   SGN d 304     129.315  12.851  74.925  0.00  0.00    -0.210 NA
ATOM     36  C5  SGN d 304     133.107  12.327  73.059  0.00  0.00     0.091 C 
ATOM     37  C3  SGN d 304     130.903  11.330  73.734  0.00  0.00     0.083 C 
ATOM     38  C6  SGN d 304     134.247  12.506  72.046  0.00  0.00     0.067 C 
ATOM     39  O5  SGN d 304     132.573  13.649  73.329  0.00  0.00    -0.349 OA
ATOM     40  O1S SGN d 304     128.197  14.636  76.155  0.00  0.00    -0.296 OA
ATOM     41  S2  SGN d 304     134.448  13.432  69.553  0.00  0.00     0.251 S 
ATOM     42  H   SGN d 304     129.931  13.042  72.949  0.00  0.00     0.076 H 
ATOM     43  H   SGN d 304     131.122  14.721  74.289  0.00  0.00     0.131 H 
ATOM     44  H   SGN d 304     129.177  10.454  74.072  0.00  0.00     0.210 HD
ATOM     45  H   SGN d 304     126.964  12.955  73.708  0.00  0.00     0.231 HD
ATOM     46  H   SGN d 304     128.492  14.528  72.956  0.00  0.00     0.231 HD
ATOM     47  H   SGN d 304     131.784  11.759  71.642  0.00  0.00     0.091 H 
ATOM     48  H   SGN d 304     129.796  12.965  75.818  0.00  0.00     0.140 HD
ATOM     49  H   SGN d 304     133.511  11.864  73.935  0.00  0.00     0.090 H 
ATOM     50  H   SGN d 304     131.332  10.988  74.652  0.00  0.00     0.089 H 
ATOM     51  H   SGN d 304     135.062  13.023  72.510  0.00  0.00     0.080 H 
ATOM     52  H   SGN d 304     134.586  11.549  71.709  0.00  0.00     0.080 H 
ATOM     53  H   SGN d 304     127.542  15.350  76.193  0.00  0.00     0.231 HD
ATOM     54  O62 IDS d 301     134.177  11.472  85.229  0.00  0.00    -0.646 OA
ATOM     55  O1  IDS d 301     136.738  13.302  89.140  0.00  0.00    -0.368 OA
ATOM     56  C4  IDS d 301     136.510  13.632  85.071  0.00  0.00     0.103 C 
ATOM     57  C5  IDS d 301     136.141  12.511  86.114  0.00  0.00     0.152 C 
ATOM     58  O61 IDS d 301     135.836  10.252  85.436  0.00  0.00    -0.646 OA
ATOM     59  S   IDS d 301     139.202  16.163  88.488  0.00  0.00     0.252 S 
ATOM     60  C3  IDS d 301     136.976  14.929  85.803  0.00  0.00     0.094 C 
ATOM     61  C1  IDS d 301     136.207  13.994  88.045  0.00  0.00     0.158 C 
ATOM     62  C6  IDS d 301     135.332  11.345  85.560  0.00  0.00     0.206 C 
ATOM     63  O5  IDS d 301     135.432  13.118  87.217  0.00  0.00    -0.340 OA
ATOM     64  O4  IDS d 301     136.291  14.079  83.723  0.00  0.00    -0.348 OA
ATOM     65  O3S IDS d 301     138.917  17.170  89.480  0.00  0.00    -0.572 OA
ATOM     66  O1S IDS d 301     139.726  14.957  89.070  0.00  0.00    -0.572 OA
ATOM     67  C2  IDS d 301     137.394  14.621  87.254  0.00  0.00     0.134 C 
ATOM     68  O3  IDS d 301     138.080  15.491  85.110  0.00  0.00    -0.390 OA
ATOM     69  O2  IDS d 301     137.799  15.824  87.880  0.00  0.00    -0.244 OA
ATOM     70  O2S IDS d 301     139.995  16.659  87.393  0.00  0.00    -0.572 OA
ATOM     71  H   IDS d 301     137.258  13.912  89.687  0.00  0.00     0.212 HD
ATOM     72  H   IDS d 301     136.707  12.673  84.639  0.00  0.00     0.092 H 
ATOM     73  H   IDS d 301     137.070  12.080  86.424  0.00  0.00     0.104 H 
ATOM     74  H   IDS d 301     136.159  15.620  85.821  0.00  0.00     0.091 H 
ATOM     75  H   IDS d 301     135.546  14.766  88.378  0.00  0.00     0.133 H 
ATOM     76  H   IDS d 301     138.203  13.921  87.245  0.00  0.00     0.097 H 
ATOM     77  H   IDS d 301     138.813  14.856  85.100  0.00  0.00     0.210 HD
ATOM     78  O1S SGN d 302     140.032  16.176  81.636  0.00  0.00    -0.296 OA
ATOM     79  C2  SGN d 302     136.950  13.943  81.349  0.00  0.00     0.081 C 
ATOM     80  S2  SGN d 302     133.737   8.780  81.375  0.00  0.00     0.251 S 
ATOM     81  N   SGN d 302     137.890  15.055  81.576  0.00  0.00    -0.210 NA
ATOM     82  C4  SGN d 302     134.694  13.245  80.538  0.00  0.00     0.095 C 
ATOM     83  O6  SGN d 302     134.098  10.290  81.200  0.00  0.00    -0.254 OA
ATOM     84  C5  SGN d 302     134.446  12.589  81.935  0.00  0.00     0.091 C 
ATOM     85  O4S SGN d 302     132.308   8.672  81.270  0.00  0.00    -0.572 OA
ATOM     86  O2S SGN d 302     139.996  13.868  82.155  0.00  0.00    -0.296 OA
ATOM     87  S1  SGN d 302     139.490  14.895  81.298  0.00  0.00     0.156 S 
ATOM     88  O5S SGN d 302     134.409   8.108  80.306  0.00  0.00    -0.572 OA
ATOM     89  O6S SGN d 302     134.238   8.416  82.668  0.00  0.00    -0.572 OA
ATOM     90  C6  SGN d 302     133.519  11.361  81.909  0.00  0.00     0.067 C 
ATOM     91  O3  SGN d 302     135.919  15.076  79.512  0.00  0.00    -0.391 OA
ATOM     92  C3  SGN d 302     135.642  14.444  80.750  0.00  0.00     0.083 C 
ATOM     93  O4  SGN d 302     133.606  13.847  79.843  0.00  0.00    -0.348 OA
ATOM     94  O3S SGN d 302     139.617  14.582  79.904  0.00  0.00    -0.296 OA
ATOM     95  C1  SGN d 302     136.685  13.215  82.691  0.00  0.00     0.150 C 
ATOM     96  O5  SGN d 302     135.711  12.177  82.524  0.00  0.00    -0.349 OA
ATOM     97  H   SGN d 302     139.920  16.334  82.587  0.00  0.00     0.231 HD
ATOM     98  H   SGN d 302     137.387  13.259  80.651  0.00  0.00     0.076 H 
ATOM     99  H   SGN d 302     137.794  15.316  82.558  0.00  0.00     0.140 HD
ATOM    100  H   SGN d 302     135.023  12.410  79.956  0.00  0.00     0.091 H 
ATOM    101  H   SGN d 302     133.959  13.346  82.514  0.00  0.00     0.090 H 
ATOM    102  H   SGN d 302     139.883  14.135  83.081  0.00  0.00     0.231 HD
ATOM    103  H   SGN d 302     133.328  11.049  82.914  0.00  0.00     0.080 H 
ATOM    104  H   SGN d 302     132.611  11.637  81.415  0.00  0.00     0.080 H 
ATOM    105  H   SGN d 302     136.515  15.827  79.658  0.00  0.00     0.210 HD
ATOM    106  H   SGN d 302     135.174  15.147  81.407  0.00  0.00     0.089 H 
ATOM    107  H   SGN d 302     139.258  15.312  79.375  0.00  0.00     0.231 HD
ATOM    108  H   SGN d 302     137.620  12.786  82.984  0.00  0.00     0.131 H 
ATOM    109  C1  IDS d 305     132.572   9.525  71.098  0.00  0.00     0.161 C 
ATOM    110  O1S IDS d 305     136.694   8.433  72.693  0.00  0.00    -0.572 OA
ATOM    111  S   IDS d 305     135.386   7.858  72.839  0.00  0.00     0.252 S 
ATOM    112  C4  IDS d 305     131.620   7.116  69.561  0.00  0.00    -0.005 C 
ATOM    113  O61 IDS d 305     128.367   8.091  69.734  0.00  0.00    -0.646 OA
ATOM    114  O3  IDS d 305     133.723   6.063  70.094  0.00  0.00    -0.393 OA
ATOM    115  O62 IDS d 305     129.451   9.049  68.247  0.00  0.00    -0.646 OA
ATOM    116  O2S IDS d 305     134.688   8.386  73.972  0.00  0.00    -0.572 OA
ATOM    117  O2  IDS d 305     134.616   8.309  71.554  0.00  0.00    -0.244 OA
ATOM    118  O5  IDS d 305     131.469   9.490  70.178  0.00  0.00    -0.343 OA
ATOM    119  C5  IDS d 305     130.712   8.260  70.124  0.00  0.00     0.127 C 
ATOM    120  C3  IDS d 305     133.114   7.330  69.938  0.00  0.00     0.069 C 
ATOM    121  C2  IDS d 305     133.241   8.132  71.250  0.00  0.00     0.132 C 
ATOM    122  C6  IDS d 305     129.436   8.482  69.317  0.00  0.00     0.203 C 
ATOM    123  O3S IDS d 305     135.403   6.425  72.801  0.00  0.00    -0.572 OA
ATOM    124  H   IDS d 305     133.273  10.222  70.688  0.00  0.00     0.133 H 
ATOM    125  H   IDS d 305     131.290   6.181  69.964  0.00  0.00     0.041 H 
ATOM    126  H   IDS d 305     131.541   7.122  68.494  0.00  0.00     0.041 H 
ATOM    127  H   IDS d 305     133.642   5.561  69.269  0.00  0.00     0.210 HD
ATOM    128  H   IDS d 305     130.404   7.954  71.102  0.00  0.00     0.100 H 
ATOM    129  H   IDS d 305     133.596   7.885  69.161  0.00  0.00     0.087 H 
ATOM    130  H   IDS d 305     132.753   7.594  72.036  0.00  0.00     0.097 H 
ENDROOT
TORSDOF 39
ENDMDL
MODEL 17
REMARK VINA RESULT:      -6.1      3.927     14.213
REMARK  0 active torsions:
REMARK  status: ('A' for Active; 'I' for Inactive)
REMARK       I    between atoms: C2_2  and  N_68 
REMARK       I    between atoms: C1_3  and  O4_24 
REMARK       I    between atoms: O1S_5  and  S1_58 
REMARK       I    between atoms: O1_6  and  C1_31 
REMARK       I    between atoms: C4_7  and  O4_36 
REMARK       I    between atoms: C1_8  and  O4_37 
REMARK       I    between atoms: O3_9  and  C3_74 
REMARK       I    between atoms: C5_10  and  C6_32 
REMARK       I    between atoms: C2_11  and  N_20 
REMARK       I    between atoms: C6_12  and  C5_53 
REMARK       I    between atoms: S2_14  and  O6_33 
REMARK       I    between atoms: O3S_16  and  S1_51 
REMARK       I    between atoms: S_17  and  O2_44 
REMARK       I    between atoms: N_20  and  S1_58 
REMARK       I    between atoms: O4_24  and  C4_38 
REMARK       I    between atoms: S_25  and  O2_64 
REMARK       I    between atoms: O2S_27  and  S1_51 
REMARK       I    between atoms: C4_28  and  O4_73 
REMARK       I    between atoms: C3_30  and  O3_62 
REMARK       I    between atoms: O6_33  and  C6_63 
REMARK       I    between atoms: O3_35  and  C3_55 
REMARK       I    between atoms: O4_36  and  C1_84 
REMARK       I    between atoms: O4_37  and  C4_54 
REMARK       I    between atoms: C3_39  and  O3_48 
REMARK       I    between atoms: C5_42  and  C6_63 
REMARK       I    between atoms: O2_44  and  C2_61 
REMARK       I    between atoms: O6_45  and  C6_77 
REMARK       I    between atoms: O6_45  and  S2_82 
REMARK       I    between atoms: C5_49  and  C6_76 
REMARK       I    between atoms: S1_51  and  N_68 
REMARK       I    between atoms: S1_51  and  O1S_81 
REMARK       I    between atoms: O2S_52  and  S1_58 
REMARK       I    between atoms: C2_57  and  O2_64 
REMARK       I    between atoms: S1_58  and  O3S_75 
REMARK       I    between atoms: O3_66  and  C3_67 
REMARK       I    between atoms: O2_69  and  C2_79 
REMARK       I    between atoms: O2_69  and  S_72 
REMARK       I    between atoms: C5_70  and  C6_77 
REMARK       I    between atoms: C1_71  and  O4_73 
ROOT
ATOM      1  O2S IDS d 303     139.089   9.606  81.662  0.00  0.00    -0.572 OA
ATOM      2  C6  IDS d 303     134.565  15.263  81.951  0.00  0.00     0.206 C 
ATOM      3  O1S IDS d 303     137.113   9.113  80.415  0.00  0.00    -0.572 OA
ATOM      4  O3S IDS d 303     138.962  10.188  79.332  0.00  0.00    -0.572 OA
ATOM      5  O4  IDS d 303     136.879  13.490  82.987  0.00  0.00    -0.348 OA
ATOM      6  O61 IDS d 303     134.605  16.445  82.228  0.00  0.00    -0.646 OA
ATOM      7  C4  IDS d 303     137.022  14.439  81.918  0.00  0.00     0.103 C 
ATOM      8  C3  IDS d 303     138.074  13.779  80.980  0.00  0.00     0.094 C 
ATOM      9  O62 IDS d 303     133.603  14.625  82.326  0.00  0.00    -0.646 OA
ATOM     10  O3  IDS d 303     138.525  14.758  80.062  0.00  0.00    -0.390 OA
ATOM     11  C5  IDS d 303     135.687  14.601  81.152  0.00  0.00     0.152 C 
ATOM     12  O2  IDS d 303     137.661  11.396  80.976  0.00  0.00    -0.244 OA
ATOM     13  C1  IDS d 303     136.050  12.672  79.723  0.00  0.00     0.161 C 
ATOM     14  S   IDS d 303     138.239   9.994  80.563  0.00  0.00     0.252 S 
ATOM     15  C2  IDS d 303     137.529  12.563  80.180  0.00  0.00     0.134 C 
ATOM     16  O5  IDS d 303     135.248  13.309  80.710  0.00  0.00    -0.340 OA
ATOM     17  H   IDS d 303     137.307  15.409  82.268  0.00  0.00     0.092 H 
ATOM     18  H   IDS d 303     138.860  13.407  81.604  0.00  0.00     0.091 H 
ATOM     19  H   IDS d 303     137.780  15.062  79.521  0.00  0.00     0.210 HD
ATOM     20  H   IDS d 303     135.891  15.261  80.335  0.00  0.00     0.104 H 
ATOM     21  H   IDS d 303     135.641  11.691  79.595  0.00  0.00     0.133 H 
ATOM     22  H   IDS d 303     138.113  12.529  79.284  0.00  0.00     0.097 H 
ATOM     23  C2  SGN d 304     137.741  12.598  85.103  0.00  0.00     0.081 C 
ATOM     24  C1  SGN d 304     137.371  13.850  84.260  0.00  0.00     0.150 C 
ATOM     25  O3  SGN d 304     136.807  10.677  86.231  0.00  0.00    -0.391 OA
ATOM     26  O3S SGN d 304     140.901  11.002  85.045  0.00  0.00    -0.296 OA
ATOM     27  O5S SGN d 304     135.703  16.818  89.061  0.00  0.00    -0.572 OA
ATOM     28  O2S SGN d 304     140.509  13.366  85.070  0.00  0.00    -0.296 OA
ATOM     29  O4S SGN d 304     133.470  15.989  88.807  0.00  0.00    -0.572 OA
ATOM     30  O4  SGN d 304     134.566  11.818  86.788  0.00  0.00    -0.348 OA
ATOM     31  O6  SGN d 304     135.099  15.728  87.041  0.00  0.00    -0.254 OA
ATOM     32  S1  SGN d 304     140.302  12.120  84.377  0.00  0.00     0.156 S 
ATOM     33  C4  SGN d 304     135.542  12.748  86.288  0.00  0.00     0.095 C 
ATOM     34  O6S SGN d 304     134.206  17.891  87.548  0.00  0.00    -0.572 OA
ATOM     35  N   SGN d 304     138.692  11.786  84.327  0.00  0.00    -0.210 NA
ATOM     36  C5  SGN d 304     135.205  13.986  85.394  0.00  0.00     0.091 C 
ATOM     37  C3  SGN d 304     136.461  11.813  85.458  0.00  0.00     0.083 C 
ATOM     38  C6  SGN d 304     134.330  15.052  86.067  0.00  0.00     0.067 C 
ATOM     39  O5  SGN d 304     136.416  14.654  84.954  0.00  0.00    -0.349 OA
ATOM     40  O1S SGN d 304     140.693  12.206  82.998  0.00  0.00    -0.296 OA
ATOM     41  S2  SGN d 304     134.577  16.660  88.181  0.00  0.00     0.251 S 
ATOM     42  H   SGN d 304     138.203  12.878  86.026  0.00  0.00     0.076 H 
ATOM     43  H   SGN d 304     138.265  14.420  84.115  0.00  0.00     0.131 H 
ATOM     44  H   SGN d 304     137.381  10.094  85.710  0.00  0.00     0.210 HD
ATOM     45  H   SGN d 304     140.610  10.984  85.969  0.00  0.00     0.231 HD
ATOM     46  H   SGN d 304     140.234  13.271  85.996  0.00  0.00     0.231 HD
ATOM     47  H   SGN d 304     135.888  13.270  87.156  0.00  0.00     0.091 H 
ATOM     48  H   SGN d 304     138.409  11.856  83.349  0.00  0.00     0.140 HD
ATOM     49  H   SGN d 304     134.652  13.568  84.579  0.00  0.00     0.090 H 
ATOM     50  H   SGN d 304     135.960  11.490  84.570  0.00  0.00     0.089 H 
ATOM     51  H   SGN d 304     133.986  15.751  85.333  0.00  0.00     0.080 H 
ATOM     52  H   SGN d 304     133.485  14.587  86.531  0.00  0.00     0.080 H 
ATOM     53  H   SGN d 304     141.641  12.403  82.942  0.00  0.00     0.231 HD
ATOM     54  O62 IDS d 301     134.436  10.115  73.801  0.00  0.00    -0.646 OA
ATOM     55  O1  IDS d 301     133.593  11.713  69.116  0.00  0.00    -0.368 OA
ATOM     56  C4  IDS d 301     133.770  13.111  72.955  0.00  0.00     0.103 C 
ATOM     57  C5  IDS d 301     133.476  11.710  72.298  0.00  0.00     0.152 C 
ATOM     58  O61 IDS d 301     132.390   9.983  73.520  0.00  0.00    -0.646 OA
ATOM     59  S   IDS d 301     133.202  15.483  68.552  0.00  0.00     0.252 S 
ATOM     60  C3  IDS d 301     134.174  14.153  71.864  0.00  0.00     0.094 C 
ATOM     61  C1  IDS d 301     134.372  12.311  70.115  0.00  0.00     0.158 C 
ATOM     62  C6  IDS d 301     133.437  10.532  73.264  0.00  0.00     0.206 C 
ATOM     63  O5  IDS d 301     134.458  11.465  71.267  0.00  0.00    -0.340 OA
ATOM     64  O4  IDS d 301     134.141  13.762  74.181  0.00  0.00    -0.348 OA
ATOM     65  O3S IDS d 301     134.062  15.812  67.443  0.00  0.00    -0.572 OA
ATOM     66  O1S IDS d 301     132.107  14.636  68.159  0.00  0.00    -0.572 OA
ATOM     67  C2  IDS d 301     133.726  13.685  70.465  0.00  0.00     0.134 C 
ATOM     68  O3  IDS d 301     133.564  15.400  72.155  0.00  0.00    -0.390 OA
ATOM     69  O2  IDS d 301     134.120  14.652  69.510  0.00  0.00    -0.244 OA
ATOM     70  O2S IDS d 301     132.786  16.636  69.306  0.00  0.00    -0.572 OA
ATOM     71  H   IDS d 301     133.547  12.301  68.346  0.00  0.00     0.212 HD
ATOM     72  H   IDS d 301     133.036  12.598  73.539  0.00  0.00     0.092 H 
ATOM     73  H   IDS d 301     132.485  11.773  71.900  0.00  0.00     0.104 H 
ATOM     74  H   IDS d 301     135.240  14.251  71.868  0.00  0.00     0.091 H 
ATOM     75  H   IDS d 301     135.372  12.460  69.767  0.00  0.00     0.133 H 
ATOM     76  H   IDS d 301     132.663  13.572  70.457  0.00  0.00     0.097 H 
ATOM     77  H   IDS d 301     132.599  15.298  72.149  0.00  0.00     0.210 HD
ATOM     78  O1S SGN d 302     132.196  18.062  74.874  0.00  0.00    -0.296 OA
ATOM     79  C2  SGN d 302     133.408  14.745  76.322  0.00  0.00     0.081 C 
ATOM     80  S2  SGN d 302     133.054   8.961  78.165  0.00  0.00     0.251 S 
ATOM     81  N   SGN d 302     133.294  16.052  75.650  0.00  0.00    -0.210 NA
ATOM     82  C4  SGN d 302     134.806  13.239  77.741  0.00  0.00     0.095 C 
ATOM     83  O6  SGN d 302     133.622  10.395  77.911  0.00  0.00    -0.254 OA
ATOM     84  C5  SGN d 302     134.699  12.158  76.616  0.00  0.00     0.091 C 
ATOM     85  O4S SGN d 302     134.152   8.143  78.600  0.00  0.00    -0.572 OA
ATOM     86  O2S SGN d 302     130.920  16.070  74.912  0.00  0.00    -0.296 OA
ATOM     87  S1  SGN d 302     131.883  16.870  75.603  0.00  0.00     0.156 S 
ATOM     88  O5S SGN d 302     132.067   9.126  79.187  0.00  0.00    -0.572 OA
ATOM     89  O6S SGN d 302     132.499   8.543  76.911  0.00  0.00    -0.572 OA
ATOM     90  C6  SGN d 302     134.745  10.705  77.121  0.00  0.00     0.067 C 
ATOM     91  O3  SGN d 302     134.812  15.652  78.034  0.00  0.00    -0.391 OA
ATOM     92  C3  SGN d 302     134.735  14.623  77.061  0.00  0.00     0.083 C 
ATOM     93  O4  SGN d 302     136.007  13.344  78.500  0.00  0.00    -0.348 OA
ATOM     94  O3S SGN d 302     131.532  17.125  76.971  0.00  0.00    -0.296 OA
ATOM     95  C1  SGN d 302     133.271  13.615  75.270  0.00  0.00     0.150 C 
ATOM     96  O5  SGN d 302     133.458  12.330  75.876  0.00  0.00    -0.349 OA
ATOM     97  H   SGN d 302     132.426  17.831  73.960  0.00  0.00     0.231 HD
ATOM     98  H   SGN d 302     132.624  14.659  77.045  0.00  0.00     0.076 H 
ATOM     99  H   SGN d 302     133.571  15.901  74.680  0.00  0.00     0.140 HD
ATOM    100  H   SGN d 302     134.028  12.940  78.410  0.00  0.00     0.091 H 
ATOM    101  H   SGN d 302     135.560  12.311  76.001  0.00  0.00     0.090 H 
ATOM    102  H   SGN d 302     131.211  15.932  73.997  0.00  0.00     0.231 HD
ATOM    103  H   SGN d 302     134.770  10.046  76.279  0.00  0.00     0.080 H 
ATOM    104  H   SGN d 302     135.621  10.588  77.725  0.00  0.00     0.080 H 
ATOM    105  H   SGN d 302     134.766  16.515  77.595  0.00  0.00     0.210 HD
ATOM    106  H   SGN d 302     135.554  14.720  76.380  0.00  0.00     0.089 H 
ATOM    107  H   SGN d 302     132.219  17.670  77.385  0.00  0.00     0.231 HD
ATOM    108  H   SGN d 302     132.275  13.690  74.886  0.00  0.00     0.131 H 
ATOM    109  C1  IDS d 305     133.930  12.108  88.008  0.00  0.00     0.161 C 
ATOM    110  O1S IDS d 305     130.017  12.966  85.845  0.00  0.00    -0.572 OA
ATOM    111  S   IDS d 305     130.760  11.768  86.121  0.00  0.00     0.252 S 
ATOM    112  C4  IDS d 305     133.244  10.183  90.219  0.00  0.00    -0.005 C 
ATOM    113  O61 IDS d 305     136.467   9.150  90.540  0.00  0.00    -0.646 OA
ATOM    114  O3  IDS d 305     130.947  10.318  89.495  0.00  0.00    -0.393 OA
ATOM    115  O62 IDS d 305     136.062  10.945  91.500  0.00  0.00    -0.646 OA
ATOM    116  O2S IDS d 305     131.689  11.457  85.077  0.00  0.00    -0.572 OA
ATOM    117  O2  IDS d 305     131.585  12.108  87.406  0.00  0.00    -0.244 OA
ATOM    118  O5  IDS d 305     134.765  11.774  89.128  0.00  0.00    -0.343 OA
ATOM    119  C5  IDS d 305     134.671  10.419  89.623  0.00  0.00     0.127 C 
ATOM    120  C3  IDS d 305     132.167  11.035  89.489  0.00  0.00     0.069 C 
ATOM    121  C2  IDS d 305     132.589  11.326  88.034  0.00  0.00     0.132 C 
ATOM    122  C6  IDS d 305     135.800  10.159  90.615  0.00  0.00     0.203 C 
ATOM    123  O3S IDS d 305     129.918  10.664  86.478  0.00  0.00    -0.572 OA
ATOM    124  H   IDS d 305     133.741  13.158  88.086  0.00  0.00     0.133 H 
ATOM    125  H   IDS d 305     132.993   9.147  90.120  0.00  0.00     0.041 H 
ATOM    126  H   IDS d 305     133.259  10.476  91.248  0.00  0.00     0.041 H 
ATOM    127  H   IDS d 305     130.683  10.136  90.410  0.00  0.00     0.210 HD
ATOM    128  H   IDS d 305     134.794   9.711  88.830  0.00  0.00     0.100 H 
ATOM    129  H   IDS d 305     132.055  11.970  89.995  0.00  0.00     0.087 H 
ATOM    130  H   IDS d 305     132.716  10.398  87.515  0.00  0.00     0.097 H 
ENDROOT
TORSDOF 39
ENDMDL
MODEL 18
REMARK VINA RESULT:      -6.0      4.359      7.115
REMARK  0 active torsions:
REMARK  status: ('A' for Active; 'I' for Inactive)
REMARK       I    between atoms: C2_2  and  N_68 
REMARK       I    between atoms: C1_3  and  O4_24 
REMARK       I    between atoms: O1S_5  and  S1_58 
REMARK       I    between atoms: O1_6  and  C1_31 
REMARK       I    between atoms: C4_7  and  O4_36 
REMARK       I    between atoms: C1_8  and  O4_37 
REMARK       I    between atoms: O3_9  and  C3_74 
REMARK       I    between atoms: C5_10  and  C6_32 
REMARK       I    between atoms: C2_11  and  N_20 
REMARK       I    between atoms: C6_12  and  C5_53 
REMARK       I    between atoms: S2_14  and  O6_33 
REMARK       I    between atoms: O3S_16  and  S1_51 
REMARK       I    between atoms: S_17  and  O2_44 
REMARK       I    between atoms: N_20  and  S1_58 
REMARK       I    between atoms: O4_24  and  C4_38 
REMARK       I    between atoms: S_25  and  O2_64 
REMARK       I    between atoms: O2S_27  and  S1_51 
REMARK       I    between atoms: C4_28  and  O4_73 
REMARK       I    between atoms: C3_30  and  O3_62 
REMARK       I    between atoms: O6_33  and  C6_63 
REMARK       I    between atoms: O3_35  and  C3_55 
REMARK       I    between atoms: O4_36  and  C1_84 
REMARK       I    between atoms: O4_37  and  C4_54 
REMARK       I    between atoms: C3_39  and  O3_48 
REMARK       I    between atoms: C5_42  and  C6_63 
REMARK       I    between atoms: O2_44  and  C2_61 
REMARK       I    between atoms: O6_45  and  C6_77 
REMARK       I    between atoms: O6_45  and  S2_82 
REMARK       I    between atoms: C5_49  and  C6_76 
REMARK       I    between atoms: S1_51  and  N_68 
REMARK       I    between atoms: S1_51  and  O1S_81 
REMARK       I    between atoms: O2S_52  and  S1_58 
REMARK       I    between atoms: C2_57  and  O2_64 
REMARK       I    between atoms: S1_58  and  O3S_75 
REMARK       I    between atoms: O3_66  and  C3_67 
REMARK       I    between atoms: O2_69  and  C2_79 
REMARK       I    between atoms: O2_69  and  S_72 
REMARK       I    between atoms: C5_70  and  C6_77 
REMARK       I    between atoms: C1_71  and  O4_73 
ROOT
ATOM      1  O2S IDS d 303     129.751  13.208  71.475  0.00  0.00    -0.572 OA
ATOM      2  C6  IDS d 303     135.769  11.787  75.258  0.00  0.00     0.206 C 
ATOM      3  O1S IDS d 303     129.185  11.985  73.447  0.00  0.00    -0.572 OA
ATOM      4  O3S IDS d 303     129.272  14.380  73.519  0.00  0.00    -0.572 OA
ATOM      5  O4  IDS d 303     134.188  12.445  72.682  0.00  0.00    -0.348 OA
ATOM      6  O61 IDS d 303     136.917  12.179  75.320  0.00  0.00    -0.646 OA
ATOM      7  C4  IDS d 303     134.524  13.423  73.679  0.00  0.00     0.103 C 
ATOM      8  C3  IDS d 303     133.320  14.407  73.648  0.00  0.00     0.094 C 
ATOM      9  O62 IDS d 303     135.572  10.593  75.347  0.00  0.00    -0.646 OA
ATOM     10  O3  IDS d 303     133.685  15.577  74.361  0.00  0.00    -0.390 OA
ATOM     11  C5  IDS d 303     134.610  12.766  75.078  0.00  0.00     0.152 C 
ATOM     12  O2  IDS d 303     131.316  13.106  73.279  0.00  0.00    -0.244 OA
ATOM     13  C1  IDS d 303     132.222  12.901  75.499  0.00  0.00     0.161 C 
ATOM     14  S   IDS d 303     129.788  13.177  72.916  0.00  0.00     0.252 S 
ATOM     15  C2  IDS d 303     132.020  13.832  74.275  0.00  0.00     0.134 C 
ATOM     16  O5  IDS d 303     133.376  12.084  75.344  0.00  0.00    -0.340 OA
ATOM     17  H   IDS d 303     135.468  13.890  73.491  0.00  0.00     0.092 H 
ATOM     18  H   IDS d 303     133.104  14.605  72.619  0.00  0.00     0.091 H 
ATOM     19  H   IDS d 303     133.871  15.347  75.285  0.00  0.00     0.210 HD
ATOM     20  H   IDS d 303     134.790  13.561  75.770  0.00  0.00     0.104 H 
ATOM     21  H   IDS d 303     131.391  12.232  75.582  0.00  0.00     0.133 H 
ATOM     22  H   IDS d 303     131.479  14.682  74.636  0.00  0.00     0.097 H 
ATOM     23  C2  SGN d 304     134.149  11.826  70.309  0.00  0.00     0.081 C 
ATOM     24  C1  SGN d 304     134.955  12.419  71.498  0.00  0.00     0.150 C 
ATOM     25  O3  SGN d 304     133.150   9.795  69.466  0.00  0.00    -0.391 OA
ATOM     26  O3S SGN d 304     132.071  13.718  68.154  0.00  0.00    -0.296 OA
ATOM     27  O5S SGN d 304     139.990  10.169  69.442  0.00  0.00    -0.572 OA
ATOM     28  O2S SGN d 304     134.235  14.361  68.959  0.00  0.00    -0.296 OA
ATOM     29  O4S SGN d 304     139.616   8.164  70.697  0.00  0.00    -0.572 OA
ATOM     30  O4  SGN d 304     134.856   8.229  70.593  0.00  0.00    -0.348 OA
ATOM     31  O6  SGN d 304     138.282  10.139  71.088  0.00  0.00    -0.254 OA
ATOM     32  S1  SGN d 304     132.884  13.995  69.302  0.00  0.00     0.156 S 
ATOM     33  C4  SGN d 304     135.251   9.609  70.667  0.00  0.00     0.095 C 
ATOM     34  O6S SGN d 304     140.582  10.087  71.749  0.00  0.00    -0.572 OA
ATOM     35  N   SGN d 304     132.902  12.598  70.170  0.00  0.00    -0.210 NA
ATOM     36  C5  SGN d 304     136.016  10.244  71.874  0.00  0.00     0.091 C 
ATOM     37  C3  SGN d 304     133.880  10.328  70.557  0.00  0.00     0.083 C 
ATOM     38  C6  SGN d 304     137.425   9.683  72.115  0.00  0.00     0.067 C 
ATOM     39  O5  SGN d 304     136.159  11.678  71.701  0.00  0.00    -0.349 OA
ATOM     40  O1S SGN d 304     132.278  14.955  70.181  0.00  0.00    -0.296 OA
ATOM     41  S2  SGN d 304     139.702   9.598  70.729  0.00  0.00     0.251 S 
ATOM     42  H   SGN d 304     134.701  11.899  69.395  0.00  0.00     0.076 H 
ATOM     43  H   SGN d 304     135.207  13.429  71.249  0.00  0.00     0.131 H 
ATOM     44  H   SGN d 304     132.294  10.246  69.399  0.00  0.00     0.210 HD
ATOM     45  H   SGN d 304     132.518  13.067  67.591  0.00  0.00     0.231 HD
ATOM     46  H   SGN d 304     134.611  13.692  68.366  0.00  0.00     0.231 HD
ATOM     47  H   SGN d 304     136.015   9.712  69.925  0.00  0.00     0.091 H 
ATOM     48  H   SGN d 304     132.597  12.835  71.114  0.00  0.00     0.140 HD
ATOM     49  H   SGN d 304     135.410   9.995  72.719  0.00  0.00     0.090 H 
ATOM     50  H   SGN d 304     133.315  10.191  71.454  0.00  0.00     0.089 H 
ATOM     51  H   SGN d 304     137.789  10.021  73.063  0.00  0.00     0.080 H 
ATOM     52  H   SGN d 304     137.394   8.614  72.114  0.00  0.00     0.080 H 
ATOM     53  H   SGN d 304     132.231  15.816  69.738  0.00  0.00     0.231 HD
ATOM     54  O62 IDS d 301     127.738  13.202  80.400  0.00  0.00    -0.646 OA
ATOM     55  O1  IDS d 301     127.274  15.267  84.954  0.00  0.00    -0.368 OA
ATOM     56  C4  IDS d 301     130.133  14.273  82.204  0.00  0.00     0.103 C 
ATOM     57  C5  IDS d 301     128.680  13.758  82.528  0.00  0.00     0.152 C 
ATOM     58  O61 IDS d 301     127.924  11.642  81.747  0.00  0.00    -0.646 OA
ATOM     59  S   IDS d 301     130.412  16.747  86.578  0.00  0.00     0.252 S 
ATOM     60  C3  IDS d 301     130.487  15.506  83.094  0.00  0.00     0.094 C 
ATOM     61  C1  IDS d 301     128.071  15.687  83.882  0.00  0.00     0.158 C 
ATOM     62  C6  IDS d 301     128.077  12.815  81.494  0.00  0.00     0.206 C 
ATOM     63  O5  IDS d 301     127.813  14.898  82.715  0.00  0.00    -0.340 OA
ATOM     64  O4  IDS d 301     131.160  14.289  81.200  0.00  0.00    -0.348 OA
ATOM     65  O3S IDS d 301     130.041  18.061  87.041  0.00  0.00    -0.572 OA
ATOM     66  O1S IDS d 301     129.726  15.703  87.291  0.00  0.00    -0.572 OA
ATOM     67  C2  IDS d 301     129.562  15.579  84.324  0.00  0.00     0.134 C 
ATOM     68  O3  IDS d 301     131.834  15.400  83.530  0.00  0.00    -0.390 OA
ATOM     69  O2  IDS d 301     129.912  16.714  85.095  0.00  0.00    -0.244 OA
ATOM     70  O2S IDS d 301     131.838  16.552  86.517  0.00  0.00    -0.572 OA
ATOM     71  H   IDS d 301     127.464  15.813  85.732  0.00  0.00     0.212 HD
ATOM     72  H   IDS d 301     130.089  13.218  82.032  0.00  0.00     0.092 H 
ATOM     73  H   IDS d 301     128.767  13.171  83.418  0.00  0.00     0.104 H 
ATOM     74  H   IDS d 301     130.355  16.394  82.511  0.00  0.00     0.091 H 
ATOM     75  H   IDS d 301     127.843  16.700  83.625  0.00  0.00     0.133 H 
ATOM     76  H   IDS d 301     129.679  14.689  84.905  0.00  0.00     0.097 H 
ATOM     77  H   IDS d 301     131.941  14.592  84.056  0.00  0.00     0.210 HD
ATOM     78  O1S SGN d 302     135.632  14.190  82.857  0.00  0.00    -0.296 OA
ATOM     79  C2  SGN d 302     133.105  13.156  80.189  0.00  0.00     0.081 C 
ATOM     80  S2  SGN d 302     128.912   9.688  77.473  0.00  0.00     0.251 S 
ATOM     81  N   SGN d 302     133.981  13.898  81.113  0.00  0.00    -0.210 NA
ATOM     82  C4  SGN d 302     132.113  13.023  77.902  0.00  0.00     0.095 C 
ATOM     83  O6  SGN d 302     129.940  10.840  77.716  0.00  0.00    -0.254 OA
ATOM     84  C5  SGN d 302     130.699  12.996  78.567  0.00  0.00     0.091 C 
ATOM     85  O4S SGN d 302     128.158  10.036  76.301  0.00  0.00    -0.572 OA
ATOM     86  O2S SGN d 302     134.167  12.342  83.043  0.00  0.00    -0.296 OA
ATOM     87  S1  SGN d 302     134.970  13.129  82.159  0.00  0.00     0.156 S 
ATOM     88  O5S SGN d 302     129.705   8.515  77.276  0.00  0.00    -0.572 OA
ATOM     89  O6S SGN d 302     128.115   9.633  78.664  0.00  0.00    -0.572 OA
ATOM     90  C6  SGN d 302     129.636  12.214  77.775  0.00  0.00     0.067 C 
ATOM     91  O3  SGN d 302     134.354  13.885  78.283  0.00  0.00    -0.391 OA
ATOM     92  C3  SGN d 302     133.045  13.834  78.827  0.00  0.00     0.083 C 
ATOM     93  O4  SGN d 302     132.288  13.685  76.653  0.00  0.00    -0.348 OA
ATOM     94  O3S SGN d 302     135.861  12.345  81.353  0.00  0.00    -0.296 OA
ATOM     95  C1  SGN d 302     131.685  13.052  80.803  0.00  0.00     0.150 C 
ATOM     96  O5  SGN d 302     130.785  12.407  79.895  0.00  0.00    -0.349 OA
ATOM     97  H   SGN d 302     134.985  14.685  83.383  0.00  0.00     0.231 HD
ATOM     98  H   SGN d 302     133.507  12.174  80.047  0.00  0.00     0.076 H 
ATOM     99  H   SGN d 302     133.370  14.488  81.678  0.00  0.00     0.140 HD
ATOM    100  H   SGN d 302     132.304  11.983  77.743  0.00  0.00     0.091 H 
ATOM    101  H   SGN d 302     130.388  14.018  78.599  0.00  0.00     0.090 H 
ATOM    102  H   SGN d 302     133.587  12.924  83.559  0.00  0.00     0.231 HD
ATOM    103  H   SGN d 302     128.686  12.339  78.253  0.00  0.00     0.080 H 
ATOM    104  H   SGN d 302     129.615  12.596  76.776  0.00  0.00     0.080 H 
ATOM    105  H   SGN d 302     134.929  14.396  78.873  0.00  0.00     0.210 HD
ATOM    106  H   SGN d 302     132.664  14.830  78.920  0.00  0.00     0.089 H 
ATOM    107  H   SGN d 302     136.376  12.932  80.778  0.00  0.00     0.231 HD
ATOM    108  H   SGN d 302     131.790  12.459  81.688  0.00  0.00     0.131 H 
ATOM    109  C1  IDS d 305     135.772   7.298  70.072  0.00  0.00     0.161 C 
ATOM    110  O1S IDS d 305     136.392   5.492  74.205  0.00  0.00    -0.572 OA
ATOM    111  S   IDS d 305     135.309   5.471  73.263  0.00  0.00     0.252 S 
ATOM    112  C4  IDS d 305     135.189   4.980  68.240  0.00  0.00    -0.005 C 
ATOM    113  O61 IDS d 305     133.758   6.984  65.896  0.00  0.00    -0.646 OA
ATOM    114  O3  IDS d 305     135.469   3.527  70.145  0.00  0.00    -0.393 OA
ATOM    115  O62 IDS d 305     135.831   6.969  65.832  0.00  0.00    -0.646 OA
ATOM    116  O2S IDS d 305     134.390   6.549  73.473  0.00  0.00    -0.572 OA
ATOM    117  O2  IDS d 305     135.995   5.696  71.874  0.00  0.00    -0.244 OA
ATOM    118  O5  IDS d 305     135.794   7.329  68.636  0.00  0.00    -0.343 OA
ATOM    119  C5  IDS d 305     134.841   6.480  67.957  0.00  0.00     0.127 C 
ATOM    120  C3  IDS d 305     135.841   4.795  69.640  0.00  0.00     0.069 C 
ATOM    121  C2  IDS d 305     135.375   5.898  70.614  0.00  0.00     0.132 C 
ATOM    122  C6  IDS d 305     134.812   6.832  66.473  0.00  0.00     0.203 C 
ATOM    123  O3S IDS d 305     134.671   4.190  73.179  0.00  0.00    -0.572 OA
ATOM    124  H   IDS d 305     136.766   7.542  70.386  0.00  0.00     0.133 H 
ATOM    125  H   IDS d 305     134.290   4.401  68.196  0.00  0.00     0.041 H 
ATOM    126  H   IDS d 305     135.891   4.655  67.500  0.00  0.00     0.041 H 
ATOM    127  H   IDS d 305     135.762   2.836  69.532  0.00  0.00     0.210 HD
ATOM    128  H   IDS d 305     133.851   6.640  68.327  0.00  0.00     0.100 H 
ATOM    129  H   IDS d 305     136.904   4.863  69.545  0.00  0.00     0.087 H 
ATOM    130  H   IDS d 305     134.311   5.850  70.712  0.00  0.00     0.097 H 
ENDROOT
TORSDOF 39
ENDMDL
MODEL 19
REMARK VINA RESULT:      -6.0      3.352      5.222
REMARK  0 active torsions:
REMARK  status: ('A' for Active; 'I' for Inactive)
REMARK       I    between atoms: C2_2  and  N_68 
REMARK       I    between atoms: C1_3  and  O4_24 
REMARK       I    between atoms: O1S_5  and  S1_58 
REMARK       I    between atoms: O1_6  and  C1_31 
REMARK       I    between atoms: C4_7  and  O4_36 
REMARK       I    between atoms: C1_8  and  O4_37 
REMARK       I    between atoms: O3_9  and  C3_74 
REMARK       I    between atoms: C5_10  and  C6_32 
REMARK       I    between atoms: C2_11  and  N_20 
REMARK       I    between atoms: C6_12  and  C5_53 
REMARK       I    between atoms: S2_14  and  O6_33 
REMARK       I    between atoms: O3S_16  and  S1_51 
REMARK       I    between atoms: S_17  and  O2_44 
REMARK       I    between atoms: N_20  and  S1_58 
REMARK       I    between atoms: O4_24  and  C4_38 
REMARK       I    between atoms: S_25  and  O2_64 
REMARK       I    between atoms: O2S_27  and  S1_51 
REMARK       I    between atoms: C4_28  and  O4_73 
REMARK       I    between atoms: C3_30  and  O3_62 
REMARK       I    between atoms: O6_33  and  C6_63 
REMARK       I    between atoms: O3_35  and  C3_55 
REMARK       I    between atoms: O4_36  and  C1_84 
REMARK       I    between atoms: O4_37  and  C4_54 
REMARK       I    between atoms: C3_39  and  O3_48 
REMARK       I    between atoms: C5_42  and  C6_63 
REMARK       I    between atoms: O2_44  and  C2_61 
REMARK       I    between atoms: O6_45  and  C6_77 
REMARK       I    between atoms: O6_45  and  S2_82 
REMARK       I    between atoms: C5_49  and  C6_76 
REMARK       I    between atoms: S1_51  and  N_68 
REMARK       I    between atoms: S1_51  and  O1S_81 
REMARK       I    between atoms: O2S_52  and  S1_58 
REMARK       I    between atoms: C2_57  and  O2_64 
REMARK       I    between atoms: S1_58  and  O3S_75 
REMARK       I    between atoms: O3_66  and  C3_67 
REMARK       I    between atoms: O2_69  and  C2_79 
REMARK       I    between atoms: O2_69  and  S_72 
REMARK       I    between atoms: C5_70  and  C6_77 
REMARK       I    between atoms: C1_71  and  O4_73 
ROOT
ATOM      1  O2S IDS d 303     129.505  14.739  76.518  0.00  0.00    -0.572 OA
ATOM      2  C6  IDS d 303     136.214  12.043  75.996  0.00  0.00     0.206 C 
ATOM      3  O1S IDS d 303     129.788  12.985  78.114  0.00  0.00    -0.572 OA
ATOM      4  O3S IDS d 303     130.351  15.238  78.712  0.00  0.00    -0.572 OA
ATOM      5  O4  IDS d 303     133.710  13.511  74.925  0.00  0.00    -0.348 OA
ATOM      6  O61 IDS d 303     137.287  12.364  75.526  0.00  0.00    -0.646 OA
ATOM      7  C4  IDS d 303     134.680  14.123  75.789  0.00  0.00     0.103 C 
ATOM      8  C3  IDS d 303     133.835  15.104  76.652  0.00  0.00     0.094 C 
ATOM      9  O62 IDS d 303     135.867  10.887  75.881  0.00  0.00    -0.646 OA
ATOM     10  O3  IDS d 303     134.723  15.986  77.318  0.00  0.00    -0.390 OA
ATOM     11  C5  IDS d 303     135.331  13.064  76.712  0.00  0.00     0.152 C 
ATOM     12  O2  IDS d 303     131.713  14.040  77.109  0.00  0.00    -0.244 OA
ATOM     13  C1  IDS d 303     133.555  13.134  78.367  0.00  0.00     0.161 C 
ATOM     14  S   IDS d 303     130.256  14.265  77.654  0.00  0.00     0.252 S 
ATOM     15  C2  IDS d 303     132.944  14.403  77.714  0.00  0.00     0.134 C 
ATOM     16  O5  IDS d 303     134.295  12.371  77.422  0.00  0.00    -0.340 OA
ATOM     17  H   IDS d 303     135.470  14.598  75.245  0.00  0.00     0.092 H 
ATOM     18  H   IDS d 303     133.173  15.615  75.985  0.00  0.00     0.091 H 
ATOM     19  H   IDS d 303     135.300  15.477  77.908  0.00  0.00     0.210 HD
ATOM     20  H   IDS d 303     135.981  13.602  77.369  0.00  0.00     0.104 H 
ATOM     21  H   IDS d 303     132.769  12.497  78.715  0.00  0.00     0.133 H 
ATOM     22  H   IDS d 303     132.831  15.116  78.505  0.00  0.00     0.097 H 
ATOM     23  C2  SGN d 304     132.366  13.655  72.878  0.00  0.00     0.081 C 
ATOM     24  C1  SGN d 304     133.756  13.828  73.551  0.00  0.00     0.150 C 
ATOM     25  O3  SGN d 304     130.715  12.013  72.235  0.00  0.00    -0.391 OA
ATOM     26  O3S SGN d 304     129.888  16.179  72.716  0.00  0.00    -0.296 OA
ATOM     27  O5S SGN d 304     136.543  12.172  68.638  0.00  0.00    -0.572 OA
ATOM     28  O2S SGN d 304     132.240  16.478  72.363  0.00  0.00    -0.296 OA
ATOM     29  O4S SGN d 304     136.478   9.890  69.361  0.00  0.00    -0.572 OA
ATOM     30  O4  SGN d 304     132.424  10.126  71.846  0.00  0.00    -0.348 OA
ATOM     31  O6  SGN d 304     135.924  11.688  70.877  0.00  0.00    -0.254 OA
ATOM     32  S1  SGN d 304     131.204  16.064  73.274  0.00  0.00     0.156 S 
ATOM     33  C4  SGN d 304     133.056  11.403  72.033  0.00  0.00     0.095 C 
ATOM     34  O6S SGN d 304     138.187  11.366  70.163  0.00  0.00    -0.572 OA
ATOM     35  N   SGN d 304     131.391  14.468  73.623  0.00  0.00    -0.210 NA
ATOM     36  C5  SGN d 304     134.428  11.613  72.752  0.00  0.00     0.091 C 
ATOM     37  C3  SGN d 304     131.980  12.162  72.856  0.00  0.00     0.083 C 
ATOM     38  C6  SGN d 304     135.632  10.963  72.054  0.00  0.00     0.067 C 
ATOM     39  O5  SGN d 304     134.734  13.025  72.888  0.00  0.00    -0.349 OA
ATOM     40  O1S SGN d 304     131.317  16.724  74.545  0.00  0.00    -0.296 OA
ATOM     41  S2  SGN d 304     136.839  11.242  69.692  0.00  0.00     0.251 S 
ATOM     42  H   SGN d 304     132.386  13.989  71.862  0.00  0.00     0.076 H 
ATOM     43  H   SGN d 304     134.034  14.857  73.462  0.00  0.00     0.131 H 
ATOM     44  H   SGN d 304     130.045  12.487  72.751  0.00  0.00     0.210 HD
ATOM     45  H   SGN d 304     129.859  15.721  71.863  0.00  0.00     0.231 HD
ATOM     46  H   SGN d 304     132.132  16.013  71.519  0.00  0.00     0.231 HD
ATOM     47  H   SGN d 304     133.346  11.707  71.049  0.00  0.00     0.091 H 
ATOM     48  H   SGN d 304     131.653  14.412  74.608  0.00  0.00     0.140 HD
ATOM     49  H   SGN d 304     134.295  11.133  73.699  0.00  0.00     0.090 H 
ATOM     50  H   SGN d 304     131.929  11.771  73.850  0.00  0.00     0.089 H 
ATOM     51  H   SGN d 304     136.479  10.981  72.707  0.00  0.00     0.080 H 
ATOM     52  H   SGN d 304     135.402   9.947  71.807  0.00  0.00     0.080 H 
ATOM     53  H   SGN d 304     131.217  17.681  74.423  0.00  0.00     0.231 HD
ATOM     54  O62 IDS d 301     132.295  12.043  84.804  0.00  0.00    -0.646 OA
ATOM     55  O1  IDS d 301     134.584  12.616  89.236  0.00  0.00    -0.368 OA
ATOM     56  C4  IDS d 301     135.424  12.434  85.238  0.00  0.00     0.103 C 
ATOM     57  C5  IDS d 301     134.264  11.887  86.153  0.00  0.00     0.152 C 
ATOM     58  O61 IDS d 301     132.833  10.138  85.410  0.00  0.00    -0.646 OA
ATOM     59  S   IDS d 301     138.328  13.430  89.227  0.00  0.00     0.252 S 
ATOM     60  C3  IDS d 301     136.404  13.321  86.068  0.00  0.00     0.094 C 
ATOM     61  C1  IDS d 301     134.797  13.323  88.046  0.00  0.00     0.158 C 
ATOM     62  C6  IDS d 301     133.057  11.328  85.410  0.00  0.00     0.206 C 
ATOM     63  O5  IDS d 301     133.843  12.939  87.048  0.00  0.00    -0.340 OA
ATOM     64  O4  IDS d 301     135.789  12.729  83.880  0.00  0.00    -0.348 OA
ATOM     65  O3S IDS d 301     138.496  14.547  90.122  0.00  0.00    -0.572 OA
ATOM     66  O1S IDS d 301     137.910  12.238  89.915  0.00  0.00    -0.572 OA
ATOM     67  C2  IDS d 301     136.256  13.040  87.577  0.00  0.00     0.134 C 
ATOM     68  O3  IDS d 301     137.739  13.046  85.673  0.00  0.00    -0.390 OA
ATOM     69  O2  IDS d 301     137.154  13.870  88.289  0.00  0.00    -0.244 OA
ATOM     70  O2S IDS d 301     139.462  13.221  88.365  0.00  0.00    -0.572 OA
ATOM     71  H   IDS d 301     135.239  12.890  89.897  0.00  0.00     0.212 HD
ATOM     72  H   IDS d 301     135.101  11.485  84.864  0.00  0.00     0.092 H 
ATOM     73  H   IDS d 301     134.674  11.052  86.681  0.00  0.00     0.104 H 
ATOM     74  H   IDS d 301     136.167  14.349  85.886  0.00  0.00     0.091 H 
ATOM     75  H   IDS d 301     134.667  14.372  88.208  0.00  0.00     0.133 H 
ATOM     76  H   IDS d 301     136.479  12.011  87.765  0.00  0.00     0.097 H 
ATOM     77  H   IDS d 301     137.941  12.113  85.842  0.00  0.00     0.210 HD
ATOM     78  O1S SGN d 302     140.375  11.991  82.794  0.00  0.00    -0.296 OA
ATOM     79  C2  SGN d 302     136.706  11.905  81.743  0.00  0.00     0.081 C 
ATOM     80  S2  SGN d 302     131.148   9.569  80.949  0.00  0.00     0.251 S 
ATOM     81  N   SGN d 302     138.050  12.299  82.200  0.00  0.00    -0.210 NA
ATOM     82  C4  SGN d 302     134.694  12.513  80.395  0.00  0.00     0.095 C 
ATOM     83  O6  SGN d 302     132.355  10.559  80.876  0.00  0.00    -0.254 OA
ATOM     84  C5  SGN d 302     133.831  12.323  81.684  0.00  0.00     0.091 C 
ATOM     85  O4S SGN d 302     129.988  10.283  80.493  0.00  0.00    -0.572 OA
ATOM     86  O2S SGN d 302     138.883  10.219  83.278  0.00  0.00    -0.296 OA
ATOM     87  S1  SGN d 302     139.265  11.217  82.326  0.00  0.00     0.156 S 
ATOM     88  O5S SGN d 302     131.495   8.490  80.076  0.00  0.00    -0.572 OA
ATOM     89  O6S SGN d 302     131.063   9.173  82.325  0.00  0.00    -0.572 OA
ATOM     90  C6  SGN d 302     132.388  11.856  81.424  0.00  0.00     0.067 C 
ATOM     91  O3  SGN d 302     136.939  13.148  79.712  0.00  0.00    -0.391 OA
ATOM     92  C3  SGN d 302     136.099  12.972  80.841  0.00  0.00     0.083 C 
ATOM     93  O4  SGN d 302     134.338  13.522  79.455  0.00  0.00    -0.348 OA
ATOM     94  O3S SGN d 302     139.463  10.693  81.005  0.00  0.00    -0.296 OA
ATOM     95  C1  SGN d 302     135.798  11.658  82.974  0.00  0.00     0.150 C 
ATOM     96  O5  SGN d 302     134.459  11.351  82.566  0.00  0.00    -0.349 OA
ATOM     97  H   SGN d 302     140.187  12.319  83.688  0.00  0.00     0.231 HD
ATOM     98  H   SGN d 302     136.787  11.003  81.171  0.00  0.00     0.076 H 
ATOM     99  H   SGN d 302     137.930  12.705  83.129  0.00  0.00     0.140 HD
ATOM    100  H   SGN d 302     134.579  11.567  79.909  0.00  0.00     0.091 H 
ATOM    101  H   SGN d 302     133.778  13.295  82.128  0.00  0.00     0.090 H 
ATOM    102  H   SGN d 302     138.764  10.631  84.148  0.00  0.00     0.231 HD
ATOM    103  H   SGN d 302     131.851  11.855  82.349  0.00  0.00     0.080 H 
ATOM    104  H   SGN d 302     131.941  12.527  80.721  0.00  0.00     0.080 H 
ATOM    105  H   SGN d 302     137.817  13.435  80.005  0.00  0.00     0.210 HD
ATOM    106  H   SGN d 302     136.013  13.900  81.365  0.00  0.00     0.089 H 
ATOM    107  H   SGN d 302     139.719  11.413  80.408  0.00  0.00     0.231 HD
ATOM    108  H   SGN d 302     136.219  10.819  83.488  0.00  0.00     0.131 H 
ATOM    109  C1  IDS d 305     132.759   9.374  70.707  0.00  0.00     0.161 C 
ATOM    110  O1S IDS d 305     135.018   6.364  73.268  0.00  0.00    -0.572 OA
ATOM    111  S   IDS d 305     133.627   6.667  73.084  0.00  0.00     0.252 S 
ATOM    112  C4  IDS d 305     130.907   7.752  68.971  0.00  0.00    -0.005 C 
ATOM    113  O61 IDS d 305     128.901  10.422  68.338  0.00  0.00    -0.646 OA
ATOM    114  O3  IDS d 305     131.826   5.775  70.004  0.00  0.00    -0.393 OA
ATOM    115  O62 IDS d 305     130.614  10.366  67.170  0.00  0.00    -0.646 OA
ATOM    116  O2S IDS d 305     133.161   7.654  74.011  0.00  0.00    -0.572 OA
ATOM    117  O2  IDS d 305     133.550   7.289  71.649  0.00  0.00    -0.244 OA
ATOM    118  O5  IDS d 305     132.061   9.845  69.542  0.00  0.00    -0.343 OA
ATOM    119  C5  IDS d 305     130.756   9.275  69.297  0.00  0.00     0.127 C 
ATOM    120  C3  IDS d 305     132.126   7.125  69.707  0.00  0.00     0.069 C 
ATOM    121  C2  IDS d 305     132.432   7.887  71.013  0.00  0.00     0.132 C 
ATOM    122  C6  IDS d 305     130.051  10.069  68.201  0.00  0.00     0.203 C 
ATOM    123  O3S IDS d 305     132.805   5.493  73.045  0.00  0.00    -0.572 OA
ATOM    124  H   IDS d 305     133.801   9.479  70.486  0.00  0.00     0.133 H 
ATOM    125  H   IDS d 305     130.017   7.242  69.277  0.00  0.00     0.041 H 
ATOM    126  H   IDS d 305     131.066   7.650  67.918  0.00  0.00     0.041 H 
ATOM    127  H   IDS d 305     131.634   5.298  69.182  0.00  0.00     0.210 HD
ATOM    128  H   IDS d 305     130.136   9.343  70.167  0.00  0.00     0.100 H 
ATOM    129  H   IDS d 305     132.988   7.187  69.077  0.00  0.00     0.087 H 
ATOM    130  H   IDS d 305     131.574   7.843  71.652  0.00  0.00     0.097 H 
ENDROOT
TORSDOF 39
ENDMDL
MODEL 20
REMARK VINA RESULT:      -5.9      3.397      5.997
REMARK  0 active torsions:
REMARK  status: ('A' for Active; 'I' for Inactive)
REMARK       I    between atoms: C2_2  and  N_68 
REMARK       I    between atoms: C1_3  and  O4_24 
REMARK       I    between atoms: O1S_5  and  S1_58 
REMARK       I    between atoms: O1_6  and  C1_31 
REMARK       I    between atoms: C4_7  and  O4_36 
REMARK       I    between atoms: C1_8  and  O4_37 
REMARK       I    between atoms: O3_9  and  C3_74 
REMARK       I    between atoms: C5_10  and  C6_32 
REMARK       I    between atoms: C2_11  and  N_20 
REMARK       I    between atoms: C6_12  and  C5_53 
REMARK       I    between atoms: S2_14  and  O6_33 
REMARK       I    between atoms: O3S_16  and  S1_51 
REMARK       I    between atoms: S_17  and  O2_44 
REMARK       I    between atoms: N_20  and  S1_58 
REMARK       I    between atoms: O4_24  and  C4_38 
REMARK       I    between atoms: S_25  and  O2_64 
REMARK       I    between atoms: O2S_27  and  S1_51 
REMARK       I    between atoms: C4_28  and  O4_73 
REMARK       I    between atoms: C3_30  and  O3_62 
REMARK       I    between atoms: O6_33  and  C6_63 
REMARK       I    between atoms: O3_35  and  C3_55 
REMARK       I    between atoms: O4_36  and  C1_84 
REMARK       I    between atoms: O4_37  and  C4_54 
REMARK       I    between atoms: C3_39  and  O3_48 
REMARK       I    between atoms: C5_42  and  C6_63 
REMARK       I    between atoms: O2_44  and  C2_61 
REMARK       I    between atoms: O6_45  and  C6_77 
REMARK       I    between atoms: O6_45  and  S2_82 
REMARK       I    between atoms: C5_49  and  C6_76 
REMARK       I    between atoms: S1_51  and  N_68 
REMARK       I    between atoms: S1_51  and  O1S_81 
REMARK       I    between atoms: O2S_52  and  S1_58 
REMARK       I    between atoms: C2_57  and  O2_64 
REMARK       I    between atoms: S1_58  and  O3S_75 
REMARK       I    between atoms: O3_66  and  C3_67 
REMARK       I    between atoms: O2_69  and  C2_79 
REMARK       I    between atoms: O2_69  and  S_72 
REMARK       I    between atoms: C5_70  and  C6_77 
REMARK       I    between atoms: C1_71  and  O4_73 
ROOT
ATOM      1  O2S IDS d 303     129.406  14.567  73.720  0.00  0.00    -0.572 OA
ATOM      2  C6  IDS d 303     135.574  10.798  74.279  0.00  0.00     0.206 C 
ATOM      3  O1S IDS d 303     129.404  13.328  75.762  0.00  0.00    -0.572 OA
ATOM      4  O3S IDS d 303     130.336  15.537  75.715  0.00  0.00    -0.572 OA
ATOM      5  O4  IDS d 303     133.342  12.274  72.727  0.00  0.00    -0.348 OA
ATOM      6  O61 IDS d 303     136.683  10.793  73.783  0.00  0.00    -0.646 OA
ATOM      7  C4  IDS d 303     134.404  12.946  73.421  0.00  0.00     0.103 C 
ATOM      8  C3  IDS d 303     133.738  14.257  73.929  0.00  0.00     0.094 C 
ATOM      9  O62 IDS d 303     135.039   9.729  74.485  0.00  0.00    -0.646 OA
ATOM     10  O3  IDS d 303     134.763  15.140  74.353  0.00  0.00    -0.390 OA
ATOM     11  C5  IDS d 303     134.876  12.110  74.635  0.00  0.00     0.152 C 
ATOM     12  O2  IDS d 303     131.472  13.725  74.581  0.00  0.00    -0.244 OA
ATOM     13  C1  IDS d 303     133.145  12.939  76.123  0.00  0.00     0.161 C 
ATOM     14  S   IDS d 303     130.075  14.328  74.976  0.00  0.00     0.252 S 
ATOM     15  C2  IDS d 303     132.749  14.045  75.109  0.00  0.00     0.134 C 
ATOM     16  O5  IDS d 303     133.743  11.826  75.468  0.00  0.00    -0.340 OA
ATOM     17  H   IDS d 303     135.259  13.111  72.798  0.00  0.00     0.092 H 
ATOM     18  H   IDS d 303     133.166  14.653  73.117  0.00  0.00     0.091 H 
ATOM     19  H   IDS d 303     135.252  14.738  75.088  0.00  0.00     0.210 HD
ATOM     20  H   IDS d 303     135.610  12.704  75.138  0.00  0.00     0.104 H 
ATOM     21  H   IDS d 303     132.266  12.563  76.604  0.00  0.00     0.133 H 
ATOM     22  H   IDS d 303     132.760  14.964  75.657  0.00  0.00     0.097 H 
ATOM     23  C2  SGN d 304     132.029  12.033  70.669  0.00  0.00     0.081 C 
ATOM     24  C1  SGN d 304     133.432  12.168  71.323  0.00  0.00     0.150 C 
ATOM     25  O3  SGN d 304     130.126  10.562  70.452  0.00  0.00    -0.391 OA
ATOM     26  O3S SGN d 304     130.003  14.766  69.686  0.00  0.00    -0.296 OA
ATOM     27  O5S SGN d 304     135.880   8.739  67.212  0.00  0.00    -0.572 OA
ATOM     28  O2S SGN d 304     132.369  14.569  69.363  0.00  0.00    -0.296 OA
ATOM     29  O4S SGN d 304     135.442   6.805  68.555  0.00  0.00    -0.572 OA
ATOM     30  O4  SGN d 304     131.496   8.395  70.693  0.00  0.00    -0.348 OA
ATOM     31  O6  SGN d 304     135.201   9.028  69.468  0.00  0.00    -0.254 OA
ATOM     32  S1  SGN d 304     131.284  14.608  70.309  0.00  0.00     0.156 S 
ATOM     33  C4  SGN d 304     132.331   9.553  70.533  0.00  0.00     0.095 C 
ATOM     34  O6S SGN d 304     137.376   8.156  68.973  0.00  0.00    -0.572 OA
ATOM     35  N   SGN d 304     131.206  13.172  71.108  0.00  0.00    -0.210 NA
ATOM     36  C5  SGN d 304     133.724   9.739  71.220  0.00  0.00     0.091 C 
ATOM     37  C3  SGN d 304     131.401  10.679  71.058  0.00  0.00     0.083 C 
ATOM     38  C6  SGN d 304     134.799   8.732  70.789  0.00  0.00     0.067 C 
ATOM     39  O5  SGN d 304     134.260  11.063  70.959  0.00  0.00    -0.349 OA
ATOM     40  O1S SGN d 304     131.511  15.580  71.342  0.00  0.00    -0.296 OA
ATOM     41  S2  SGN d 304     136.023   8.118  68.500  0.00  0.00     0.251 S 
ATOM     42  H   SGN d 304     132.098  12.052  69.601  0.00  0.00     0.076 H 
ATOM     43  H   SGN d 304     133.876  13.070  70.955  0.00  0.00     0.131 H 
ATOM     44  H   SGN d 304     129.546  11.266  70.782  0.00  0.00     0.210 HD
ATOM     45  H   SGN d 304     129.893  14.091  68.999  0.00  0.00     0.231 HD
ATOM     46  H   SGN d 304     132.181  13.904  68.683  0.00  0.00     0.231 HD
ATOM     47  H   SGN d 304     132.663   9.509  69.517  0.00  0.00     0.091 H 
ATOM     48  H   SGN d 304     131.460  13.362  72.077  0.00  0.00     0.140 HD
ATOM     49  H   SGN d 304     133.518   9.582  72.258  0.00  0.00     0.090 H 
ATOM     50  H   SGN d 304     131.291  10.606  72.119  0.00  0.00     0.089 H 
ATOM     51  H   SGN d 304     135.641   8.802  71.445  0.00  0.00     0.080 H 
ATOM     52  H   SGN d 304     134.403   7.738  70.834  0.00  0.00     0.080 H 
ATOM     53  H   SGN d 304     131.570  16.464  70.947  0.00  0.00     0.231 HD
ATOM     54  O62 IDS d 301     131.757  13.972  82.543  0.00  0.00    -0.646 OA
ATOM     55  O1  IDS d 301     134.133  15.428  86.719  0.00  0.00    -0.368 OA
ATOM     56  C4  IDS d 301     134.910  13.965  82.980  0.00  0.00     0.103 C 
ATOM     57  C5  IDS d 301     133.681  13.900  83.963  0.00  0.00     0.152 C 
ATOM     58  O61 IDS d 301     131.976  12.263  83.691  0.00  0.00    -0.646 OA
ATOM     59  S   IDS d 301     137.960  15.594  86.638  0.00  0.00     0.252 S 
ATOM     60  C3  IDS d 301     136.028  14.886  83.563  0.00  0.00     0.094 C 
ATOM     61  C1  IDS d 301     134.454  15.717  85.387  0.00  0.00     0.158 C 
ATOM     62  C6  IDS d 301     132.393  13.350  83.360  0.00  0.00     0.206 C 
ATOM     63  O5  IDS d 301     133.445  15.219  84.501  0.00  0.00    -0.340 OA
ATOM     64  O4  IDS d 301     135.311  13.793  81.612  0.00  0.00    -0.348 OA
ATOM     65  O3S IDS d 301     138.316  16.881  87.182  0.00  0.00    -0.572 OA
ATOM     66  O1S IDS d 301     137.355  14.735  87.619  0.00  0.00    -0.572 OA
ATOM     67  C2  IDS d 301     135.843  15.080  85.081  0.00  0.00     0.134 C 
ATOM     68  O3  IDS d 301     137.296  14.298  83.320  0.00  0.00    -0.390 OA
ATOM     69  O2  IDS d 301     136.870  15.927  85.564  0.00  0.00    -0.244 OA
ATOM     70  O2S IDS d 301     139.040  14.966  85.921  0.00  0.00    -0.572 OA
ATOM     71  H   IDS d 301     134.828  15.773  87.302  0.00  0.00     0.212 HD
ATOM     72  H   IDS d 301     134.432  13.013  82.880  0.00  0.00     0.092 H 
ATOM     73  H   IDS d 301     133.950  13.199  84.725  0.00  0.00     0.104 H 
ATOM     74  H   IDS d 301     135.964  15.842  83.085  0.00  0.00     0.091 H 
ATOM     75  H   IDS d 301     134.501  16.775  85.237  0.00  0.00     0.133 H 
ATOM     76  H   IDS d 301     135.893  14.128  85.565  0.00  0.00     0.097 H 
ATOM     77  H   IDS d 301     137.342  13.434  83.758  0.00  0.00     0.210 HD
ATOM     78  O1S SGN d 302     139.705  12.048  80.979  0.00  0.00    -0.296 OA
ATOM     79  C2  SGN d 302     136.068  12.250  79.841  0.00  0.00     0.081 C 
ATOM     80  S2  SGN d 302     130.195  10.706  79.512  0.00  0.00     0.251 S 
ATOM     81  N   SGN d 302     137.461  12.540  80.223  0.00  0.00    -0.210 NA
ATOM     82  C4  SGN d 302     134.177  12.757  78.290  0.00  0.00     0.095 C 
ATOM     83  O6  SGN d 302     131.549  11.426  79.210  0.00  0.00    -0.254 OA
ATOM     84  C5  SGN d 302     133.301  13.089  79.542  0.00  0.00     0.091 C 
ATOM     85  O4S SGN d 302     129.166  11.433  78.821  0.00  0.00    -0.572 OA
ATOM     86  O2S SGN d 302     137.943  10.755  81.885  0.00  0.00    -0.296 OA
ATOM     87  S1  SGN d 302     138.480  11.360  80.705  0.00  0.00     0.156 S 
ATOM     88  O5S SGN d 302     130.354   9.380  79.000  0.00  0.00    -0.572 OA
ATOM     89  O6S SGN d 302     130.053  10.743  80.938  0.00  0.00    -0.572 OA
ATOM     90  C6  SGN d 302     131.800  12.803  79.365  0.00  0.00     0.067 C 
ATOM     91  O3  SGN d 302     136.492  12.799  77.551  0.00  0.00    -0.391 OA
ATOM     92  C3  SGN d 302     135.641  13.093  78.646  0.00  0.00     0.083 C 
ATOM     93  O4  SGN d 302     133.988  13.494  77.087  0.00  0.00    -0.348 OA
ATOM     94  O3S SGN d 302     138.581  10.452  79.599  0.00  0.00    -0.296 OA
ATOM     95  C1  SGN d 302     135.138  12.519  81.051  0.00  0.00     0.150 C 
ATOM     96  O5  SGN d 302     133.765  12.326  80.691  0.00  0.00    -0.349 OA
ATOM     97  H   SGN d 302     139.579  12.646  81.733  0.00  0.00     0.231 HD
ATOM     98  H   SGN d 302     135.995  11.221  79.555  0.00  0.00     0.076 H 
ATOM     99  H   SGN d 302     137.415  13.210  80.991  0.00  0.00     0.140 HD
ATOM    100  H   SGN d 302     133.903  11.742  78.091  0.00  0.00     0.091 H 
ATOM    101  H   SGN d 302     133.412  14.142  79.686  0.00  0.00     0.090 H 
ATOM    102  H   SGN d 302     137.899  11.414  82.596  0.00  0.00     0.231 HD
ATOM    103  H   SGN d 302     131.275  13.156  80.228  0.00  0.00     0.080 H 
ATOM    104  H   SGN d 302     131.465  13.305  78.481  0.00  0.00     0.080 H 
ATOM    105  H   SGN d 302     137.407  13.014  77.787  0.00  0.00     0.210 HD
ATOM    106  H   SGN d 302     135.712  14.135  78.878  0.00  0.00     0.089 H 
ATOM    107  H   SGN d 302     138.950  10.918  78.832  0.00  0.00     0.231 HD
ATOM    108  H   SGN d 302     135.417  11.808  81.801  0.00  0.00     0.131 H 
ATOM    109  C1  IDS d 305     131.695   7.302  69.832  0.00  0.00     0.161 C 
ATOM    110  O1S IDS d 305     133.439   4.841  73.241  0.00  0.00    -0.572 OA
ATOM    111  S   IDS d 305     132.116   5.296  72.918  0.00  0.00     0.252 S 
ATOM    112  C4  IDS d 305     129.592   5.566  68.555  0.00  0.00    -0.005 C 
ATOM    113  O61 IDS d 305     128.051   8.224  67.100  0.00  0.00    -0.646 OA
ATOM    114  O3  IDS d 305     130.176   3.851  70.149  0.00  0.00    -0.393 OA
ATOM    115  O62 IDS d 305     129.725   7.559  66.070  0.00  0.00    -0.646 OA
ATOM    116  O2S IDS d 305     131.826   6.570  73.503  0.00  0.00    -0.572 OA
ATOM    117  O2  IDS d 305     132.136   5.480  71.364  0.00  0.00    -0.244 OA
ATOM    118  O5  IDS d 305     131.079   7.522  68.552  0.00  0.00    -0.343 OA
ATOM    119  C5  IDS d 305     129.696   7.122  68.425  0.00  0.00     0.127 C 
ATOM    120  C3  IDS d 305     130.693   4.992  69.491  0.00  0.00     0.069 C 
ATOM    121  C2  IDS d 305     131.128   6.040  70.536  0.00  0.00     0.132 C 
ATOM    122  C6  IDS d 305     129.127   7.666  67.118  0.00  0.00     0.203 C 
ATOM    123  O3S IDS d 305     131.111   4.308  73.182  0.00  0.00    -0.572 OA
ATOM    124  H   IDS d 305     132.739   7.171  69.635  0.00  0.00     0.133 H 
ATOM    125  H   IDS d 305     128.631   5.315  68.955  0.00  0.00     0.041 H 
ATOM    126  H   IDS d 305     129.725   5.140  67.583  0.00  0.00     0.041 H 
ATOM    127  H   IDS d 305     129.903   3.194  69.490  0.00  0.00     0.210 HD
ATOM    128  H   IDS d 305     129.101   7.537  69.212  0.00  0.00     0.100 H 
ATOM    129  H   IDS d 305     131.550   4.731  68.907  0.00  0.00     0.087 H 
ATOM    130  H   IDS d 305     130.278   6.320  71.124  0.00  0.00     0.097 H 
ENDROOT
TORSDOF 39
ENDMDL
MODEL 21
REMARK VINA RESULT:      -5.9      4.944      8.441
REMARK  0 active torsions:
REMARK  status: ('A' for Active; 'I' for Inactive)
REMARK       I    between atoms: C2_2  and  N_68 
REMARK       I    between atoms: C1_3  and  O4_24 
REMARK       I    between atoms: O1S_5  and  S1_58 
REMARK       I    between atoms: O1_6  and  C1_31 
REMARK       I    between atoms: C4_7  and  O4_36 
REMARK       I    between atoms: C1_8  and  O4_37 
REMARK       I    between atoms: O3_9  and  C3_74 
REMARK       I    between atoms: C5_10  and  C6_32 
REMARK       I    between atoms: C2_11  and  N_20 
REMARK       I    between atoms: C6_12  and  C5_53 
REMARK       I    between atoms: S2_14  and  O6_33 
REMARK       I    between atoms: O3S_16  and  S1_51 
REMARK       I    between atoms: S_17  and  O2_44 
REMARK       I    between atoms: N_20  and  S1_58 
REMARK       I    between atoms: O4_24  and  C4_38 
REMARK       I    between atoms: S_25  and  O2_64 
REMARK       I    between atoms: O2S_27  and  S1_51 
REMARK       I    between atoms: C4_28  and  O4_73 
REMARK       I    between atoms: C3_30  and  O3_62 
REMARK       I    between atoms: O6_33  and  C6_63 
REMARK       I    between atoms: O3_35  and  C3_55 
REMARK       I    between atoms: O4_36  and  C1_84 
REMARK       I    between atoms: O4_37  and  C4_54 
REMARK       I    between atoms: C3_39  and  O3_48 
REMARK       I    between atoms: C5_42  and  C6_63 
REMARK       I    between atoms: O2_44  and  C2_61 
REMARK       I    between atoms: O6_45  and  C6_77 
REMARK       I    between atoms: O6_45  and  S2_82 
REMARK       I    between atoms: C5_49  and  C6_76 
REMARK       I    between atoms: S1_51  and  N_68 
REMARK       I    between atoms: S1_51  and  O1S_81 
REMARK       I    between atoms: O2S_52  and  S1_58 
REMARK       I    between atoms: C2_57  and  O2_64 
REMARK       I    between atoms: S1_58  and  O3S_75 
REMARK       I    between atoms: O3_66  and  C3_67 
REMARK       I    between atoms: O2_69  and  C2_79 
REMARK       I    between atoms: O2_69  and  S_72 
REMARK       I    between atoms: C5_70  and  C6_77 
REMARK       I    between atoms: C1_71  and  O4_73 
ROOT
ATOM      1  O2S IDS d 303     139.958   4.210  76.462  0.00  0.00    -0.572 OA
ATOM      2  C6  IDS d 303     133.051   5.532  74.703  0.00  0.00     0.206 C 
ATOM      3  O1S IDS d 303     139.052   5.840  77.954  0.00  0.00    -0.572 OA
ATOM      4  O3S IDS d 303     138.849   3.508  78.477  0.00  0.00    -0.572 OA
ATOM      5  O4  IDS d 303     135.947   4.612  74.122  0.00  0.00    -0.348 OA
ATOM      6  O61 IDS d 303     132.164   5.015  74.054  0.00  0.00    -0.646 OA
ATOM      7  C4  IDS d 303     134.979   3.803  74.808  0.00  0.00     0.103 C 
ATOM      8  C3  IDS d 303     135.834   2.991  75.823  0.00  0.00     0.094 C 
ATOM      9  O62 IDS d 303     133.176   6.737  74.635  0.00  0.00    -0.646 OA
ATOM     10  O3  IDS d 303     135.035   1.938  76.333  0.00  0.00    -0.390 OA
ATOM     11  C5  IDS d 303     133.977   4.692  75.583  0.00  0.00     0.152 C 
ATOM     12  O2  IDS d 303     137.586   4.445  76.637  0.00  0.00    -0.244 OA
ATOM     13  C1  IDS d 303     135.407   4.942  77.530  0.00  0.00     0.161 C 
ATOM     14  S   IDS d 303     138.937   4.502  77.438  0.00  0.00     0.252 S 
ATOM     15  C2  IDS d 303     136.363   3.833  77.017  0.00  0.00     0.134 C 
ATOM     16  O5  IDS d 303     134.710   5.563  76.455  0.00  0.00    -0.340 OA
ATOM     17  H   IDS d 303     134.410   3.192  74.139  0.00  0.00     0.092 H 
ATOM     18  H   IDS d 303     136.693   2.635  75.294  0.00  0.00     0.091 H 
ATOM     19  H   IDS d 303     134.272   2.310  76.802  0.00  0.00     0.210 HD
ATOM     20  H   IDS d 303     133.339   4.022  76.121  0.00  0.00     0.104 H 
ATOM     21  H   IDS d 303     135.975   5.715  78.002  0.00  0.00     0.133 H 
ATOM     22  H   IDS d 303     136.473   3.141  77.826  0.00  0.00     0.097 H 
ATOM     23  C2  SGN d 304     137.636   4.779  72.352  0.00  0.00     0.081 C 
ATOM     24  C1  SGN d 304     136.211   4.321  72.767  0.00  0.00     0.150 C 
ATOM     25  O3  SGN d 304     139.016   6.729  71.989  0.00  0.00    -0.391 OA
ATOM     26  O3S SGN d 304     140.554   2.800  72.676  0.00  0.00    -0.296 OA
ATOM     27  O5S SGN d 304     134.075   5.491  67.409  0.00  0.00    -0.572 OA
ATOM     28  O2S SGN d 304     138.411   2.048  71.912  0.00  0.00    -0.296 OA
ATOM     29  O4S SGN d 304     133.554   7.725  68.096  0.00  0.00    -0.572 OA
ATOM     30  O4  SGN d 304     137.064   8.247  71.271  0.00  0.00    -0.348 OA
ATOM     31  O6  SGN d 304     134.175   6.043  69.714  0.00  0.00    -0.254 OA
ATOM     32  S1  SGN d 304     139.164   2.641  72.988  0.00  0.00     0.156 S 
ATOM     33  C4  SGN d 304     136.676   6.866  71.361  0.00  0.00     0.095 C 
ATOM     34  O6S SGN d 304     132.058   5.924  68.602  0.00  0.00    -0.572 OA
ATOM     35  N   SGN d 304     138.604   4.161  73.272  0.00  0.00    -0.210 NA
ATOM     36  C5  SGN d 304     135.266   6.374  71.826  0.00  0.00     0.091 C 
ATOM     37  C3  SGN d 304     137.715   6.320  72.375  0.00  0.00     0.083 C 
ATOM     38  C6  SGN d 304     134.102   6.787  70.913  0.00  0.00     0.067 C 
ATOM     39  O5  SGN d 304     135.228   4.927  71.927  0.00  0.00    -0.349 OA
ATOM     40  O1S SGN d 304     138.959   1.946  74.228  0.00  0.00    -0.296 OA
ATOM     41  S2  SGN d 304     133.416   6.323  68.378  0.00  0.00     0.251 S 
ATOM     42  H   SGN d 304     137.866   4.468  71.354  0.00  0.00     0.076 H 
ATOM     43  H   SGN d 304     136.163   3.258  72.646  0.00  0.00     0.131 H 
ATOM     44  H   SGN d 304     139.664   6.386  72.625  0.00  0.00     0.210 HD
ATOM     45  H   SGN d 304     140.644   3.273  71.835  0.00  0.00     0.231 HD
ATOM     46  H   SGN d 304     138.573   2.542  71.093  0.00  0.00     0.231 HD
ATOM     47  H   SGN d 304     136.632   6.531  70.346  0.00  0.00     0.091 H 
ATOM     48  H   SGN d 304     138.165   4.143  74.193  0.00  0.00     0.140 HD
ATOM     49  H   SGN d 304     135.130   6.852  72.774  0.00  0.00     0.090 H 
ATOM     50  H   SGN d 304     137.510   6.692  73.356  0.00  0.00     0.089 H 
ATOM     51  H   SGN d 304     133.172   6.588  71.404  0.00  0.00     0.080 H 
ATOM     52  H   SGN d 304     134.165   7.833  70.696  0.00  0.00     0.080 H 
ATOM     53  H   SGN d 304     139.268   1.030  74.141  0.00  0.00     0.231 HD
ATOM     54  O62 IDS d 301     135.253   6.130  84.070  0.00  0.00    -0.646 OA
ATOM     55  O1  IDS d 301     132.369   5.024  88.029  0.00  0.00    -0.368 OA
ATOM     56  C4  IDS d 301     132.238   5.117  83.942  0.00  0.00     0.103 C 
ATOM     57  C5  IDS d 301     133.083   5.864  85.042  0.00  0.00     0.152 C 
ATOM     58  O61 IDS d 301     134.247   7.877  84.540  0.00  0.00    -0.646 OA
ATOM     59  S   IDS d 301     128.925   3.484  87.362  0.00  0.00     0.252 S 
ATOM     60  C3  IDS d 301     131.321   4.036  84.598  0.00  0.00     0.094 C 
ATOM     61  C1  IDS d 301     132.517   4.313  86.831  0.00  0.00     0.158 C 
ATOM     62  C6  IDS d 301     134.268   6.667  84.519  0.00  0.00     0.206 C 
ATOM     63  O5  IDS d 301     133.538   4.898  86.015  0.00  0.00    -0.340 OA
ATOM     64  O4  IDS d 301     132.188   4.784  82.546  0.00  0.00    -0.348 OA
ATOM     65  O3S IDS d 301     128.824   2.337  88.229  0.00  0.00    -0.572 OA
ATOM     66  O1S IDS d 301     128.967   4.721  88.094  0.00  0.00    -0.572 OA
ATOM     67  C2  IDS d 301     131.138   4.311  86.104  0.00  0.00     0.134 C 
ATOM     68  O3  IDS d 301     130.051   4.049  83.965  0.00  0.00    -0.390 OA
ATOM     69  O2  IDS d 301     130.311   3.304  86.656  0.00  0.00    -0.244 OA
ATOM     70  O2S IDS d 301     127.944   3.481  86.307  0.00  0.00    -0.572 OA
ATOM     71  H   IDS d 301     131.674   4.612  88.566  0.00  0.00     0.212 HD
ATOM     72  H   IDS d 301     132.427   6.119  83.618  0.00  0.00     0.092 H 
ATOM     73  H   IDS d 301     132.428   6.590  85.475  0.00  0.00     0.104 H 
ATOM     74  H   IDS d 301     131.786   3.080  84.477  0.00  0.00     0.091 H 
ATOM     75  H   IDS d 301     132.821   3.307  87.031  0.00  0.00     0.133 H 
ATOM     76  H   IDS d 301     130.686   5.271  86.233  0.00  0.00     0.097 H 
ATOM     77  H   IDS d 301     129.641   4.920  84.081  0.00  0.00     0.210 HD
ATOM     78  O1S SGN d 302     127.816   4.620  80.644  0.00  0.00    -0.296 OA
ATOM     79  C2  SGN d 302     131.522   5.453  80.266  0.00  0.00     0.081 C 
ATOM     80  S2  SGN d 302     136.556   8.860  80.445  0.00  0.00     0.251 S 
ATOM     81  N   SGN d 302     130.224   4.791  80.482  0.00  0.00    -0.210 NA
ATOM     82  C4  SGN d 302     133.822   5.283  79.310  0.00  0.00     0.095 C 
ATOM     83  O6  SGN d 302     135.602   7.652  80.172  0.00  0.00    -0.254 OA
ATOM     84  C5  SGN d 302     134.386   5.614  80.731  0.00  0.00     0.091 C 
ATOM     85  O4S SGN d 302     137.897   8.400  80.215  0.00  0.00    -0.572 OA
ATOM     86  O2S SGN d 302     128.815   6.642  81.360  0.00  0.00    -0.296 OA
ATOM     87  S1  SGN d 302     128.815   5.608  80.371  0.00  0.00     0.156 S 
ATOM     88  O5S SGN d 302     136.163   9.866  79.507  0.00  0.00    -0.572 OA
ATOM     89  O6S SGN d 302     136.313   9.237  81.807  0.00  0.00    -0.572 OA
ATOM     90  C6  SGN d 302     135.730   6.363  80.725  0.00  0.00     0.067 C 
ATOM     91  O3  SGN d 302     131.908   4.230  78.247  0.00  0.00    -0.391 OA
ATOM     92  C3  SGN d 302     132.480   4.546  79.505  0.00  0.00     0.083 C 
ATOM     93  O4  SGN d 302     134.534   4.384  78.465  0.00  0.00    -0.348 OA
ATOM     94  O3S SGN d 302     128.757   6.109  79.028  0.00  0.00    -0.296 OA
ATOM     95  C1  SGN d 302     132.128   5.849  81.636  0.00  0.00     0.150 C 
ATOM     96  O5  SGN d 302     133.430   6.424  81.470  0.00  0.00    -0.349 OA
ATOM     97  H   SGN d 302     127.902   4.318  81.563  0.00  0.00     0.231 HD
ATOM     98  H   SGN d 302     131.367   6.332  79.675  0.00  0.00     0.076 H 
ATOM     99  H   SGN d 302     130.254   4.398  81.423  0.00  0.00     0.140 HD
ATOM    100  H   SGN d 302     133.833   6.243  78.839  0.00  0.00     0.091 H 
ATOM    101  H   SGN d 302     134.551   4.663  81.192  0.00  0.00     0.090 H 
ATOM    102  H   SGN d 302     128.856   6.244  82.244  0.00  0.00     0.231 HD
ATOM    103  H   SGN d 302     136.082   6.451  81.732  0.00  0.00     0.080 H 
ATOM    104  H   SGN d 302     136.420   5.808  80.125  0.00  0.00     0.080 H 
ATOM    105  H   SGN d 302     131.066   3.768  78.382  0.00  0.00     0.210 HD
ATOM    106  H   SGN d 302     132.654   3.643  80.050  0.00  0.00     0.089 H 
ATOM    107  H   SGN d 302     128.760   5.365  78.406  0.00  0.00     0.231 HD
ATOM    108  H   SGN d 302     131.464   6.578  82.053  0.00  0.00     0.131 H 
ATOM    109  C1  IDS d 305     136.796   8.941  70.078  0.00  0.00     0.161 C 
ATOM    110  O1S IDS d 305     133.563  11.390  72.145  0.00  0.00    -0.572 OA
ATOM    111  S   IDS d 305     134.996  11.373  72.218  0.00  0.00     0.252 S 
ATOM    112  C4  IDS d 305     138.568  10.933  68.677  0.00  0.00    -0.005 C 
ATOM    113  O61 IDS d 305     141.145   8.727  68.456  0.00  0.00    -0.646 OA
ATOM    114  O3  IDS d 305     137.105  12.667  69.497  0.00  0.00    -0.393 OA
ATOM    115  O62 IDS d 305     139.691   8.466  66.998  0.00  0.00    -0.646 OA
ATOM    116  O2S IDS d 305     135.476  10.479  73.229  0.00  0.00    -0.572 OA
ATOM    117  O2  IDS d 305     135.450  10.808  70.830  0.00  0.00    -0.244 OA
ATOM    118  O5  IDS d 305     137.770   8.641  69.065  0.00  0.00    -0.343 OA
ATOM    119  C5  IDS d 305     138.958   9.464  69.049  0.00  0.00     0.127 C 
ATOM    120  C3  IDS d 305     137.137  11.291  69.173  0.00  0.00     0.069 C 
ATOM    121  C2  IDS d 305     136.761  10.456  70.415  0.00  0.00     0.132 C 
ATOM    122  C6  IDS d 305     139.990   8.848  68.109  0.00  0.00     0.203 C 
ATOM    123  O3S IDS d 305     135.563  12.687  72.308  0.00  0.00    -0.572 OA
ATOM    124  H   IDS d 305     135.852   8.636  69.676  0.00  0.00     0.133 H 
ATOM    125  H   IDS d 305     139.269  11.603  69.129  0.00  0.00     0.041 H 
ATOM    126  H   IDS d 305     138.583  11.023  67.611  0.00  0.00     0.041 H 
ATOM    127  H   IDS d 305     137.342  13.190  68.716  0.00  0.00     0.210 HD
ATOM    128  H   IDS d 305     139.413   9.502  70.017  0.00  0.00     0.100 H 
ATOM    129  H   IDS d 305     136.432  11.072  68.399  0.00  0.00     0.087 H 
ATOM    130  H   IDS d 305     137.464  10.657  71.196  0.00  0.00     0.097 H 
ENDROOT
TORSDOF 39
ENDMDL
MODEL 22
REMARK VINA RESULT:      -5.8      4.482     13.296
REMARK  0 active torsions:
REMARK  status: ('A' for Active; 'I' for Inactive)
REMARK       I    between atoms: C2_2  and  N_68 
REMARK       I    between atoms: C1_3  and  O4_24 
REMARK       I    between atoms: O1S_5  and  S1_58 
REMARK       I    between atoms: O1_6  and  C1_31 
REMARK       I    between atoms: C4_7  and  O4_36 
REMARK       I    between atoms: C1_8  and  O4_37 
REMARK       I    between atoms: O3_9  and  C3_74 
REMARK       I    between atoms: C5_10  and  C6_32 
REMARK       I    between atoms: C2_11  and  N_20 
REMARK       I    between atoms: C6_12  and  C5_53 
REMARK       I    between atoms: S2_14  and  O6_33 
REMARK       I    between atoms: O3S_16  and  S1_51 
REMARK       I    between atoms: S_17  and  O2_44 
REMARK       I    between atoms: N_20  and  S1_58 
REMARK       I    between atoms: O4_24  and  C4_38 
REMARK       I    between atoms: S_25  and  O2_64 
REMARK       I    between atoms: O2S_27  and  S1_51 
REMARK       I    between atoms: C4_28  and  O4_73 
REMARK       I    between atoms: C3_30  and  O3_62 
REMARK       I    between atoms: O6_33  and  C6_63 
REMARK       I    between atoms: O3_35  and  C3_55 
REMARK       I    between atoms: O4_36  and  C1_84 
REMARK       I    between atoms: O4_37  and  C4_54 
REMARK       I    between atoms: C3_39  and  O3_48 
REMARK       I    between atoms: C5_42  and  C6_63 
REMARK       I    between atoms: O2_44  and  C2_61 
REMARK       I    between atoms: O6_45  and  C6_77 
REMARK       I    between atoms: O6_45  and  S2_82 
REMARK       I    between atoms: C5_49  and  C6_76 
REMARK       I    between atoms: S1_51  and  N_68 
REMARK       I    between atoms: S1_51  and  O1S_81 
REMARK       I    between atoms: O2S_52  and  S1_58 
REMARK       I    between atoms: C2_57  and  O2_64 
REMARK       I    between atoms: S1_58  and  O3S_75 
REMARK       I    between atoms: O3_66  and  C3_67 
REMARK       I    between atoms: O2_69  and  C2_79 
REMARK       I    between atoms: O2_69  and  S_72 
REMARK       I    between atoms: C5_70  and  C6_77 
REMARK       I    between atoms: C1_71  and  O4_73 
ROOT
ATOM      1  O2S IDS d 303     132.089  12.758  84.908  0.00  0.00    -0.572 OA
ATOM      2  C6  IDS d 303     136.031   8.926  80.181  0.00  0.00     0.206 C 
ATOM      3  O1S IDS d 303     133.171  14.242  83.381  0.00  0.00    -0.572 OA
ATOM      4  O3S IDS d 303     131.007  13.357  82.845  0.00  0.00    -0.572 OA
ATOM      5  O4  IDS d 303     134.593   9.389  82.882  0.00  0.00    -0.348 OA
ATOM      6  O61 IDS d 303     136.114   7.781  79.787  0.00  0.00    -0.646 OA
ATOM      7  C4  IDS d 303     133.911   9.031  81.670  0.00  0.00     0.103 C 
ATOM      8  C3  IDS d 303     132.542   9.760  81.791  0.00  0.00     0.094 C 
ATOM      9  O62 IDS d 303     137.061   9.540  80.364  0.00  0.00    -0.646 OA
ATOM     10  O3  IDS d 303     131.669   9.230  80.809  0.00  0.00    -0.390 OA
ATOM     11  C5  IDS d 303     134.671   9.576  80.436  0.00  0.00     0.152 C 
ATOM     12  O2  IDS d 303     132.939  11.899  82.845  0.00  0.00    -0.244 OA
ATOM     13  C1  IDS d 303     133.670  11.785  80.555  0.00  0.00     0.161 C 
ATOM     14  S   IDS d 303     132.258  13.141  83.528  0.00  0.00     0.252 S 
ATOM     15  C2  IDS d 303     132.628  11.300  81.597  0.00  0.00     0.134 C 
ATOM     16  O5  IDS d 303     134.849  10.990  80.592  0.00  0.00    -0.340 OA
ATOM     17  H   IDS d 303     133.825   7.971  81.547  0.00  0.00     0.092 H 
ATOM     18  H   IDS d 303     132.187   9.596  82.787  0.00  0.00     0.091 H 
ATOM     19  H   IDS d 303     132.032   9.404  79.926  0.00  0.00     0.210 HD
ATOM     20  H   IDS d 303     134.069   9.334  79.586  0.00  0.00     0.104 H 
ATOM     21  H   IDS d 303     133.975  12.783  80.791  0.00  0.00     0.133 H 
ATOM     22  H   IDS d 303     131.672  11.592  81.217  0.00  0.00     0.097 H 
ATOM     23  C2  SGN d 304     134.939   8.969  85.274  0.00  0.00     0.081 C 
ATOM     24  C1  SGN d 304     134.807   8.378  83.843  0.00  0.00     0.150 C 
ATOM     25  O3  SGN d 304     136.351  10.327  86.687  0.00  0.00    -0.391 OA
ATOM     26  O3S SGN d 304     132.215   9.569  87.455  0.00  0.00    -0.296 OA
ATOM     27  O5S SGN d 304     138.622   4.068  85.075  0.00  0.00    -0.572 OA
ATOM     28  O2S SGN d 304     132.522   7.636  86.071  0.00  0.00    -0.296 OA
ATOM     29  O4S SGN d 304     140.433   5.450  84.336  0.00  0.00    -0.572 OA
ATOM     30  O4  SGN d 304     138.543   9.659  85.512  0.00  0.00    -0.348 OA
ATOM     31  O6  SGN d 304     138.140   6.072  83.898  0.00  0.00    -0.254 OA
ATOM     32  S1  SGN d 304     132.372   9.068  86.121  0.00  0.00     0.156 S 
ATOM     33  C4  SGN d 304     137.431   8.849  85.093  0.00  0.00     0.095 C 
ATOM     34  O6S SGN d 304     139.126   4.216  82.750  0.00  0.00    -0.572 OA
ATOM     35  N   SGN d 304     133.741   9.779  85.548  0.00  0.00    -0.210 NA
ATOM     36  C5  SGN d 304     137.246   8.285  83.647  0.00  0.00     0.091 C 
ATOM     37  C3  SGN d 304     136.236   9.797  85.378  0.00  0.00     0.083 C 
ATOM     38  C6  SGN d 304     138.322   7.285  83.198  0.00  0.00     0.067 C 
ATOM     39  O5  SGN d 304     135.967   7.613  83.511  0.00  0.00    -0.349 OA
ATOM     40  O1S SGN d 304     131.335   9.527  85.240  0.00  0.00    -0.296 OA
ATOM     41  S2  SGN d 304     139.150   4.886  84.018  0.00  0.00     0.251 S 
ATOM     42  H   SGN d 304     135.002   8.193  86.007  0.00  0.00     0.076 H 
ATOM     43  H   SGN d 304     133.952   7.734  83.835  0.00  0.00     0.131 H 
ATOM     44  H   SGN d 304     135.603  10.919  86.862  0.00  0.00     0.210 HD
ATOM     45  H   SGN d 304     132.934   9.235  88.012  0.00  0.00     0.231 HD
ATOM     46  H   SGN d 304     133.229   7.364  86.676  0.00  0.00     0.231 HD
ATOM     47  H   SGN d 304     137.563   7.921  85.608  0.00  0.00     0.091 H 
ATOM     48  H   SGN d 304     133.488  10.237  84.672  0.00  0.00     0.140 HD
ATOM     49  H   SGN d 304     137.318   9.152  83.025  0.00  0.00     0.090 H 
ATOM     50  H   SGN d 304     136.225  10.604  84.675  0.00  0.00     0.089 H 
ATOM     51  H   SGN d 304     138.234   7.110  82.147  0.00  0.00     0.080 H 
ATOM     52  H   SGN d 304     139.294   7.682  83.407  0.00  0.00     0.080 H 
ATOM     53  H   SGN d 304     130.486   9.147  85.514  0.00  0.00     0.231 HD
ATOM     54  O62 IDS d 301     132.109  17.075  76.841  0.00  0.00    -0.646 OA
ATOM     55  O1  IDS d 301     130.433  18.061  72.212  0.00  0.00    -0.368 OA
ATOM     56  C4  IDS d 301     132.199  15.070  74.371  0.00  0.00     0.103 C 
ATOM     57  C5  IDS d 301     132.146  16.640  74.489  0.00  0.00     0.152 C 
ATOM     58  O61 IDS d 301     133.734  17.828  75.803  0.00  0.00    -0.646 OA
ATOM     59  S   IDS d 301     130.415  15.198  69.666  0.00  0.00     0.252 S 
ATOM     60  C3  IDS d 301     131.279  14.578  73.209  0.00  0.00     0.094 C 
ATOM     61  C1  IDS d 301     130.257  16.900  72.975  0.00  0.00     0.158 C 
ATOM     62  C6  IDS d 301     132.691  17.214  75.791  0.00  0.00     0.206 C 
ATOM     63  O5  IDS d 301     130.782  17.075  74.296  0.00  0.00    -0.340 OA
ATOM     64  O4  IDS d 301     132.488  13.862  75.092  0.00  0.00    -0.348 OA
ATOM     65  O3S IDS d 301     129.105  15.207  69.063  0.00  0.00    -0.572 OA
ATOM     66  O1S IDS d 301     131.175  16.373  69.336  0.00  0.00    -0.572 OA
ATOM     67  C2  IDS d 301     130.965  15.728  72.232  0.00  0.00     0.134 C 
ATOM     68  O3  IDS d 301     131.930  13.532  72.504  0.00  0.00    -0.390 OA
ATOM     69  O2  IDS d 301     130.124  15.239  71.204  0.00  0.00    -0.244 OA
ATOM     70  O2S IDS d 301     131.134  13.972  69.434  0.00  0.00    -0.572 OA
ATOM     71  H   IDS d 301     130.072  17.922  71.323  0.00  0.00     0.212 HD
ATOM     72  H   IDS d 301     133.138  15.425  74.741  0.00  0.00     0.092 H 
ATOM     73  H   IDS d 301     132.797  17.015  73.728  0.00  0.00     0.104 H 
ATOM     74  H   IDS d 301     130.360  14.225  73.631  0.00  0.00     0.091 H 
ATOM     75  H   IDS d 301     129.215  16.682  73.084  0.00  0.00     0.133 H 
ATOM     76  H   IDS d 301     131.880  16.094  71.816  0.00  0.00     0.097 H 
ATOM     77  H   IDS d 301     132.760  13.863  72.128  0.00  0.00     0.210 HD
ATOM     78  O1S SGN d 302     134.436  10.360  72.505  0.00  0.00    -0.296 OA
ATOM     79  C2  SGN d 302     134.186  12.228  75.824  0.00  0.00     0.081 C 
ATOM     80  S2  SGN d 302     135.532  16.414  80.025  0.00  0.00     0.251 S 
ATOM     81  N   SGN d 302     133.920  11.447  74.603  0.00  0.00    -0.210 NA
ATOM     82  C4  SGN d 302     133.727  12.517  78.261  0.00  0.00     0.095 C 
ATOM     83  O6  SGN d 302     134.888  15.164  79.343  0.00  0.00    -0.254 OA
ATOM     84  C5  SGN d 302     133.270  13.980  77.954  0.00  0.00     0.091 C 
ATOM     85  O4S SGN d 302     134.821  16.639  81.253  0.00  0.00    -0.572 OA
ATOM     86  O2S SGN d 302     135.592  12.362  73.006  0.00  0.00    -0.296 OA
ATOM     87  S1  SGN d 302     135.097  11.122  73.520  0.00  0.00     0.156 S 
ATOM     88  O5S SGN d 302     136.898  16.053  80.251  0.00  0.00    -0.572 OA
ATOM     89  O6S SGN d 302     135.383  17.482  79.080  0.00  0.00    -0.572 OA
ATOM     90  C6  SGN d 302     133.513  14.978  79.100  0.00  0.00     0.067 C 
ATOM     91  O3  SGN d 302     133.826  10.321  77.224  0.00  0.00    -0.391 OA
ATOM     92  C3  SGN d 302     133.419  11.663  77.013  0.00  0.00     0.083 C 
ATOM     93  O4  SGN d 302     133.075  11.780  79.292  0.00  0.00    -0.348 OA
ATOM     94  O3S SGN d 302     136.088  10.368  74.233  0.00  0.00    -0.296 OA
ATOM     95  C1  SGN d 302     133.793  13.707  75.582  0.00  0.00     0.150 C 
ATOM     96  O5  SGN d 302     133.962  14.481  76.776  0.00  0.00    -0.349 OA
ATOM     97  H   SGN d 302     133.780  10.917  72.057  0.00  0.00     0.231 HD
ATOM     98  H   SGN d 302     135.230  12.167  76.052  0.00  0.00     0.076 H 
ATOM     99  H   SGN d 302     133.193  11.950  74.093  0.00  0.00     0.140 HD
ATOM    100  H   SGN d 302     134.743  12.660  78.563  0.00  0.00     0.091 H 
ATOM    101  H   SGN d 302     132.214  13.915  77.804  0.00  0.00     0.090 H 
ATOM    102  H   SGN d 302     134.880  12.825  72.537  0.00  0.00     0.231 HD
ATOM    103  H   SGN d 302     133.077  15.920  78.837  0.00  0.00     0.080 H 
ATOM    104  H   SGN d 302     133.066  14.584  79.988  0.00  0.00     0.080 H 
ATOM    105  H   SGN d 302     133.627   9.796  76.433  0.00  0.00     0.210 HD
ATOM    106  H   SGN d 302     132.366  11.687  76.825  0.00  0.00     0.089 H 
ATOM    107  H   SGN d 302     135.695   9.543  74.555  0.00  0.00     0.231 HD
ATOM    108  H   SGN d 302     134.455  14.068  74.823  0.00  0.00     0.131 H 
ATOM    109  C1  IDS d 305     139.704   9.013  85.973  0.00  0.00     0.161 C 
ATOM    110  O1S IDS d 305     141.966  10.246  82.220  0.00  0.00    -0.572 OA
ATOM    111  S   IDS d 305     141.488  10.958  83.372  0.00  0.00     0.252 S 
ATOM    112  C4  IDS d 305     141.452   9.819  88.289  0.00  0.00    -0.005 C 
ATOM    113  O61 IDS d 305     138.855   9.749  90.482  0.00  0.00    -0.646 OA
ATOM    114  O3  IDS d 305     143.062  10.608  86.676  0.00  0.00    -0.393 OA
ATOM    115  O62 IDS d 305     139.656   7.879  90.073  0.00  0.00    -0.646 OA
ATOM    116  O2S IDS d 305     140.163  11.467  83.180  0.00  0.00    -0.572 OA
ATOM    117  O2  IDS d 305     141.421   9.874  84.499  0.00  0.00    -0.244 OA
ATOM    118  O5  IDS d 305     139.558   8.578  87.335  0.00  0.00    -0.343 OA
ATOM    119  C5  IDS d 305     139.915   9.533  88.359  0.00  0.00     0.127 C 
ATOM    120  C3  IDS d 305     141.994   9.694  86.837  0.00  0.00     0.069 C 
ATOM    121  C2  IDS d 305     140.888  10.004  85.808  0.00  0.00     0.132 C 
ATOM    122  C6  IDS d 305     139.449   9.019  89.718  0.00  0.00     0.203 C 
ATOM    123  O3S IDS d 305     142.415  11.947  83.836  0.00  0.00    -0.572 OA
ATOM    124  H   IDS d 305     139.888   8.128  85.401  0.00  0.00     0.133 H 
ATOM    125  H   IDS d 305     141.636  10.811  88.645  0.00  0.00     0.041 H 
ATOM    126  H   IDS d 305     141.954   9.095  88.896  0.00  0.00     0.041 H 
ATOM    127  H   IDS d 305     143.757  10.411  87.324  0.00  0.00     0.210 HD
ATOM    128  H   IDS d 305     139.420  10.469  88.202  0.00  0.00     0.100 H 
ATOM    129  H   IDS d 305     142.330   8.692  86.672  0.00  0.00     0.087 H 
ATOM    130  H   IDS d 305     140.533  11.002  85.967  0.00  0.00     0.097 H 
ENDROOT
TORSDOF 39
ENDMDL
MODEL 23
REMARK VINA RESULT:      -5.8      3.635     14.034
REMARK  0 active torsions:
REMARK  status: ('A' for Active; 'I' for Inactive)
REMARK       I    between atoms: C2_2  and  N_68 
REMARK       I    between atoms: C1_3  and  O4_24 
REMARK       I    between atoms: O1S_5  and  S1_58 
REMARK       I    between atoms: O1_6  and  C1_31 
REMARK       I    between atoms: C4_7  and  O4_36 
REMARK       I    between atoms: C1_8  and  O4_37 
REMARK       I    between atoms: O3_9  and  C3_74 
REMARK       I    between atoms: C5_10  and  C6_32 
REMARK       I    between atoms: C2_11  and  N_20 
REMARK       I    between atoms: C6_12  and  C5_53 
REMARK       I    between atoms: S2_14  and  O6_33 
REMARK       I    between atoms: O3S_16  and  S1_51 
REMARK       I    between atoms: S_17  and  O2_44 
REMARK       I    between atoms: N_20  and  S1_58 
REMARK       I    between atoms: O4_24  and  C4_38 
REMARK       I    between atoms: S_25  and  O2_64 
REMARK       I    between atoms: O2S_27  and  S1_51 
REMARK       I    between atoms: C4_28  and  O4_73 
REMARK       I    between atoms: C3_30  and  O3_62 
REMARK       I    between atoms: O6_33  and  C6_63 
REMARK       I    between atoms: O3_35  and  C3_55 
REMARK       I    between atoms: O4_36  and  C1_84 
REMARK       I    between atoms: O4_37  and  C4_54 
REMARK       I    between atoms: C3_39  and  O3_48 
REMARK       I    between atoms: C5_42  and  C6_63 
REMARK       I    between atoms: O2_44  and  C2_61 
REMARK       I    between atoms: O6_45  and  C6_77 
REMARK       I    between atoms: O6_45  and  S2_82 
REMARK       I    between atoms: C5_49  and  C6_76 
REMARK       I    between atoms: S1_51  and  N_68 
REMARK       I    between atoms: S1_51  and  O1S_81 
REMARK       I    between atoms: O2S_52  and  S1_58 
REMARK       I    between atoms: C2_57  and  O2_64 
REMARK       I    between atoms: S1_58  and  O3S_75 
REMARK       I    between atoms: O3_66  and  C3_67 
REMARK       I    between atoms: O2_69  and  C2_79 
REMARK       I    between atoms: O2_69  and  S_72 
REMARK       I    between atoms: C5_70  and  C6_77 
REMARK       I    between atoms: C1_71  and  O4_73 
ROOT
ATOM      1  O2S IDS d 303     137.226   5.988  82.225  0.00  0.00    -0.572 OA
ATOM      2  C6  IDS d 303     137.509  13.194  81.484  0.00  0.00     0.206 C 
ATOM      3  O1S IDS d 303     135.081   6.810  81.567  0.00  0.00    -0.572 OA
ATOM      4  O3S IDS d 303     136.689   6.212  79.891  0.00  0.00    -0.572 OA
ATOM      5  O4  IDS d 303     138.449  10.470  82.608  0.00  0.00    -0.348 OA
ATOM      6  O61 IDS d 303     138.350  14.062  81.358  0.00  0.00    -0.646 OA
ATOM      7  C4  IDS d 303     138.761  10.933  81.285  0.00  0.00     0.103 C 
ATOM      8  C3  IDS d 303     138.794   9.629  80.438  0.00  0.00     0.094 C 
ATOM      9  O62 IDS d 303     136.561  13.423  82.205  0.00  0.00    -0.646 OA
ATOM     10  O3  IDS d 303     139.398   9.925  79.190  0.00  0.00    -0.390 OA
ATOM     11  C5  IDS d 303     137.640  11.858  80.754  0.00  0.00     0.152 C 
ATOM     12  O2  IDS d 303     137.052   8.171  81.266  0.00  0.00    -0.244 OA
ATOM     13  C1  IDS d 303     136.240  10.033  79.974  0.00  0.00     0.161 C 
ATOM     14  S   IDS d 303     136.475   6.710  81.226  0.00  0.00     0.252 S 
ATOM     15  C2  IDS d 303     137.392   9.013  80.175  0.00  0.00     0.134 C 
ATOM     16  O5  IDS d 303     136.390  11.159  80.831  0.00  0.00    -0.340 OA
ATOM     17  H   IDS d 303     139.674  11.491  81.252  0.00  0.00     0.092 H 
ATOM     18  H   IDS d 303     139.347   8.905  80.999  0.00  0.00     0.091 H 
ATOM     19  H   IDS d 303     138.862  10.583  78.721  0.00  0.00     0.210 HD
ATOM     20  H   IDS d 303     137.906  12.101  79.747  0.00  0.00     0.104 H 
ATOM     21  H   IDS d 303     135.308   9.579  80.239  0.00  0.00     0.133 H 
ATOM     22  H   IDS d 303     137.483   8.484  79.249  0.00  0.00     0.097 H 
ATOM     23  C2  SGN d 304     139.251   9.498  84.713  0.00  0.00     0.081 C 
ATOM     24  C1  SGN d 304     139.456  10.556  83.593  0.00  0.00     0.150 C 
ATOM     25  O3  SGN d 304     137.803   8.867  86.540  0.00  0.00    -0.391 OA
ATOM     26  O3S SGN d 304     140.530   6.198  84.613  0.00  0.00    -0.296 OA
ATOM     27  O5S SGN d 304     141.704  14.430  87.411  0.00  0.00    -0.572 OA
ATOM     28  O2S SGN d 304     141.692   8.188  83.952  0.00  0.00    -0.296 OA
ATOM     29  O4S SGN d 304     139.513  15.300  87.830  0.00  0.00    -0.572 OA
ATOM     30  O4  SGN d 304     137.078  11.277  87.087  0.00  0.00    -0.348 OA
ATOM     31  O6  SGN d 304     139.918  13.796  85.984  0.00  0.00    -0.254 OA
ATOM     32  S1  SGN d 304     140.550   7.335  83.740  0.00  0.00     0.156 S 
ATOM     33  C4  SGN d 304     138.171  11.234  86.154  0.00  0.00     0.095 C 
ATOM     34  O6S SGN d 304     140.763  16.036  85.923  0.00  0.00    -0.572 OA
ATOM     35  N   SGN d 304     139.175   8.170  84.082  0.00  0.00    -0.210 NA
ATOM     36  C5  SGN d 304     138.374  12.254  84.986  0.00  0.00     0.091 C 
ATOM     37  C3  SGN d 304     137.979   9.832  85.518  0.00  0.00     0.083 C 
ATOM     38  C6  SGN d 304     138.623  13.703  85.426  0.00  0.00     0.067 C 
ATOM     39  O5  SGN d 304     139.497  11.870  84.150  0.00  0.00    -0.349 OA
ATOM     40  O1S SGN d 304     140.411   6.964  82.359  0.00  0.00    -0.296 OA
ATOM     41  S2  SGN d 304     140.500  14.966  86.840  0.00  0.00     0.251 S 
ATOM     42  H   SGN d 304     140.069   9.503  85.402  0.00  0.00     0.076 H 
ATOM     43  H   SGN d 304     140.394  10.350  83.120  0.00  0.00     0.131 H 
ATOM     44  H   SGN d 304     137.683   7.991  86.140  0.00  0.00     0.210 HD
ATOM     45  H   SGN d 304     140.627   6.494  85.531  0.00  0.00     0.231 HD
ATOM     46  H   SGN d 304     141.754   8.416  84.893  0.00  0.00     0.231 HD
ATOM     47  H   SGN d 304     139.033  11.488  86.735  0.00  0.00     0.091 H 
ATOM     48  H   SGN d 304     138.680   8.292  83.198  0.00  0.00     0.140 HD
ATOM     49  H   SGN d 304     137.444  12.222  84.457  0.00  0.00     0.090 H 
ATOM     50  H   SGN d 304     137.119   9.827  84.882  0.00  0.00     0.089 H 
ATOM     51  H   SGN d 304     138.548  14.354  84.580  0.00  0.00     0.080 H 
ATOM     52  H   SGN d 304     137.893  13.991  86.154  0.00  0.00     0.080 H 
ATOM     53  H   SGN d 304     141.191   6.462  82.078  0.00  0.00     0.231 HD
ATOM     54  O62 IDS d 301     131.503   8.534  75.555  0.00  0.00    -0.646 OA
ATOM     55  O1  IDS d 301     130.263   9.693  70.830  0.00  0.00    -0.368 OA
ATOM     56  C4  IDS d 301     132.553  11.062  73.929  0.00  0.00     0.103 C 
ATOM     57  C5  IDS d 301     131.267  10.159  73.815  0.00  0.00     0.152 C 
ATOM     58  O61 IDS d 301     129.859   9.783  75.695  0.00  0.00    -0.646 OA
ATOM     59  S   IDS d 301     132.075  12.633  69.171  0.00  0.00     0.252 S 
ATOM     60  C3  IDS d 301     133.101  11.414  72.510  0.00  0.00     0.094 C 
ATOM     61  C1  IDS d 301     131.526   9.726  71.433  0.00  0.00     0.158 C 
ATOM     62  C6  IDS d 301     130.856   9.446  75.097  0.00  0.00     0.206 C 
ATOM     63  O5  IDS d 301     131.469   9.192  72.761  0.00  0.00    -0.340 OA
ATOM     64  O4  IDS d 301     133.633  11.436  74.798  0.00  0.00    -0.348 OA
ATOM     65  O3S IDS d 301     132.513  12.157  67.883  0.00  0.00    -0.572 OA
ATOM     66  O1S IDS d 301     130.642  12.707  69.267  0.00  0.00    -0.572 OA
ATOM     67  C2  IDS d 301     132.017  11.205  71.434  0.00  0.00     0.134 C 
ATOM     68  O3  IDS d 301     133.519  12.770  72.491  0.00  0.00    -0.390 OA
ATOM     69  O2  IDS d 301     132.559  11.526  70.167  0.00  0.00    -0.244 OA
ATOM     70  O2S IDS d 301     132.735  13.846  69.579  0.00  0.00    -0.572 OA
ATOM     71  H   IDS d 301     130.323  10.058  69.933  0.00  0.00     0.212 HD
ATOM     72  H   IDS d 301     131.915  11.254  74.766  0.00  0.00     0.092 H 
ATOM     73  H   IDS d 301     130.458  10.824  73.597  0.00  0.00     0.104 H 
ATOM     74  H   IDS d 301     133.927  10.768  72.296  0.00  0.00     0.091 H 
ATOM     75  H   IDS d 301     132.215   9.117  70.886  0.00  0.00     0.133 H 
ATOM     76  H   IDS d 301     131.182  11.838  71.649  0.00  0.00     0.097 H 
ATOM     77  H   IDS d 301     132.763  13.345  72.686  0.00  0.00     0.210 HD
ATOM     78  O1S SGN d 302     135.084  15.964  74.414  0.00  0.00    -0.296 OA
ATOM     79  C2  SGN d 302     134.438  12.908  76.608  0.00  0.00     0.081 C 
ATOM     80  S2  SGN d 302     131.306   9.159  80.231  0.00  0.00     0.251 S 
ATOM     81  N   SGN d 302     134.918  13.854  75.586  0.00  0.00    -0.210 NA
ATOM     82  C4  SGN d 302     135.013  11.042  78.164  0.00  0.00     0.095 C 
ATOM     83  O6  SGN d 302     132.496   9.790  79.437  0.00  0.00    -0.254 OA
ATOM     84  C5  SGN d 302     133.895  10.189  77.480  0.00  0.00     0.091 C 
ATOM     85  O4S SGN d 302     131.747   7.877  80.704  0.00  0.00    -0.572 OA
ATOM     86  O2S SGN d 302     132.973  15.378  75.308  0.00  0.00    -0.296 OA
ATOM     87  S1  SGN d 302     134.386  15.396  75.528  0.00  0.00     0.156 S 
ATOM     88  O5S SGN d 302     131.048  10.070  81.303  0.00  0.00    -0.572 OA
ATOM     89  O6S SGN d 302     130.225   9.075  79.293  0.00  0.00    -0.572 OA
ATOM     90  C6  SGN d 302     133.220   9.162  78.406  0.00  0.00     0.067 C 
ATOM     91  O3  SGN d 302     136.581  12.831  77.667  0.00  0.00    -0.391 OA
ATOM     92  C3  SGN d 302     135.568  12.015  77.103  0.00  0.00     0.083 C 
ATOM     93  O4  SGN d 302     136.198  10.402  78.628  0.00  0.00    -0.348 OA
ATOM     94  O3S SGN d 302     134.757  15.986  76.782  0.00  0.00    -0.296 OA
ATOM     95  C1  SGN d 302     133.293  12.049  76.013  0.00  0.00     0.150 C 
ATOM     96  O5  SGN d 302     132.856  11.061  76.953  0.00  0.00    -0.349 OA
ATOM     97  H   SGN d 302     134.795  15.529  73.596  0.00  0.00     0.231 HD
ATOM     98  H   SGN d 302     134.070  13.463  77.446  0.00  0.00     0.076 H 
ATOM     99  H   SGN d 302     134.693  13.439  74.681  0.00  0.00     0.140 HD
ATOM    100  H   SGN d 302     134.503  11.431  79.020  0.00  0.00     0.091 H 
ATOM    101  H   SGN d 302     134.396   9.645  76.708  0.00  0.00     0.090 H 
ATOM    102  H   SGN d 302     132.785  14.969  74.449  0.00  0.00     0.231 HD
ATOM    103  H   SGN d 302     132.549   8.561  77.827  0.00  0.00     0.080 H 
ATOM    104  H   SGN d 302     133.984   8.560  78.852  0.00  0.00     0.080 H 
ATOM    105  H   SGN d 302     136.922  13.437  76.992  0.00  0.00     0.210 HD
ATOM    106  H   SGN d 302     135.981  11.450  76.294  0.00  0.00     0.089 H 
ATOM    107  H   SGN d 302     135.722  15.970  76.874  0.00  0.00     0.231 HD
ATOM    108  H   SGN d 302     132.492  12.727  75.806  0.00  0.00     0.131 H 
ATOM    109  C1  IDS d 305     137.215  12.065  88.242  0.00  0.00     0.161 C 
ATOM    110  O1S IDS d 305     134.187  15.064  86.640  0.00  0.00    -0.572 OA
ATOM    111  S   IDS d 305     134.088  13.725  87.149  0.00  0.00     0.252 S 
ATOM    112  C4  IDS d 305     136.312  11.397  91.036  0.00  0.00    -0.005 C 
ATOM    113  O61 IDS d 305     138.108   8.511  91.099  0.00  0.00    -0.646 OA
ATOM    114  O3  IDS d 305     134.498  12.956  90.721  0.00  0.00    -0.393 OA
ATOM    115  O62 IDS d 305     139.235  10.208  91.493  0.00  0.00    -0.646 OA
ATOM    116  O2S IDS d 305     134.208  12.744  86.113  0.00  0.00    -0.572 OA
ATOM    117  O2  IDS d 305     135.326  13.573  88.093  0.00  0.00    -0.244 OA
ATOM    118  O5  IDS d 305     137.995  11.396  89.246  0.00  0.00    -0.343 OA
ATOM    119  C5  IDS d 305     137.275  10.534  90.155  0.00  0.00     0.127 C 
ATOM    120  C3  IDS d 305     135.806  12.654  90.273  0.00  0.00     0.069 C 
ATOM    121  C2  IDS d 305     135.787  12.403  88.751  0.00  0.00     0.132 C 
ATOM    122  C6  IDS d 305     138.268   9.705  90.965  0.00  0.00     0.203 C 
ATOM    123  O3S IDS d 305     132.936  13.532  87.981  0.00  0.00    -0.572 OA
ATOM    124  H   IDS d 305     137.743  12.968  88.014  0.00  0.00     0.133 H 
ATOM    125  H   IDS d 305     135.470  10.799  91.318  0.00  0.00     0.041 H 
ATOM    126  H   IDS d 305     136.853  11.726  91.899  0.00  0.00     0.041 H 
ATOM    127  H   IDS d 305     134.512  13.113  91.678  0.00  0.00     0.210 HD
ATOM    128  H   IDS d 305     136.662   9.838  89.621  0.00  0.00     0.100 H 
ATOM    129  H   IDS d 305     136.466  13.473  90.467  0.00  0.00     0.087 H 
ATOM    130  H   IDS d 305     135.138  11.579  88.541  0.00  0.00     0.097 H 
ENDROOT
TORSDOF 39
ENDMDL
MODEL 24
REMARK VINA RESULT:      -5.8      3.089      4.539
REMARK  0 active torsions:
REMARK  status: ('A' for Active; 'I' for Inactive)
REMARK       I    between atoms: C2_2  and  N_68 
REMARK       I    between atoms: C1_3  and  O4_24 
REMARK       I    between atoms: O1S_5  and  S1_58 
REMARK       I    between atoms: O1_6  and  C1_31 
REMARK       I    between atoms: C4_7  and  O4_36 
REMARK       I    between atoms: C1_8  and  O4_37 
REMARK       I    between atoms: O3_9  and  C3_74 
REMARK       I    between atoms: C5_10  and  C6_32 
REMARK       I    between atoms: C2_11  and  N_20 
REMARK       I    between atoms: C6_12  and  C5_53 
REMARK       I    between atoms: S2_14  and  O6_33 
REMARK       I    between atoms: O3S_16  and  S1_51 
REMARK       I    between atoms: S_17  and  O2_44 
REMARK       I    between atoms: N_20  and  S1_58 
REMARK       I    between atoms: O4_24  and  C4_38 
REMARK       I    between atoms: S_25  and  O2_64 
REMARK       I    between atoms: O2S_27  and  S1_51 
REMARK       I    between atoms: C4_28  and  O4_73 
REMARK       I    between atoms: C3_30  and  O3_62 
REMARK       I    between atoms: O6_33  and  C6_63 
REMARK       I    between atoms: O3_35  and  C3_55 
REMARK       I    between atoms: O4_36  and  C1_84 
REMARK       I    between atoms: O4_37  and  C4_54 
REMARK       I    between atoms: C3_39  and  O3_48 
REMARK       I    between atoms: C5_42  and  C6_63 
REMARK       I    between atoms: O2_44  and  C2_61 
REMARK       I    between atoms: O6_45  and  C6_77 
REMARK       I    between atoms: O6_45  and  S2_82 
REMARK       I    between atoms: C5_49  and  C6_76 
REMARK       I    between atoms: S1_51  and  N_68 
REMARK       I    between atoms: S1_51  and  O1S_81 
REMARK       I    between atoms: O2S_52  and  S1_58 
REMARK       I    between atoms: C2_57  and  O2_64 
REMARK       I    between atoms: S1_58  and  O3S_75 
REMARK       I    between atoms: O3_66  and  C3_67 
REMARK       I    between atoms: O2_69  and  C2_79 
REMARK       I    between atoms: O2_69  and  S_72 
REMARK       I    between atoms: C5_70  and  C6_77 
REMARK       I    between atoms: C1_71  and  O4_73 
ROOT
ATOM      1  O2S IDS d 303     128.757  12.206  76.538  0.00  0.00    -0.572 OA
ATOM      2  C6  IDS d 303     135.965  11.721  75.931  0.00  0.00     0.206 C 
ATOM      3  O1S IDS d 303     129.644  11.058  78.436  0.00  0.00    -0.572 OA
ATOM      4  O3S IDS d 303     129.447  13.448  78.479  0.00  0.00    -0.572 OA
ATOM      5  O4  IDS d 303     133.090  12.029  74.829  0.00  0.00    -0.348 OA
ATOM      6  O61 IDS d 303     136.859  12.243  75.297  0.00  0.00    -0.646 OA
ATOM      7  C4  IDS d 303     133.825  13.100  75.440  0.00  0.00     0.103 C 
ATOM      8  C3  IDS d 303     132.726  13.939  76.154  0.00  0.00     0.094 C 
ATOM      9  O62 IDS d 303     136.016  10.521  76.101  0.00  0.00    -0.646 OA
ATOM     10  O3  IDS d 303     133.290  15.186  76.523  0.00  0.00    -0.390 OA
ATOM     11  C5  IDS d 303     134.812  12.549  76.498  0.00  0.00     0.152 C 
ATOM     12  O2  IDS d 303     131.086  12.399  77.040  0.00  0.00    -0.244 OA
ATOM     13  C1  IDS d 303     133.155  12.442  78.270  0.00  0.00     0.161 C 
ATOM     14  S   IDS d 303     129.651  12.274  77.668  0.00  0.00     0.252 S 
ATOM     15  C2  IDS d 303     132.144  13.263  77.426  0.00  0.00     0.134 C 
ATOM     16  O5  IDS d 303     134.082  11.752  77.440  0.00  0.00    -0.340 OA
ATOM     17  H   IDS d 303     134.400  13.658  74.730  0.00  0.00     0.092 H 
ATOM     18  H   IDS d 303     131.915  14.044  75.464  0.00  0.00     0.091 H 
ATOM     19  H   IDS d 303     134.017  15.039  77.147  0.00  0.00     0.210 HD
ATOM     20  H   IDS d 303     135.265  13.404  76.955  0.00  0.00     0.104 H 
ATOM     21  H   IDS d 303     132.633  11.690  78.823  0.00  0.00     0.133 H 
ATOM     22  H   IDS d 303     131.821  14.068  78.053  0.00  0.00     0.097 H 
ATOM     23  C2  SGN d 304     131.722  11.256  72.945  0.00  0.00     0.081 C 
ATOM     24  C1  SGN d 304     132.994  12.012  73.421  0.00  0.00     0.150 C 
ATOM     25  O3  SGN d 304     130.690   9.075  72.838  0.00  0.00    -0.391 OA
ATOM     26  O3S SGN d 304     128.547  12.758  72.498  0.00  0.00    -0.296 OA
ATOM     27  O5S SGN d 304     136.046  10.214  68.720  0.00  0.00    -0.572 OA
ATOM     28  O2S SGN d 304     130.659  13.692  71.853  0.00  0.00    -0.296 OA
ATOM     29  O4S SGN d 304     136.756   8.266  69.917  0.00  0.00    -0.572 OA
ATOM     30  O4  SGN d 304     132.916   7.788  72.691  0.00  0.00    -0.348 OA
ATOM     31  O6  SGN d 304     135.679  10.100  71.062  0.00  0.00    -0.254 OA
ATOM     32  S1  SGN d 304     129.840  13.198  72.932  0.00  0.00     0.156 S 
ATOM     33  C4  SGN d 304     133.095   9.205  72.535  0.00  0.00     0.095 C 
ATOM     34  O6S SGN d 304     137.902  10.350  70.209  0.00  0.00    -0.572 OA
ATOM     35  N   SGN d 304     130.553  11.872  73.593  0.00  0.00    -0.210 NA
ATOM     36  C5  SGN d 304     134.339  10.000  73.051  0.00  0.00     0.091 C 
ATOM     37  C3  SGN d 304     131.851   9.757  73.281  0.00  0.00     0.083 C 
ATOM     38  C6  SGN d 304     135.671   9.618  72.390  0.00  0.00     0.067 C 
ATOM     39  O5  SGN d 304     134.165  11.427  72.850  0.00  0.00    -0.349 OA
ATOM     40  O1S SGN d 304     129.761  14.139  74.014  0.00  0.00    -0.296 OA
ATOM     41  S2  SGN d 304     136.659   9.699  69.914  0.00  0.00     0.251 S 
ATOM     42  H   SGN d 304     131.605  11.331  71.884  0.00  0.00     0.076 H 
ATOM     43  H   SGN d 304     132.914  13.025  73.087  0.00  0.00     0.131 H 
ATOM     44  H   SGN d 304     129.914   9.421  73.306  0.00  0.00     0.210 HD
ATOM     45  H   SGN d 304     128.649  12.127  71.769  0.00  0.00     0.231 HD
ATOM     46  H   SGN d 304     130.689  13.032  71.143  0.00  0.00     0.231 HD
ATOM     47  H   SGN d 304     133.244   9.345  71.485  0.00  0.00     0.091 H 
ATOM     48  H   SGN d 304     130.843  12.134  74.536  0.00  0.00     0.140 HD
ATOM     49  H   SGN d 304     134.395   9.739  74.087  0.00  0.00     0.090 H 
ATOM     50  H   SGN d 304     131.956   9.615  74.336  0.00  0.00     0.089 H 
ATOM     51  H   SGN d 304     136.482  10.055  72.935  0.00  0.00     0.080 H 
ATOM     52  H   SGN d 304     135.784   8.553  72.390  0.00  0.00     0.080 H 
ATOM     53  H   SGN d 304     129.348  14.959  73.701  0.00  0.00     0.231 HD
ATOM     54  O62 IDS d 301     132.490  12.554  84.884  0.00  0.00    -0.646 OA
ATOM     55  O1  IDS d 301     134.572  14.845  88.837  0.00  0.00    -0.368 OA
ATOM     56  C4  IDS d 301     135.324  14.002  84.907  0.00  0.00     0.103 C 
ATOM     57  C5  IDS d 301     134.434  13.349  86.030  0.00  0.00     0.152 C 
ATOM     58  O61 IDS d 301     133.642  11.116  85.826  0.00  0.00    -0.646 OA
ATOM     59  S   IDS d 301     137.837  16.771  88.277  0.00  0.00     0.252 S 
ATOM     60  C3  IDS d 301     135.977  15.323  85.426  0.00  0.00     0.094 C 
ATOM     61  C1  IDS d 301     134.510  15.282  87.508  0.00  0.00     0.158 C 
ATOM     62  C6  IDS d 301     133.460  12.280  85.550  0.00  0.00     0.206 C 
ATOM     63  O5  IDS d 301     133.712  14.395  86.718  0.00  0.00    -0.340 OA
ATOM     64  O4  IDS d 301     135.537  14.069  83.488  0.00  0.00    -0.348 OA
ATOM     65  O3S IDS d 301     137.649  18.062  88.891  0.00  0.00    -0.572 OA
ATOM     66  O1S IDS d 301     137.853  15.705  89.242  0.00  0.00    -0.572 OA
ATOM     67  C2  IDS d 301     135.968  15.371  86.966  0.00  0.00     0.134 C 
ATOM     68  O3  IDS d 301     137.317  15.398  84.965  0.00  0.00    -0.390 OA
ATOM     69  O2  IDS d 301     136.559  16.586  87.390  0.00  0.00    -0.244 OA
ATOM     70  O2S IDS d 301     138.954  16.735  87.370  0.00  0.00    -0.572 OA
ATOM     71  H   IDS d 301     135.117  15.458  89.355  0.00  0.00     0.212 HD
ATOM     72  H   IDS d 301     135.324  12.940  84.779  0.00  0.00     0.092 H 
ATOM     73  H   IDS d 301     135.110  12.835  86.680  0.00  0.00     0.104 H 
ATOM     74  H   IDS d 301     135.410  16.150  85.053  0.00  0.00     0.091 H 
ATOM     75  H   IDS d 301     134.046  16.244  87.455  0.00  0.00     0.133 H 
ATOM     76  H   IDS d 301     136.523  14.540  87.347  0.00  0.00     0.097 H 
ATOM     77  H   IDS d 301     137.820  14.643  85.309  0.00  0.00     0.210 HD
ATOM     78  O1S SGN d 302     140.080  14.582  82.128  0.00  0.00    -0.296 OA
ATOM     79  C2  SGN d 302     136.620  13.099  81.495  0.00  0.00     0.081 C 
ATOM     80  S2  SGN d 302     132.126   9.012  81.784  0.00  0.00     0.251 S 
ATOM     81  N   SGN d 302     137.770  13.993  81.719  0.00  0.00    -0.210 NA
ATOM     82  C4  SGN d 302     134.487  12.707  80.258  0.00  0.00     0.095 C 
ATOM     83  O6  SGN d 302     132.937  10.286  81.379  0.00  0.00    -0.254 OA
ATOM     84  C5  SGN d 302     133.768  12.564  81.638  0.00  0.00     0.091 C 
ATOM     85  O4S SGN d 302     130.784   9.195  81.304  0.00  0.00    -0.572 OA
ATOM     86  O2S SGN d 302     139.269  12.597  83.127  0.00  0.00    -0.296 OA
ATOM     87  S1  SGN d 302     139.276  13.410  81.951  0.00  0.00     0.156 S 
ATOM     88  O5S SGN d 302     132.788   7.925  81.131  0.00  0.00    -0.572 OA
ATOM     89  O6S SGN d 302     132.212   8.944  83.213  0.00  0.00    -0.572 OA
ATOM     90  C6  SGN d 302     132.554  11.617  81.631  0.00  0.00     0.067 C 
ATOM     91  O3  SGN d 302     136.378  13.838  79.232  0.00  0.00    -0.391 OA
ATOM     92  C3  SGN d 302     135.672  13.677  80.451  0.00  0.00     0.083 C 
ATOM     93  O4  SGN d 302     133.794  13.302  79.165  0.00  0.00    -0.348 OA
ATOM     94  O3S SGN d 302     139.602  12.681  80.759  0.00  0.00    -0.296 OA
ATOM     95  C1  SGN d 302     135.875  12.876  82.835  0.00  0.00     0.150 C 
ATOM     96  O5  SGN d 302     134.704  12.076  82.640  0.00  0.00    -0.349 OA
ATOM     97  H   SGN d 302     139.817  15.034  82.945  0.00  0.00     0.231 HD
ATOM     98  H   SGN d 302     136.980  12.161  81.124  0.00  0.00     0.076 H 
ATOM     99  H   SGN d 302     137.546  14.546  82.547  0.00  0.00     0.140 HD
ATOM    100  H   SGN d 302     134.678  11.687  80.000  0.00  0.00     0.091 H 
ATOM    101  H   SGN d 302     133.408  13.545  81.867  0.00  0.00     0.090 H 
ATOM    102  H   SGN d 302     139.043  13.142  83.897  0.00  0.00     0.231 HD
ATOM    103  H   SGN d 302     132.071  11.665  82.584  0.00  0.00     0.080 H 
ATOM    104  H   SGN d 302     131.892  11.929  80.850  0.00  0.00     0.080 H 
ATOM    105  H   SGN d 302     137.119  14.448  79.367  0.00  0.00     0.210 HD
ATOM    106  H   SGN d 302     135.298  14.626  80.771  0.00  0.00     0.089 H 
ATOM    107  H   SGN d 302     139.591  13.283  79.999  0.00  0.00     0.231 HD
ATOM    108  H   SGN d 302     136.563  12.357  83.471  0.00  0.00     0.131 H 
ATOM    109  C1  IDS d 305     133.451   6.934  71.711  0.00  0.00     0.161 C 
ATOM    110  O1S IDS d 305     136.641   5.481  74.615  0.00  0.00    -0.572 OA
ATOM    111  S   IDS d 305     135.224   5.277  74.511  0.00  0.00     0.252 S 
ATOM    112  C4  IDS d 305     132.196   4.451  70.558  0.00  0.00    -0.005 C 
ATOM    113  O61 IDS d 305     129.404   6.125  69.574  0.00  0.00    -0.646 OA
ATOM    114  O3  IDS d 305     133.741   3.166  71.891  0.00  0.00    -0.393 OA
ATOM    115  O62 IDS d 305     131.010   6.339  68.278  0.00  0.00    -0.646 OA
ATOM    116  O2S IDS d 305     134.482   6.256  75.248  0.00  0.00    -0.572 OA
ATOM    117  O2  IDS d 305     134.910   5.488  72.992  0.00  0.00    -0.244 OA
ATOM    118  O5  IDS d 305     132.608   6.874  70.549  0.00  0.00    -0.343 OA
ATOM    119  C5  IDS d 305     131.558   5.880  70.564  0.00  0.00     0.127 C 
ATOM    120  C3  IDS d 305     133.571   4.432  71.284  0.00  0.00     0.069 C 
ATOM    121  C2  IDS d 305     133.641   5.536  72.359  0.00  0.00     0.132 C 
ATOM    122  C6  IDS d 305     130.604   6.130  69.400  0.00  0.00     0.203 C 
ATOM    123  O3S IDS d 305     134.835   3.930  74.807  0.00  0.00    -0.572 OA
ATOM    124  H   IDS d 305     134.394   7.308  71.369  0.00  0.00     0.133 H 
ATOM    125  H   IDS d 305     131.532   3.773  71.053  0.00  0.00     0.041 H 
ATOM    126  H   IDS d 305     132.352   4.160  69.540  0.00  0.00     0.041 H 
ATOM    127  H   IDS d 305     133.697   2.473  71.214  0.00  0.00     0.210 HD
ATOM    128  H   IDS d 305     130.973   5.952  71.457  0.00  0.00     0.100 H 
ATOM    129  H   IDS d 305     134.348   4.613  70.571  0.00  0.00     0.087 H 
ATOM    130  H   IDS d 305     132.862   5.375  73.076  0.00  0.00     0.097 H 
ENDROOT
TORSDOF 39
ENDMDL
MODEL 25
REMARK VINA RESULT:      -5.8      3.783     14.044
REMARK  0 active torsions:
REMARK  status: ('A' for Active; 'I' for Inactive)
REMARK       I    between atoms: C2_2  and  N_68 
REMARK       I    between atoms: C1_3  and  O4_24 
REMARK       I    between atoms: O1S_5  and  S1_58 
REMARK       I    between atoms: O1_6  and  C1_31 
REMARK       I    between atoms: C4_7  and  O4_36 
REMARK       I    between atoms: C1_8  and  O4_37 
REMARK       I    between atoms: O3_9  and  C3_74 
REMARK       I    between atoms: C5_10  and  C6_32 
REMARK       I    between atoms: C2_11  and  N_20 
REMARK       I    between atoms: C6_12  and  C5_53 
REMARK       I    between atoms: S2_14  and  O6_33 
REMARK       I    between atoms: O3S_16  and  S1_51 
REMARK       I    between atoms: S_17  and  O2_44 
REMARK       I    between atoms: N_20  and  S1_58 
REMARK       I    between atoms: O4_24  and  C4_38 
REMARK       I    between atoms: S_25  and  O2_64 
REMARK       I    between atoms: O2S_27  and  S1_51 
REMARK       I    between atoms: C4_28  and  O4_73 
REMARK       I    between atoms: C3_30  and  O3_62 
REMARK       I    between atoms: O6_33  and  C6_63 
REMARK       I    between atoms: O3_35  and  C3_55 
REMARK       I    between atoms: O4_36  and  C1_84 
REMARK       I    between atoms: O4_37  and  C4_54 
REMARK       I    between atoms: C3_39  and  O3_48 
REMARK       I    between atoms: C5_42  and  C6_63 
REMARK       I    between atoms: O2_44  and  C2_61 
REMARK       I    between atoms: O6_45  and  C6_77 
REMARK       I    between atoms: O6_45  and  S2_82 
REMARK       I    between atoms: C5_49  and  C6_76 
REMARK       I    between atoms: S1_51  and  N_68 
REMARK       I    between atoms: S1_51  and  O1S_81 
REMARK       I    between atoms: O2S_52  and  S1_58 
REMARK       I    between atoms: C2_57  and  O2_64 
REMARK       I    between atoms: S1_58  and  O3S_75 
REMARK       I    between atoms: O3_66  and  C3_67 
REMARK       I    between atoms: O2_69  and  C2_79 
REMARK       I    between atoms: O2_69  and  S_72 
REMARK       I    between atoms: C5_70  and  C6_77 
REMARK       I    between atoms: C1_71  and  O4_73 
ROOT
ATOM      1  O2S IDS d 303     140.127   8.166  81.192  0.00  0.00    -0.572 OA
ATOM      2  C6  IDS d 303     135.903  13.713  83.179  0.00  0.00     0.206 C 
ATOM      3  O1S IDS d 303     137.946   7.885  80.259  0.00  0.00    -0.572 OA
ATOM      4  O3S IDS d 303     139.608   9.116  79.044  0.00  0.00    -0.572 OA
ATOM      5  O4  IDS d 303     138.308  11.791  83.489  0.00  0.00    -0.348 OA
ATOM      6  O61 IDS d 303     136.029  14.835  83.628  0.00  0.00    -0.646 OA
ATOM      7  C4  IDS d 303     138.289  12.899  82.576  0.00  0.00     0.103 C 
ATOM      8  C3  IDS d 303     139.137  12.396  81.372  0.00  0.00     0.094 C 
ATOM      9  O62 IDS d 303     135.004  13.025  83.616  0.00  0.00    -0.646 OA
ATOM     10  O3  IDS d 303     139.450  13.510  80.554  0.00  0.00    -0.390 OA
ATOM     11  C5  IDS d 303     136.845  13.186  82.098  0.00  0.00     0.152 C 
ATOM     12  O2  IDS d 303     138.656  10.047  81.066  0.00  0.00    -0.244 OA
ATOM     13  C1  IDS d 303     136.889  11.511  80.340  0.00  0.00     0.161 C 
ATOM     14  S   IDS d 303     139.108   8.728  80.339  0.00  0.00     0.252 S 
ATOM     15  C2  IDS d 303     138.422  11.327  80.500  0.00  0.00     0.134 C 
ATOM     16  O5  IDS d 303     136.295  11.983  81.543  0.00  0.00    -0.340 OA
ATOM     17  H   IDS d 303     138.661  13.800  83.018  0.00  0.00     0.092 H 
ATOM     18  H   IDS d 303     140.009  11.928  81.778  0.00  0.00     0.091 H 
ATOM     19  H   IDS d 303     138.630  13.899  80.211  0.00  0.00     0.210 HD
ATOM     20  H   IDS d 303     136.922  13.968  81.372  0.00  0.00     0.104 H 
ATOM     21  H   IDS d 303     136.434  10.565  80.134  0.00  0.00     0.133 H 
ATOM     22  H   IDS d 303     138.837  11.436  79.520  0.00  0.00     0.097 H 
ATOM     23  C2  SGN d 304     139.502  10.568  85.248  0.00  0.00     0.081 C 
ATOM     24  C1  SGN d 304     139.028  11.940  84.694  0.00  0.00     0.150 C 
ATOM     25  O3  SGN d 304     138.723   8.492  86.208  0.00  0.00    -0.391 OA
ATOM     26  O3S SGN d 304     142.550   8.994  84.371  0.00  0.00    -0.296 OA
ATOM     27  O5S SGN d 304     138.329  14.099  90.124  0.00  0.00    -0.572 OA
ATOM     28  O2S SGN d 304     142.243  11.325  84.841  0.00  0.00    -0.296 OA
ATOM     29  O4S SGN d 304     136.062  13.328  90.147  0.00  0.00    -0.572 OA
ATOM     30  O4  SGN d 304     136.653   9.534  87.331  0.00  0.00    -0.348 OA
ATOM     31  O6  SGN d 304     137.344  13.350  88.100  0.00  0.00    -0.254 OA
ATOM     32  S1  SGN d 304     141.878  10.207  84.008  0.00  0.00     0.156 S 
ATOM     33  C4  SGN d 304     137.554  10.530  86.817  0.00  0.00     0.095 C 
ATOM     34  O6S SGN d 304     136.623  15.406  89.094  0.00  0.00    -0.572 OA
ATOM     35  N   SGN d 304     140.275   9.889  84.195  0.00  0.00    -0.210 NA
ATOM     36  C5  SGN d 304     137.103  11.897  86.206  0.00  0.00     0.091 C 
ATOM     37  C3  SGN d 304     138.282   9.739  85.698  0.00  0.00     0.083 C 
ATOM     38  C6  SGN d 304     136.394  12.842  87.185  0.00  0.00     0.067 C 
ATOM     39  O5  SGN d 304     138.237  12.624  85.666  0.00  0.00    -0.349 OA
ATOM     40  O1S SGN d 304     142.022  10.513  82.612  0.00  0.00    -0.296 OA
ATOM     41  S2  SGN d 304     137.061  14.088  89.448  0.00  0.00     0.251 S 
ATOM     42  H   SGN d 304     140.129  10.694  86.106  0.00  0.00     0.076 H 
ATOM     43  H   SGN d 304     139.900  12.524  84.483  0.00  0.00     0.131 H 
ATOM     44  H   SGN d 304     139.178   7.999  85.507  0.00  0.00     0.210 HD
ATOM     45  H   SGN d 304     142.427   8.828  85.319  0.00  0.00     0.231 HD
ATOM     46  H   SGN d 304     142.134  11.082  85.773  0.00  0.00     0.231 HD
ATOM     47  H   SGN d 304     138.063  10.905  87.680  0.00  0.00     0.091 H 
ATOM     48  H   SGN d 304     139.826  10.116  83.308  0.00  0.00     0.140 HD
ATOM     49  H   SGN d 304     136.402  11.616  85.448  0.00  0.00     0.090 H 
ATOM     50  H   SGN d 304     137.621   9.564  84.876  0.00  0.00     0.089 H 
ATOM     51  H   SGN d 304     135.947  13.651  86.645  0.00  0.00     0.080 H 
ATOM     52  H   SGN d 304     135.630  12.311  87.713  0.00  0.00     0.080 H 
ATOM     53  H   SGN d 304     142.950  10.715  82.419  0.00  0.00     0.231 HD
ATOM     54  O62 IDS d 301     134.174   9.946  74.475  0.00  0.00    -0.646 OA
ATOM     55  O1  IDS d 301     132.566  12.280  70.331  0.00  0.00    -0.368 OA
ATOM     56  C4  IDS d 301     133.463  13.041  74.247  0.00  0.00     0.103 C 
ATOM     57  C5  IDS d 301     133.014  11.765  73.441  0.00  0.00     0.152 C 
ATOM     58  O61 IDS d 301     132.107   9.866  74.550  0.00  0.00    -0.646 OA
ATOM     59  S   IDS d 301     132.199  16.092  70.449  0.00  0.00     0.252 S 
ATOM     60  C3  IDS d 301     133.700  14.244  73.280  0.00  0.00     0.094 C 
ATOM     61  C1  IDS d 301     133.527  12.707  71.255  0.00  0.00     0.158 C 
ATOM     62  C6  IDS d 301     133.110  10.447  74.200  0.00  0.00     0.206 C 
ATOM     63  O5  IDS d 301     133.790  11.686  72.225  0.00  0.00    -0.340 OA
ATOM     64  O4  IDS d 301     134.065  13.485  75.474  0.00  0.00    -0.348 OA
ATOM     65  O3S IDS d 301     132.860  16.594  69.271  0.00  0.00    -0.572 OA
ATOM     66  O1S IDS d 301     131.026  15.323  70.131  0.00  0.00    -0.572 OA
ATOM     67  C2  IDS d 301     132.997  14.009  71.929  0.00  0.00     0.134 C 
ATOM     68  O3  IDS d 301     133.190  15.429  73.870  0.00  0.00    -0.390 OA
ATOM     69  O2  IDS d 301     133.246  15.116  71.083  0.00  0.00    -0.244 OA
ATOM     70  O2S IDS d 301     131.959  17.110  71.439  0.00  0.00    -0.572 OA
ATOM     71  H   IDS d 301     132.403  12.985  69.684  0.00  0.00     0.212 HD
ATOM     72  H   IDS d 301     132.828  12.442  74.865  0.00  0.00     0.092 H 
ATOM     73  H   IDS d 301     131.971  11.894  73.242  0.00  0.00     0.104 H 
ATOM     74  H   IDS d 301     134.752  14.338  73.108  0.00  0.00     0.091 H 
ATOM     75  H   IDS d 301     134.454  12.908  70.761  0.00  0.00     0.133 H 
ATOM     76  H   IDS d 301     131.946  13.901  72.094  0.00  0.00     0.097 H 
ATOM     77  H   IDS d 301     132.237  15.332  74.021  0.00  0.00     0.210 HD
ATOM     78  O1S SGN d 302     132.409  17.622  77.176  0.00  0.00    -0.296 OA
ATOM     79  C2  SGN d 302     133.754  14.112  77.840  0.00  0.00     0.081 C 
ATOM     80  S2  SGN d 302     133.551   8.107  78.779  0.00  0.00     0.251 S 
ATOM     81  N   SGN d 302     133.563  15.510  77.415  0.00  0.00    -0.210 NA
ATOM     82  C4  SGN d 302     135.333  12.393  78.728  0.00  0.00     0.095 C 
ATOM     83  O6  SGN d 302     134.109   9.562  78.657  0.00  0.00    -0.254 OA
ATOM     84  C5  SGN d 302     134.995  11.508  77.485  0.00  0.00     0.091 C 
ATOM     85  O4S SGN d 302     134.682   7.227  78.875  0.00  0.00    -0.572 OA
ATOM     86  O2S SGN d 302     131.098  15.652  77.127  0.00  0.00    -0.296 OA
ATOM     87  S1  SGN d 302     132.193  16.329  77.752  0.00  0.00     0.156 S 
ATOM     88  O5S SGN d 302     132.765   8.107  79.974  0.00  0.00    -0.572 OA
ATOM     89  O6S SGN d 302     132.770   7.898  77.595  0.00  0.00    -0.572 OA
ATOM     90  C6  SGN d 302     135.084   9.993  77.737  0.00  0.00     0.067 C 
ATOM     91  O3  SGN d 302     135.466  14.727  79.393  0.00  0.00    -0.391 OA
ATOM     92  C3  SGN d 302     135.186  13.869  78.300  0.00  0.00     0.083 C 
ATOM     93  O4  SGN d 302     136.651  12.372  79.266  0.00  0.00    -0.348 OA
ATOM     94  O3S SGN d 302     132.097  16.361  79.183  0.00  0.00    -0.296 OA
ATOM     95  C1  SGN d 302     133.397  13.166  76.665  0.00  0.00     0.150 C 
ATOM     96  O5  SGN d 302     133.649  11.801  77.016  0.00  0.00    -0.349 OA
ATOM     97  H   SGN d 302     132.465  17.541  76.211  0.00  0.00     0.231 HD
ATOM     98  H   SGN d 302     133.107  13.912  78.670  0.00  0.00     0.076 H 
ATOM     99  H   SGN d 302     133.659  15.517  76.399  0.00  0.00     0.140 HD
ATOM    100  H   SGN d 302     134.676  11.993  79.471  0.00  0.00     0.091 H 
ATOM    101  H   SGN d 302     135.738  11.757  76.757  0.00  0.00     0.090 H 
ATOM    102  H   SGN d 302     131.218  15.663  76.165  0.00  0.00     0.231 HD
ATOM    103  H   SGN d 302     134.939   9.478  76.810  0.00  0.00     0.080 H 
ATOM    104  H   SGN d 302     136.049   9.778  78.147  0.00  0.00     0.080 H 
ATOM    105  H   SGN d 302     135.370  15.650  79.112  0.00  0.00     0.210 HD
ATOM    106  H   SGN d 302     135.874  14.073  77.507  0.00  0.00     0.089 H 
ATOM    107  H   SGN d 302     132.863  16.830  79.548  0.00  0.00     0.231 HD
ATOM    108  H   SGN d 302     132.352  13.304  76.483  0.00  0.00     0.131 H 
ATOM    109  C1  IDS d 305     136.252   9.625  88.675  0.00  0.00     0.161 C 
ATOM    110  O1S IDS d 305     132.047  10.829  87.415  0.00  0.00    -0.572 OA
ATOM    111  S   IDS d 305     132.789   9.601  87.359  0.00  0.00     0.252 S 
ATOM    112  C4  IDS d 305     135.908   7.370  90.642  0.00  0.00    -0.005 C 
ATOM    113  O61 IDS d 305     139.103   6.292  90.211  0.00  0.00    -0.646 OA
ATOM    114  O3  IDS d 305     133.524   7.626  90.373  0.00  0.00    -0.393 OA
ATOM    115  O62 IDS d 305     138.931   7.909  91.499  0.00  0.00    -0.646 OA
ATOM    116  O2S IDS d 305     133.509   9.460  86.130  0.00  0.00    -0.572 OA
ATOM    117  O2  IDS d 305     133.839   9.727  88.513  0.00  0.00    -0.244 OA
ATOM    118  O5  IDS d 305     137.261   9.113  89.561  0.00  0.00    -0.343 OA
ATOM    119  C5  IDS d 305     137.214   7.696  89.843  0.00  0.00     0.127 C 
ATOM    120  C3  IDS d 305     134.746   8.331  90.260  0.00  0.00     0.069 C 
ATOM    121  C2  IDS d 305     134.913   8.852  88.818  0.00  0.00     0.132 C 
ATOM    122  C6  IDS d 305     138.492   7.277  90.563  0.00  0.00     0.203 C 
ATOM    123  O3S IDS d 305     131.989   8.456  87.683  0.00  0.00    -0.572 OA
ATOM    124  H   IDS d 305     136.112  10.649  88.952  0.00  0.00     0.133 H 
ATOM    125  H   IDS d 305     135.612   6.364  90.426  0.00  0.00     0.041 H 
ATOM    126  H   IDS d 305     136.114   7.494  91.684  0.00  0.00     0.041 H 
ATOM    127  H   IDS d 305     133.421   7.300  91.280  0.00  0.00     0.210 HD
ATOM    128  H   IDS d 305     137.172   7.124  88.940  0.00  0.00     0.100 H 
ATOM    129  H   IDS d 305     134.755   9.173  90.920  0.00  0.00     0.087 H 
ATOM    130  H   IDS d 305     134.917   8.020  88.145  0.00  0.00     0.097 H 
ENDROOT
TORSDOF 39
ENDMDL
MODEL 26
REMARK VINA RESULT:      -5.8      1.784      2.062
REMARK  0 active torsions:
REMARK  status: ('A' for Active; 'I' for Inactive)
REMARK       I    between atoms: C2_2  and  N_68 
REMARK       I    between atoms: C1_3  and  O4_24 
REMARK       I    between atoms: O1S_5  and  S1_58 
REMARK       I    between atoms: O1_6  and  C1_31 
REMARK       I    between atoms: C4_7  and  O4_36 
REMARK       I    between atoms: C1_8  and  O4_37 
REMARK       I    between atoms: O3_9  and  C3_74 
REMARK       I    between atoms: C5_10  and  C6_32 
REMARK       I    between atoms: C2_11  and  N_20 
REMARK       I    between atoms: C6_12  and  C5_53 
REMARK       I    between atoms: S2_14  and  O6_33 
REMARK       I    between atoms: O3S_16  and  S1_51 
REMARK       I    between atoms: S_17  and  O2_44 
REMARK       I    between atoms: N_20  and  S1_58 
REMARK       I    between atoms: O4_24  and  C4_38 
REMARK       I    between atoms: S_25  and  O2_64 
REMARK       I    between atoms: O2S_27  and  S1_51 
REMARK       I    between atoms: C4_28  and  O4_73 
REMARK       I    between atoms: C3_30  and  O3_62 
REMARK       I    between atoms: O6_33  and  C6_63 
REMARK       I    between atoms: O3_35  and  C3_55 
REMARK       I    between atoms: O4_36  and  C1_84 
REMARK       I    between atoms: O4_37  and  C4_54 
REMARK       I    between atoms: C3_39  and  O3_48 
REMARK       I    between atoms: C5_42  and  C6_63 
REMARK       I    between atoms: O2_44  and  C2_61 
REMARK       I    between atoms: O6_45  and  C6_77 
REMARK       I    between atoms: O6_45  and  S2_82 
REMARK       I    between atoms: C5_49  and  C6_76 
REMARK       I    between atoms: S1_51  and  N_68 
REMARK       I    between atoms: S1_51  and  O1S_81 
REMARK       I    between atoms: O2S_52  and  S1_58 
REMARK       I    between atoms: C2_57  and  O2_64 
REMARK       I    between atoms: S1_58  and  O3S_75 
REMARK       I    between atoms: O3_66  and  C3_67 
REMARK       I    between atoms: O2_69  and  C2_79 
REMARK       I    between atoms: O2_69  and  S_72 
REMARK       I    between atoms: C5_70  and  C6_77 
REMARK       I    between atoms: C1_71  and  O4_73 
ROOT
ATOM      1  O2S IDS d 303     129.997   7.837  76.693  0.00  0.00    -0.572 OA
ATOM      2  C6  IDS d 303     135.734  12.100  75.482  0.00  0.00     0.206 C 
ATOM      3  O1S IDS d 303     131.856   7.059  77.975  0.00  0.00    -0.572 OA
ATOM      4  O3S IDS d 303     130.377   8.702  78.904  0.00  0.00    -0.572 OA
ATOM      5  O4  IDS d 303     133.012  10.821  74.759  0.00  0.00    -0.348 OA
ATOM      6  O61 IDS d 303     135.967  13.202  75.027  0.00  0.00    -0.646 OA
ATOM      7  C4  IDS d 303     133.155  11.920  75.671  0.00  0.00     0.103 C 
ATOM      8  C3  IDS d 303     132.023  11.684  76.712  0.00  0.00     0.094 C 
ATOM      9  O62 IDS d 303     136.493  11.197  75.197  0.00  0.00    -0.646 OA
ATOM     10  O3  IDS d 303     131.868  12.868  77.475  0.00  0.00    -0.390 OA
ATOM     11  C5  IDS d 303     134.526  11.859  76.387  0.00  0.00     0.152 C 
ATOM     12  O2  IDS d 303     131.848   9.300  77.077  0.00  0.00    -0.244 OA
ATOM     13  C1  IDS d 303     133.780  10.308  78.100  0.00  0.00     0.161 C 
ATOM     14  S   IDS d 303     130.969   8.159  77.708  0.00  0.00     0.252 S 
ATOM     15  C2  IDS d 303     132.297  10.502  77.684  0.00  0.00     0.134 C 
ATOM     16  O5  IDS d 303     134.661  10.578  77.016  0.00  0.00    -0.340 OA
ATOM     17  H   IDS d 303     133.096  12.869  75.180  0.00  0.00     0.092 H 
ATOM     18  H   IDS d 303     131.141  11.431  76.163  0.00  0.00     0.091 H 
ATOM     19  H   IDS d 303     132.691  13.054  77.953  0.00  0.00     0.210 HD
ATOM     20  H   IDS d 303     134.528  12.661  77.095  0.00  0.00     0.104 H 
ATOM     21  H   IDS d 303     133.945   9.287  78.372  0.00  0.00     0.133 H 
ATOM     22  H   IDS d 303     131.768  10.744  78.581  0.00  0.00     0.097 H 
ATOM     23  C2  SGN d 304     131.856   9.869  72.816  0.00  0.00     0.081 C 
ATOM     24  C1  SGN d 304     132.558  11.101  73.453  0.00  0.00     0.150 C 
ATOM     25  O3  SGN d 304     132.240   7.634  71.985  0.00  0.00    -0.391 OA
ATOM     26  O3S SGN d 304     128.411   9.127  73.158  0.00  0.00    -0.296 OA
ATOM     27  O5S SGN d 304     134.653  12.833  68.232  0.00  0.00    -0.572 OA
ATOM     28  O2S SGN d 304     129.361  11.292  72.765  0.00  0.00    -0.296 OA
ATOM     29  O4S SGN d 304     136.629  11.526  68.583  0.00  0.00    -0.572 OA
ATOM     30  O4  SGN d 304     134.660   8.095  71.232  0.00  0.00    -0.348 OA
ATOM     31  O6  SGN d 304     135.076  11.935  70.387  0.00  0.00    -0.254 OA
ATOM     32  S1  SGN d 304     129.295  10.148  73.639  0.00  0.00     0.156 S 
ATOM     33  C4  SGN d 304     133.963   9.298  71.595  0.00  0.00     0.095 C 
ATOM     34  O6S SGN d 304     136.438  13.713  69.543  0.00  0.00    -0.572 OA
ATOM     35  N   SGN d 304     130.776   9.438  73.720  0.00  0.00    -0.210 NA
ATOM     36  C5  SGN d 304     134.634  10.532  72.284  0.00  0.00     0.091 C 
ATOM     37  C3  SGN d 304     132.888   8.750  72.570  0.00  0.00     0.083 C 
ATOM     38  C6  SGN d 304     135.706  11.240  71.444  0.00  0.00     0.067 C 
ATOM     39  O5  SGN d 304     133.643  11.535  72.632  0.00  0.00    -0.349 OA
ATOM     40  O1S SGN d 304     129.005  10.528  74.993  0.00  0.00    -0.296 OA
ATOM     41  S2  SGN d 304     135.750  12.533  69.111  0.00  0.00     0.251 S 
ATOM     42  H   SGN d 304     131.429  10.117  71.867  0.00  0.00     0.076 H 
ATOM     43  H   SGN d 304     131.836  11.888  73.519  0.00  0.00     0.131 H 
ATOM     44  H   SGN d 304     131.569   7.293  72.596  0.00  0.00     0.210 HD
ATOM     45  H   SGN d 304     128.643   8.902  72.244  0.00  0.00     0.231 HD
ATOM     46  H   SGN d 304     129.558  10.998  71.862  0.00  0.00     0.231 HD
ATOM     47  H   SGN d 304     133.712   9.758  70.662  0.00  0.00     0.091 H 
ATOM     48  H   SGN d 304     131.116   9.579  74.672  0.00  0.00     0.140 HD
ATOM     49  H   SGN d 304     135.109  10.114  73.146  0.00  0.00     0.090 H 
ATOM     50  H   SGN d 304     133.341   8.446  73.491  0.00  0.00     0.089 H 
ATOM     51  H   SGN d 304     136.245  11.932  72.058  0.00  0.00     0.080 H 
ATOM     52  H   SGN d 304     136.390  10.519  71.047  0.00  0.00     0.080 H 
ATOM     53  H   SGN d 304     128.137  10.959  75.030  0.00  0.00     0.231 HD
ATOM     54  O62 IDS d 301     135.021   8.325  84.324  0.00  0.00    -0.646 OA
ATOM     55  O1  IDS d 301     136.456  10.332  88.697  0.00  0.00    -0.368 OA
ATOM     56  C4  IDS d 301     136.432  11.155  84.691  0.00  0.00     0.103 C 
ATOM     57  C5  IDS d 301     136.411   9.836  85.552  0.00  0.00     0.152 C 
ATOM     58  O61 IDS d 301     136.986   7.736  84.596  0.00  0.00    -0.646 OA
ATOM     59  S   IDS d 301     137.774  13.930  88.670  0.00  0.00     0.252 S 
ATOM     60  C3  IDS d 301     136.346  12.412  85.614  0.00  0.00     0.094 C 
ATOM     61  C1  IDS d 301     135.797  10.951  87.628  0.00  0.00     0.158 C 
ATOM     62  C6  IDS d 301     136.116   8.557  84.778  0.00  0.00     0.206 C 
ATOM     63  O5  IDS d 301     135.451   9.993  86.620  0.00  0.00    -0.340 OA
ATOM     64  O4  IDS d 301     136.169  11.691  83.385  0.00  0.00    -0.348 OA
ATOM     65  O3S IDS d 301     137.075  14.620  89.725  0.00  0.00    -0.572 OA
ATOM     66  O1S IDS d 301     138.650  12.907  89.175  0.00  0.00    -0.572 OA
ATOM     67  C2  IDS d 301     136.737  12.058  87.062  0.00  0.00     0.134 C 
ATOM     68  O3  IDS d 301     137.225  13.414  85.127  0.00  0.00    -0.390 OA
ATOM     69  O2  IDS d 301     136.636  13.221  87.862  0.00  0.00    -0.244 OA
ATOM     70  O2S IDS d 301     138.418  14.823  87.742  0.00  0.00    -0.572 OA
ATOM     71  H   IDS d 301     136.681  10.997  89.367  0.00  0.00     0.212 HD
ATOM     72  H   IDS d 301     136.990  10.397  84.184  0.00  0.00     0.092 H 
ATOM     73  H   IDS d 301     137.406   9.711  85.923  0.00  0.00     0.104 H 
ATOM     74  H   IDS d 301     135.337  12.768  85.608  0.00  0.00     0.091 H 
ATOM     75  H   IDS d 301     134.880  11.391  87.961  0.00  0.00     0.133 H 
ATOM     76  H   IDS d 301     137.740  11.689  87.075  0.00  0.00     0.097 H 
ATOM     77  H   IDS d 301     138.135  13.080  85.137  0.00  0.00     0.210 HD
ATOM     78  O1S SGN d 302     139.058  15.232  82.015  0.00  0.00    -0.296 OA
ATOM     79  C2  SGN d 302     137.009  12.141  81.109  0.00  0.00     0.081 C 
ATOM     80  S2  SGN d 302     135.864   6.242  80.172  0.00  0.00     0.251 S 
ATOM     81  N   SGN d 302     137.469  13.462  81.570  0.00  0.00    -0.210 NA
ATOM     82  C4  SGN d 302     135.220  10.835  79.956  0.00  0.00     0.095 C 
ATOM     83  O6  SGN d 302     135.673   7.793  80.210  0.00  0.00    -0.254 OA
ATOM     84  C5  SGN d 302     135.119   9.937  81.231  0.00  0.00     0.091 C 
ATOM     85  O4S SGN d 302     134.581   5.665  79.881  0.00  0.00    -0.572 OA
ATOM     86  O2S SGN d 302     139.811  13.003  82.267  0.00  0.00    -0.296 OA
ATOM     87  S1  SGN d 302     139.037  13.906  81.473  0.00  0.00     0.156 S 
ATOM     88  O5S SGN d 302     136.810   6.008  79.125  0.00  0.00    -0.572 OA
ATOM     89  O6S SGN d 302     136.363   5.888  81.468  0.00  0.00    -0.572 OA
ATOM     90  C6  SGN d 302     134.698   8.482  80.957  0.00  0.00     0.067 C 
ATOM     91  O3  SGN d 302     135.783  13.105  79.296  0.00  0.00    -0.391 OA
ATOM     92  C3  SGN d 302     135.658  12.243  80.414  0.00  0.00     0.083 C 
ATOM     93  O4  SGN d 302     134.045  11.120  79.204  0.00  0.00    -0.348 OA
ATOM     94  O3S SGN d 302     139.371  13.865  80.079  0.00  0.00    -0.296 OA
ATOM     95  C1  SGN d 302     136.922  11.177  82.320  0.00  0.00     0.150 C 
ATOM     96  O5  SGN d 302     136.400   9.904  81.921  0.00  0.00    -0.349 OA
ATOM     97  H   SGN d 302     138.825  15.200  82.956  0.00  0.00     0.231 HD
ATOM     98  H   SGN d 302     137.713  11.759  80.398  0.00  0.00     0.076 H 
ATOM     99  H   SGN d 302     137.213  13.528  82.556  0.00  0.00     0.140 HD
ATOM    100  H   SGN d 302     135.870  10.259  79.330  0.00  0.00     0.091 H 
ATOM    101  H   SGN d 302     134.352  10.386  81.826  0.00  0.00     0.090 H 
ATOM    102  H   SGN d 302     139.541  13.076  83.197  0.00  0.00     0.231 HD
ATOM    103  H   SGN d 302     134.557   7.980  81.891  0.00  0.00     0.080 H 
ATOM    104  H   SGN d 302     133.791   8.498  80.389  0.00  0.00     0.080 H 
ATOM    105  H   SGN d 302     136.058  13.985  79.596  0.00  0.00     0.210 HD
ATOM    106  H   SGN d 302     134.921  12.636  81.082  0.00  0.00     0.089 H 
ATOM    107  H   SGN d 302     138.816  14.495  79.595  0.00  0.00     0.231 HD
ATOM    108  H   SGN d 302     137.924  11.060  82.675  0.00  0.00     0.131 H 
ATOM    109  C1  IDS d 305     135.286   8.037  69.974  0.00  0.00     0.161 C 
ATOM    110  O1S IDS d 305     139.393   8.211  71.930  0.00  0.00    -0.572 OA
ATOM    111  S   IDS d 305     138.370   7.206  71.852  0.00  0.00     0.252 S 
ATOM    112  C4  IDS d 305     135.376   5.701  68.076  0.00  0.00    -0.005 C 
ATOM    113  O61 IDS d 305     131.987   5.459  67.958  0.00  0.00    -0.646 OA
ATOM    114  O3  IDS d 305     137.671   5.371  68.743  0.00  0.00    -0.393 OA
ATOM    115  O62 IDS d 305     132.765   6.938  66.729  0.00  0.00    -0.646 OA
ATOM    116  O2S IDS d 305     137.446   7.289  72.942  0.00  0.00    -0.572 OA
ATOM    117  O2  IDS d 305     137.588   7.548  70.539  0.00  0.00    -0.244 OA
ATOM    118  O5  IDS d 305     134.340   7.760  68.929  0.00  0.00    -0.343 OA
ATOM    119  C5  IDS d 305     134.080   6.366  68.647  0.00  0.00     0.127 C 
ATOM    120  C3  IDS d 305     136.662   6.359  68.654  0.00  0.00     0.069 C 
ATOM    121  C2  IDS d 305     136.395   6.954  70.052  0.00  0.00     0.132 C 
ATOM    122  C6  IDS d 305     132.873   6.251  67.721  0.00  0.00     0.203 C 
ATOM    123  O3S IDS d 305     138.902   5.889  71.658  0.00  0.00    -0.572 OA
ATOM    124  H   IDS d 305     135.719   8.986  69.733  0.00  0.00     0.133 H 
ATOM    125  H   IDS d 305     135.374   4.661  68.331  0.00  0.00     0.041 H 
ATOM    126  H   IDS d 305     135.381   5.836  67.015  0.00  0.00     0.041 H 
ATOM    127  H   IDS d 305     137.837   4.998  67.863  0.00  0.00     0.210 HD
ATOM    128  H   IDS d 305     133.829   5.833  69.541  0.00  0.00     0.100 H 
ATOM    129  H   IDS d 305     136.971   7.153  68.008  0.00  0.00     0.087 H 
ATOM    130  H   IDS d 305     136.074   6.172  70.709  0.00  0.00     0.097 H 
ENDROOT
TORSDOF 39
ENDMDL
MODEL 27
REMARK VINA RESULT:      -5.7      3.404     13.809
REMARK  0 active torsions:
REMARK  status: ('A' for Active; 'I' for Inactive)
REMARK       I    between atoms: C2_2  and  N_68 
REMARK       I    between atoms: C1_3  and  O4_24 
REMARK       I    between atoms: O1S_5  and  S1_58 
REMARK       I    between atoms: O1_6  and  C1_31 
REMARK       I    between atoms: C4_7  and  O4_36 
REMARK       I    between atoms: C1_8  and  O4_37 
REMARK       I    between atoms: O3_9  and  C3_74 
REMARK       I    between atoms: C5_10  and  C6_32 
REMARK       I    between atoms: C2_11  and  N_20 
REMARK       I    between atoms: C6_12  and  C5_53 
REMARK       I    between atoms: S2_14  and  O6_33 
REMARK       I    between atoms: O3S_16  and  S1_51 
REMARK       I    between atoms: S_17  and  O2_44 
REMARK       I    between atoms: N_20  and  S1_58 
REMARK       I    between atoms: O4_24  and  C4_38 
REMARK       I    between atoms: S_25  and  O2_64 
REMARK       I    between atoms: O2S_27  and  S1_51 
REMARK       I    between atoms: C4_28  and  O4_73 
REMARK       I    between atoms: C3_30  and  O3_62 
REMARK       I    between atoms: O6_33  and  C6_63 
REMARK       I    between atoms: O3_35  and  C3_55 
REMARK       I    between atoms: O4_36  and  C1_84 
REMARK       I    between atoms: O4_37  and  C4_54 
REMARK       I    between atoms: C3_39  and  O3_48 
REMARK       I    between atoms: C5_42  and  C6_63 
REMARK       I    between atoms: O2_44  and  C2_61 
REMARK       I    between atoms: O6_45  and  C6_77 
REMARK       I    between atoms: O6_45  and  S2_82 
REMARK       I    between atoms: C5_49  and  C6_76 
REMARK       I    between atoms: S1_51  and  N_68 
REMARK       I    between atoms: S1_51  and  O1S_81 
REMARK       I    between atoms: O2S_52  and  S1_58 
REMARK       I    between atoms: C2_57  and  O2_64 
REMARK       I    between atoms: S1_58  and  O3S_75 
REMARK       I    between atoms: O3_66  and  C3_67 
REMARK       I    between atoms: O2_69  and  C2_79 
REMARK       I    between atoms: O2_69  and  S_72 
REMARK       I    between atoms: C5_70  and  C6_77 
REMARK       I    between atoms: C1_71  and  O4_73 
ROOT
ATOM      1  O2S IDS d 303     129.296  12.567  80.421  0.00  0.00    -0.572 OA
ATOM      2  C6  IDS d 303     135.717   9.786  78.524  0.00  0.00     0.206 C 
ATOM      3  O1S IDS d 303     130.357  14.011  78.841  0.00  0.00    -0.572 OA
ATOM      4  O3S IDS d 303     128.951  12.230  78.065  0.00  0.00    -0.572 OA
ATOM      5  O4  IDS d 303     133.295  10.172  80.410  0.00  0.00    -0.348 OA
ATOM      6  O61 IDS d 303     136.295   8.720  78.576  0.00  0.00    -0.646 OA
ATOM      7  C4  IDS d 303     133.272   9.324  79.252  0.00  0.00     0.103 C 
ATOM      8  C3  IDS d 303     131.806   9.439  78.742  0.00  0.00     0.094 C 
ATOM      9  O62 IDS d 303     136.354  10.790  78.764  0.00  0.00    -0.646 OA
ATOM     10  O3  IDS d 303     131.584   8.408  77.796  0.00  0.00    -0.390 OA
ATOM     11  C5  IDS d 303     134.234   9.862  78.164  0.00  0.00     0.152 C 
ATOM     12  O2  IDS d 303     131.087  11.722  79.082  0.00  0.00    -0.244 OA
ATOM     13  C1  IDS d 303     132.629  11.443  77.255  0.00  0.00     0.161 C 
ATOM     14  S   IDS d 303     129.848  12.689  79.094  0.00  0.00     0.252 S 
ATOM     15  C2  IDS d 303     131.477  10.803  78.074  0.00  0.00     0.134 C 
ATOM     16  O5  IDS d 303     133.890  11.225  77.878  0.00  0.00    -0.340 OA
ATOM     17  H   IDS d 303     133.574   8.321  79.473  0.00  0.00     0.092 H 
ATOM     18  H   IDS d 303     131.170   9.355  79.598  0.00  0.00     0.091 H 
ATOM     19  H   IDS d 303     132.182   8.527  77.041  0.00  0.00     0.210 HD
ATOM     20  H   IDS d 303     134.107   9.225  77.314  0.00  0.00     0.104 H 
ATOM     21  H   IDS d 303     132.496  12.503  77.217  0.00  0.00     0.133 H 
ATOM     22  H   IDS d 303     130.697  10.594  77.372  0.00  0.00     0.097 H 
ATOM     23  C2  SGN d 304     132.818  10.437  82.802  0.00  0.00     0.081 C 
ATOM     24  C1  SGN d 304     133.430   9.560  81.675  0.00  0.00     0.150 C 
ATOM     25  O3  SGN d 304     133.089  12.513  84.005  0.00  0.00    -0.391 OA
ATOM     26  O3S SGN d 304     129.429  10.312  83.822  0.00  0.00    -0.296 OA
ATOM     27  O5S SGN d 304     137.626   7.540  85.275  0.00  0.00    -0.572 OA
ATOM     28  O2S SGN d 304     130.824   8.431  83.307  0.00  0.00    -0.296 OA
ATOM     29  O4S SGN d 304     139.055   9.354  84.639  0.00  0.00    -0.572 OA
ATOM     30  O4  SGN d 304     135.653  12.569  83.769  0.00  0.00    -0.348 OA
ATOM     31  O6  SGN d 304     137.030   8.881  83.410  0.00  0.00    -0.254 OA
ATOM     32  S1  SGN d 304     130.229   9.654  82.831  0.00  0.00     0.156 S 
ATOM     33  C4  SGN d 304     135.095  11.309  83.360  0.00  0.00     0.095 C 
ATOM     34  O6S SGN d 304     138.902   7.395  83.268  0.00  0.00    -0.572 OA
ATOM     35  N   SGN d 304     131.418  10.725  82.449  0.00  0.00    -0.210 NA
ATOM     36  C5  SGN d 304     135.659  10.431  82.195  0.00  0.00     0.091 C 
ATOM     37  C3  SGN d 304     133.651  11.724  82.972  0.00  0.00     0.083 C 
ATOM     38  C6  SGN d 304     137.077   9.889  82.421  0.00  0.00     0.067 C 
ATOM     39  O5  SGN d 304     134.805   9.284  81.949  0.00  0.00    -0.349 OA
ATOM     40  O1S SGN d 304     129.517   9.456  81.599  0.00  0.00    -0.296 OA
ATOM     41  S2  SGN d 304     138.233   8.263  84.192  0.00  0.00     0.251 S 
ATOM     42  H   SGN d 304     132.836   9.925  83.741  0.00  0.00     0.076 H 
ATOM     43  H   SGN d 304     132.889   8.637  81.650  0.00  0.00     0.131 H 
ATOM     44  H   SGN d 304     132.186  12.772  83.760  0.00  0.00     0.210 HD
ATOM     45  H   SGN d 304     129.948  10.425  84.633  0.00  0.00     0.231 HD
ATOM     46  H   SGN d 304     131.294   8.604  84.138  0.00  0.00     0.231 HD
ATOM     47  H   SGN d 304     135.303  10.645  84.172  0.00  0.00     0.091 H 
ATOM     48  H   SGN d 304     131.388  10.847  81.437  0.00  0.00     0.140 HD
ATOM     49  H   SGN d 304     135.688  11.102  81.363  0.00  0.00     0.090 H 
ATOM     50  H   SGN d 304     133.657  12.290  82.065  0.00  0.00     0.089 H 
ATOM     51  H   SGN d 304     137.454   9.478  81.508  0.00  0.00     0.080 H 
ATOM     52  H   SGN d 304     137.721  10.681  82.741  0.00  0.00     0.080 H 
ATOM     53  H   SGN d 304     128.791   8.829  81.742  0.00  0.00     0.231 HD
ATOM     54  O62 IDS d 301     131.036  14.738  71.705  0.00  0.00    -0.646 OA
ATOM     55  O1  IDS d 301     131.028  13.969  66.743  0.00  0.00    -0.368 OA
ATOM     56  C4  IDS d 301     132.676  12.479  70.176  0.00  0.00     0.103 C 
ATOM     57  C5  IDS d 301     132.097  13.877  69.741  0.00  0.00     0.152 C 
ATOM     58  O61 IDS d 301     132.612  15.854  70.960  0.00  0.00    -0.646 OA
ATOM     59  S   IDS d 301     132.870  10.887  65.404  0.00  0.00     0.252 S 
ATOM     60  C3  IDS d 301     132.469  11.425  69.043  0.00  0.00     0.094 C 
ATOM     61  C1  IDS d 301     130.946  13.024  67.772  0.00  0.00     0.158 C 
ATOM     62  C6  IDS d 301     131.898  14.880  70.871  0.00  0.00     0.206 C 
ATOM     63  O5  IDS d 301     130.847  13.668  69.048  0.00  0.00    -0.340 OA
ATOM     64  O4  IDS d 301     133.030  11.672  71.311  0.00  0.00    -0.348 OA
ATOM     65  O3S IDS d 301     131.955  10.236  64.500  0.00  0.00    -0.572 OA
ATOM     66  O1S IDS d 301     133.292  12.174  64.920  0.00  0.00    -0.572 OA
ATOM     67  C2  IDS d 301     132.210  12.116  67.690  0.00  0.00     0.134 C 
ATOM     68  O3  IDS d 301     133.629  10.614  68.936  0.00  0.00    -0.390 OA
ATOM     69  O2  IDS d 301     132.019  11.125  66.697  0.00  0.00    -0.244 OA
ATOM     70  O2S IDS d 301     133.965  10.043  65.804  0.00  0.00    -0.572 OA
ATOM     71  H   IDS d 301     131.095  13.513  65.889  0.00  0.00     0.212 HD
ATOM     72  H   IDS d 301     133.243  13.254  70.647  0.00  0.00     0.092 H 
ATOM     73  H   IDS d 301     132.837  14.319  69.107  0.00  0.00     0.104 H 
ATOM     74  H   IDS d 301     131.618  10.824  69.290  0.00  0.00     0.091 H 
ATOM     75  H   IDS d 301     130.065  12.427  67.660  0.00  0.00     0.133 H 
ATOM     76  H   IDS d 301     133.051  12.728  67.442  0.00  0.00     0.097 H 
ATOM     77  H   IDS d 301     134.392  11.169  68.712  0.00  0.00     0.210 HD
ATOM     78  O1S SGN d 302     136.799   8.815  70.687  0.00  0.00    -0.296 OA
ATOM     79  C2  SGN d 302     134.739  11.064  72.983  0.00  0.00     0.081 C 
ATOM     80  S2  SGN d 302     133.014  16.207  75.732  0.00  0.00     0.251 S 
ATOM     81  N   SGN d 302     135.214  10.008  72.072  0.00  0.00    -0.210 NA
ATOM     82  C4  SGN d 302     133.323  11.640  74.958  0.00  0.00     0.095 C 
ATOM     83  O6  SGN d 302     133.101  14.691  75.361  0.00  0.00    -0.254 OA
ATOM     84  C5  SGN d 302     132.587  12.691  74.065  0.00  0.00     0.091 C 
ATOM     85  O4S SGN d 302     131.858  16.373  76.569  0.00  0.00    -0.572 OA
ATOM     86  O2S SGN d 302     136.993  11.172  70.783  0.00  0.00    -0.296 OA
ATOM     87  S1  SGN d 302     136.752   9.974  71.527  0.00  0.00     0.156 S 
ATOM     88  O5S SGN d 302     134.230  16.491  76.430  0.00  0.00    -0.572 OA
ATOM     89  O6S SGN d 302     132.911  16.900  74.481  0.00  0.00    -0.572 OA
ATOM     90  C6  SGN d 302     132.053  13.916  74.828  0.00  0.00     0.067 C 
ATOM     91  O3  SGN d 302     134.486   9.513  74.787  0.00  0.00    -0.391 OA
ATOM     92  C3  SGN d 302     133.795  10.496  74.035  0.00  0.00     0.083 C 
ATOM     93  O4  SGN d 302     132.593  10.933  75.956  0.00  0.00    -0.348 OA
ATOM     94  O3S SGN d 302     137.579   9.856  72.693  0.00  0.00    -0.296 OA
ATOM     95  C1  SGN d 302     134.028  12.169  72.161  0.00  0.00     0.150 C 
ATOM     96  O5  SGN d 302     133.481  13.173  73.023  0.00  0.00    -0.349 OA
ATOM     97  H   SGN d 302     136.223   8.950  69.918  0.00  0.00     0.231 HD
ATOM     98  H   SGN d 302     135.581  11.483  73.494  0.00  0.00     0.076 H 
ATOM     99  H   SGN d 302     134.618  10.052  71.245  0.00  0.00     0.140 HD
ATOM    100  H   SGN d 302     134.049  12.245  75.460  0.00  0.00     0.091 H 
ATOM    101  H   SGN d 302     131.744  12.171  73.663  0.00  0.00     0.090 H 
ATOM    102  H   SGN d 302     136.407  11.196  70.010  0.00  0.00     0.231 HD
ATOM    103  H   SGN d 302     131.480  14.520  74.156  0.00  0.00     0.080 H 
ATOM    104  H   SGN d 302     131.449  13.567  75.639  0.00  0.00     0.080 H 
ATOM    105  H   SGN d 302     134.777   8.800  74.197  0.00  0.00     0.210 HD
ATOM    106  H   SGN d 302     132.941  10.049  73.570  0.00  0.00     0.089 H 
ATOM    107  H   SGN d 302     137.371   9.029  73.154  0.00  0.00     0.231 HD
ATOM    108  H   SGN d 302     134.782  12.602  71.537  0.00  0.00     0.131 H 
ATOM    109  C1  IDS d 305     136.689  12.565  84.719  0.00  0.00     0.161 C 
ATOM    110  O1S IDS d 305     139.703  13.804  81.540  0.00  0.00    -0.572 OA
ATOM    111  S   IDS d 305     138.628  14.481  82.208  0.00  0.00     0.252 S 
ATOM    112  C4  IDS d 305     137.082  14.475  87.014  0.00  0.00    -0.005 C 
ATOM    113  O61 IDS d 305     134.008  13.809  88.305  0.00  0.00    -0.646 OA
ATOM    114  O3  IDS d 305     138.853  15.498  85.735  0.00  0.00    -0.393 OA
ATOM    115  O62 IDS d 305     135.443  12.389  88.782  0.00  0.00    -0.646 OA
ATOM    116  O2S IDS d 305     137.388  14.354  81.503  0.00  0.00    -0.572 OA
ATOM    117  O2  IDS d 305     138.478  13.724  83.571  0.00  0.00    -0.244 OA
ATOM    118  O5  IDS d 305     136.180  12.401  86.053  0.00  0.00    -0.343 OA
ATOM    119  C5  IDS d 305     135.805  13.609  86.753  0.00  0.00     0.127 C 
ATOM    120  C3  IDS d 305     138.145  14.284  85.895  0.00  0.00     0.069 C 
ATOM    121  C2  IDS d 305     137.475  13.895  84.561  0.00  0.00     0.132 C 
ATOM    122  C6  IDS d 305     135.042  13.244  88.023  0.00  0.00     0.203 C 
ATOM    123  O3S IDS d 305     138.951  15.835  82.548  0.00  0.00    -0.572 OA
ATOM    124  H   IDS d 305     137.342  11.734  84.551  0.00  0.00     0.133 H 
ATOM    125  H   IDS d 305     136.799  15.507  87.051  0.00  0.00     0.041 H 
ATOM    126  H   IDS d 305     137.514  14.162  87.941  0.00  0.00     0.041 H 
ATOM    127  H   IDS d 305     139.273  15.741  86.575  0.00  0.00     0.210 HD
ATOM    128  H   IDS d 305     135.143  14.207  86.162  0.00  0.00     0.100 H 
ATOM    129  H   IDS d 305     138.812  13.496  86.174  0.00  0.00     0.087 H 
ATOM    130  H   IDS d 305     136.796  14.670  84.272  0.00  0.00     0.097 H 
ENDROOT
TORSDOF 39
ENDMDL
MODEL 28
REMARK VINA RESULT:      -5.7      4.115     13.146
REMARK  0 active torsions:
REMARK  status: ('A' for Active; 'I' for Inactive)
REMARK       I    between atoms: C2_2  and  N_68 
REMARK       I    between atoms: C1_3  and  O4_24 
REMARK       I    between atoms: O1S_5  and  S1_58 
REMARK       I    between atoms: O1_6  and  C1_31 
REMARK       I    between atoms: C4_7  and  O4_36 
REMARK       I    between atoms: C1_8  and  O4_37 
REMARK       I    between atoms: O3_9  and  C3_74 
REMARK       I    between atoms: C5_10  and  C6_32 
REMARK       I    between atoms: C2_11  and  N_20 
REMARK       I    between atoms: C6_12  and  C5_53 
REMARK       I    between atoms: S2_14  and  O6_33 
REMARK       I    between atoms: O3S_16  and  S1_51 
REMARK       I    between atoms: S_17  and  O2_44 
REMARK       I    between atoms: N_20  and  S1_58 
REMARK       I    between atoms: O4_24  and  C4_38 
REMARK       I    between atoms: S_25  and  O2_64 
REMARK       I    between atoms: O2S_27  and  S1_51 
REMARK       I    between atoms: C4_28  and  O4_73 
REMARK       I    between atoms: C3_30  and  O3_62 
REMARK       I    between atoms: O6_33  and  C6_63 
REMARK       I    between atoms: O3_35  and  C3_55 
REMARK       I    between atoms: O4_36  and  C1_84 
REMARK       I    between atoms: O4_37  and  C4_54 
REMARK       I    between atoms: C3_39  and  O3_48 
REMARK       I    between atoms: C5_42  and  C6_63 
REMARK       I    between atoms: O2_44  and  C2_61 
REMARK       I    between atoms: O6_45  and  C6_77 
REMARK       I    between atoms: O6_45  and  S2_82 
REMARK       I    between atoms: C5_49  and  C6_76 
REMARK       I    between atoms: S1_51  and  N_68 
REMARK       I    between atoms: S1_51  and  O1S_81 
REMARK       I    between atoms: O2S_52  and  S1_58 
REMARK       I    between atoms: C2_57  and  O2_64 
REMARK       I    between atoms: S1_58  and  O3S_75 
REMARK       I    between atoms: O3_66  and  C3_67 
REMARK       I    between atoms: O2_69  and  C2_79 
REMARK       I    between atoms: O2_69  and  S_72 
REMARK       I    between atoms: C5_70  and  C6_77 
REMARK       I    between atoms: C1_71  and  O4_73 
ROOT
ATOM      1  O2S IDS d 303     131.006  11.629  83.434  0.00  0.00    -0.572 OA
ATOM      2  C6  IDS d 303     135.859   8.398  79.125  0.00  0.00     0.206 C 
ATOM      3  O1S IDS d 303     132.107  13.273  82.095  0.00  0.00    -0.572 OA
ATOM      4  O3S IDS d 303     130.125  12.202  81.271  0.00  0.00    -0.572 OA
ATOM      5  O4  IDS d 303     134.068   8.607  81.639  0.00  0.00    -0.348 OA
ATOM      6  O61 IDS d 303     136.106   7.283  78.712  0.00  0.00    -0.646 OA
ATOM      7  C4  IDS d 303     133.576   8.234  80.342  0.00  0.00     0.103 C 
ATOM      8  C3  IDS d 303     132.135   8.819  80.314  0.00  0.00     0.094 C 
ATOM      9  O62 IDS d 303     136.792   9.102  79.451  0.00  0.00    -0.646 OA
ATOM     10  O3  IDS d 303     131.446   8.246  79.216  0.00  0.00    -0.390 OA
ATOM     11  C5  IDS d 303     134.419   8.900  79.228  0.00  0.00     0.152 C 
ATOM     12  O2  IDS d 303     132.182  10.942  81.469  0.00  0.00    -0.244 OA
ATOM     13  C1  IDS d 303     133.191  10.994  79.284  0.00  0.00     0.161 C 
ATOM     14  S   IDS d 303     131.300  12.082  82.097  0.00  0.00     0.252 S 
ATOM     15  C2  IDS d 303     132.086  10.366  80.176  0.00  0.00     0.134 C 
ATOM     16  O5  IDS d 303     134.432  10.317  79.444  0.00  0.00    -0.340 OA
ATOM     17  H   IDS d 303     133.615   7.176  80.179  0.00  0.00     0.092 H 
ATOM     18  H   IDS d 303     131.682   8.580  81.253  0.00  0.00     0.091 H 
ATOM     19  H   IDS d 303     131.893   8.491  78.391  0.00  0.00     0.210 HD
ATOM     20  H   IDS d 303     133.952   8.635  78.303  0.00  0.00     0.104 H 
ATOM     21  H   IDS d 303     133.362  12.006  79.584  0.00  0.00     0.133 H 
ATOM     22  H   IDS d 303     131.158  10.579  79.689  0.00  0.00     0.097 H 
ATOM     23  C2  SGN d 304     134.164   8.126  84.042  0.00  0.00     0.081 C 
ATOM     24  C1  SGN d 304     134.267   7.583  82.590  0.00  0.00     0.150 C 
ATOM     25  O3  SGN d 304     135.250   9.557  85.657  0.00  0.00    -0.391 OA
ATOM     26  O3S SGN d 304     131.151   8.367  85.885  0.00  0.00    -0.296 OA
ATOM     27  O5S SGN d 304     138.327   3.622  84.162  0.00  0.00    -0.572 OA
ATOM     28  O2S SGN d 304     131.818   6.531  84.496  0.00  0.00    -0.296 OA
ATOM     29  O4S SGN d 304     140.063   5.204  83.692  0.00  0.00    -0.572 OA
ATOM     30  O4  SGN d 304     137.624   9.156  84.744  0.00  0.00    -0.348 OA
ATOM     31  O6  SGN d 304     137.787   5.615  82.992  0.00  0.00    -0.254 OA
ATOM     32  S1  SGN d 304     131.518   7.939  84.568  0.00  0.00     0.156 S 
ATOM     33  C4  SGN d 304     136.659   8.259  84.168  0.00  0.00     0.095 C 
ATOM     34  O6S SGN d 304     139.089   3.914  81.923  0.00  0.00    -0.572 OA
ATOM     35  N   SGN d 304     132.865   8.803  84.189  0.00  0.00    -0.210 NA
ATOM     36  C5  SGN d 304     136.708   7.738  82.694  0.00  0.00     0.091 C 
ATOM     37  C3  SGN d 304     135.348   9.073  84.329  0.00  0.00     0.083 C 
ATOM     38  C6  SGN d 304     137.927   6.868  82.355  0.00  0.00     0.067 C 
ATOM     39  O5  SGN d 304     135.530   6.950  82.382  0.00  0.00    -0.349 OA
ATOM     40  O1S SGN d 304     130.553   8.329  83.578  0.00  0.00    -0.296 OA
ATOM     41  S2  SGN d 304     138.891   4.530  83.202  0.00  0.00     0.251 S 
ATOM     42  H   SGN d 304     134.218   7.331  84.755  0.00  0.00     0.076 H 
ATOM     43  H   SGN d 304     133.490   6.859  82.458  0.00  0.00     0.131 H 
ATOM     44  H   SGN d 304     134.429  10.066  85.755  0.00  0.00     0.210 HD
ATOM     45  H   SGN d 304     131.829   8.083  86.518  0.00  0.00     0.231 HD
ATOM     46  H   SGN d 304     132.472   6.305  85.176  0.00  0.00     0.231 HD
ATOM     47  H   SGN d 304     136.823   7.328  84.669  0.00  0.00     0.091 H 
ATOM     48  H   SGN d 304     132.675   9.269  83.301  0.00  0.00     0.140 HD
ATOM     49  H   SGN d 304     136.765   8.633  82.111  0.00  0.00     0.090 H 
ATOM     50  H   SGN d 304     135.339   9.902  83.654  0.00  0.00     0.089 H 
ATOM     51  H   SGN d 304     137.984   6.728  81.295  0.00  0.00     0.080 H 
ATOM     52  H   SGN d 304     138.821   7.350  82.692  0.00  0.00     0.080 H 
ATOM     53  H   SGN d 304     129.720   7.857  83.735  0.00  0.00     0.231 HD
ATOM     54  O62 IDS d 301     131.555  16.252  75.557  0.00  0.00    -0.646 OA
ATOM     55  O1  IDS d 301     130.355  17.255  70.786  0.00  0.00    -0.368 OA
ATOM     56  C4  IDS d 301     132.146  14.367  73.061  0.00  0.00     0.103 C 
ATOM     57  C5  IDS d 301     131.918  15.918  73.217  0.00  0.00     0.152 C 
ATOM     58  O61 IDS d 301     133.207  17.201  74.750  0.00  0.00    -0.646 OA
ATOM     59  S   IDS d 301     130.937  14.510  68.177  0.00  0.00     0.252 S 
ATOM     60  C3  IDS d 301     131.427  13.834  71.781  0.00  0.00     0.094 C 
ATOM     61  C1  IDS d 301     130.209  16.052  71.488  0.00  0.00     0.158 C 
ATOM     62  C6  IDS d 301     132.241  16.489  74.592  0.00  0.00     0.206 C 
ATOM     63  O5  IDS d 301     130.550  16.224  72.868  0.00  0.00    -0.340 OA
ATOM     64  O4  IDS d 301     132.468  13.165  73.778  0.00  0.00    -0.348 OA
ATOM     65  O3S IDS d 301     129.715  14.415  67.418  0.00  0.00    -0.572 OA
ATOM     66  O1S IDS d 301     131.607  15.767  67.978  0.00  0.00    -0.572 OA
ATOM     67  C2  IDS d 301     131.117  14.986  70.805  0.00  0.00     0.134 C 
ATOM     68  O3  IDS d 301     132.262  12.887  71.133  0.00  0.00    -0.390 OA
ATOM     69  O2  IDS d 301     130.460  14.460  69.668  0.00  0.00    -0.244 OA
ATOM     70  O2S IDS d 301     131.800  13.371  68.002  0.00  0.00    -0.572 OA
ATOM     71  H   IDS d 301     130.120  17.117  69.855  0.00  0.00     0.212 HD
ATOM     72  H   IDS d 301     132.992  14.797  73.555  0.00  0.00     0.092 H 
ATOM     73  H   IDS d 301     132.614  16.386  72.553  0.00  0.00     0.104 H 
ATOM     74  H   IDS d 301     130.505  13.376  72.076  0.00  0.00     0.091 H 
ATOM     75  H   IDS d 301     129.189  15.729  71.461  0.00  0.00     0.133 H 
ATOM     76  H   IDS d 301     132.033  15.457  70.516  0.00  0.00     0.097 H 
ATOM     77  H   IDS d 301     133.092  13.313  70.871  0.00  0.00     0.210 HD
ATOM     78  O1S SGN d 302     135.061   9.978  71.353  0.00  0.00    -0.296 OA
ATOM     79  C2  SGN d 302     134.224  11.676  74.668  0.00  0.00     0.081 C 
ATOM     80  S2  SGN d 302     134.620  15.800  79.120  0.00  0.00     0.251 S 
ATOM     81  N   SGN d 302     134.188  10.924  73.402  0.00  0.00    -0.210 NA
ATOM     82  C4  SGN d 302     133.448  11.820  77.037  0.00  0.00     0.095 C 
ATOM     83  O6  SGN d 302     134.193  14.522  78.329  0.00  0.00    -0.254 OA
ATOM     84  C5  SGN d 302     132.884  13.242  76.717  0.00  0.00     0.091 C 
ATOM     85  O4S SGN d 302     133.747  15.904  80.256  0.00  0.00    -0.572 OA
ATOM     86  O2S SGN d 302     135.937  12.062  72.051  0.00  0.00    -0.296 OA
ATOM     87  S1  SGN d 302     135.514  10.760  72.464  0.00  0.00     0.156 S 
ATOM     88  O5S SGN d 302     135.978  15.566  79.503  0.00  0.00    -0.572 OA
ATOM     89  O6S SGN d 302     134.477  16.886  78.195  0.00  0.00    -0.572 OA
ATOM     90  C6  SGN d 302     132.884  14.212  77.912  0.00  0.00     0.067 C 
ATOM     91  O3  SGN d 302     133.895   9.689  75.958  0.00  0.00    -0.391 OA
ATOM     92  C3  SGN d 302     133.381  10.991  75.737  0.00  0.00     0.083 C 
ATOM     93  O4  SGN d 302     132.756  10.982  77.957  0.00  0.00    -0.348 OA
ATOM     94  O3S SGN d 302     136.484  10.079  73.272  0.00  0.00    -0.296 OA
ATOM     95  C1  SGN d 302     133.713  13.119  74.421  0.00  0.00     0.150 C 
ATOM     96  O5  SGN d 302     133.657  13.856  75.648  0.00  0.00    -0.349 OA
ATOM     97  H   SGN d 302     134.409  10.486  70.844  0.00  0.00     0.231 HD
ATOM     98  H   SGN d 302     135.234  11.709  75.021  0.00  0.00     0.076 H 
ATOM     99  H   SGN d 302     133.480  11.373  72.820  0.00  0.00     0.140 HD
ATOM    100  H   SGN d 302     134.401  12.050  77.467  0.00  0.00     0.091 H 
ATOM    101  H   SGN d 302     131.865  13.080  76.436  0.00  0.00     0.090 H 
ATOM    102  H   SGN d 302     135.243  12.472  71.511  0.00  0.00     0.231 HD
ATOM    103  H   SGN d 302     132.389  15.116  77.624  0.00  0.00     0.080 H 
ATOM    104  H   SGN d 302     132.376  13.740  78.726  0.00  0.00     0.080 H 
ATOM    105  H   SGN d 302     133.848   9.179  75.134  0.00  0.00     0.210 HD
ATOM    106  H   SGN d 302     132.362  10.919  75.421  0.00  0.00     0.089 H 
ATOM    107  H   SGN d 302     136.141   9.206  73.520  0.00  0.00     0.231 HD
ATOM    108  H   SGN d 302     134.422  13.573  73.761  0.00  0.00     0.131 H 
ATOM    109  C1  IDS d 305     138.781   8.609  85.327  0.00  0.00     0.161 C 
ATOM    110  O1S IDS d 305     141.340  10.209  81.918  0.00  0.00    -0.572 OA
ATOM    111  S   IDS d 305     140.656  10.823  83.022  0.00  0.00     0.252 S 
ATOM    112  C4  IDS d 305     140.146   9.488  87.863  0.00  0.00    -0.005 C 
ATOM    113  O61 IDS d 305     137.325   9.074  89.715  0.00  0.00    -0.646 OA
ATOM    114  O3  IDS d 305     141.850  10.496  86.485  0.00  0.00    -0.393 OA
ATOM    115  O62 IDS d 305     138.357   7.310  89.355  0.00  0.00    -0.646 OA
ATOM    116  O2S IDS d 305     139.320  11.208  82.682  0.00  0.00    -0.572 OA
ATOM    117  O2  IDS d 305     140.566   9.693  84.101  0.00  0.00    -0.244 OA
ATOM    118  O5  IDS d 305     138.518   8.107  86.647  0.00  0.00    -0.343 OA
ATOM    119  C5  IDS d 305     138.649   9.050  87.734  0.00  0.00     0.127 C 
ATOM    120  C3  IDS d 305     140.869   9.476  86.486  0.00  0.00     0.069 C 
ATOM    121  C2  IDS d 305     139.868   9.718  85.337  0.00  0.00     0.132 C 
ATOM    122  C6  IDS d 305     138.078   8.438  89.010  0.00  0.00     0.203 C 
ATOM    123  O3S IDS d 305     141.415  11.879  83.625  0.00  0.00    -0.572 OA
ATOM    124  H   IDS d 305     139.122   7.770  84.757  0.00  0.00     0.133 H 
ATOM    125  H   IDS d 305     140.184  10.478  88.267  0.00  0.00     0.041 H 
ATOM    126  H   IDS d 305     140.643   8.792  88.507  0.00  0.00     0.041 H 
ATOM    127  H   IDS d 305     142.478  10.342  87.208  0.00  0.00     0.210 HD
ATOM    128  H   IDS d 305     138.084   9.938  87.544  0.00  0.00     0.100 H 
ATOM    129  H   IDS d 305     141.323   8.519  86.335  0.00  0.00     0.087 H 
ATOM    130  H   IDS d 305     139.397  10.668  85.479  0.00  0.00     0.097 H 
ENDROOT
TORSDOF 39
ENDMDL
MODEL 29
REMARK VINA RESULT:      -5.7      3.758      5.539
REMARK  0 active torsions:
REMARK  status: ('A' for Active; 'I' for Inactive)
REMARK       I    between atoms: C2_2  and  N_68 
REMARK       I    between atoms: C1_3  and  O4_24 
REMARK       I    between atoms: O1S_5  and  S1_58 
REMARK       I    between atoms: O1_6  and  C1_31 
REMARK       I    between atoms: C4_7  and  O4_36 
REMARK       I    between atoms: C1_8  and  O4_37 
REMARK       I    between atoms: O3_9  and  C3_74 
REMARK       I    between atoms: C5_10  and  C6_32 
REMARK       I    between atoms: C2_11  and  N_20 
REMARK       I    between atoms: C6_12  and  C5_53 
REMARK       I    between atoms: S2_14  and  O6_33 
REMARK       I    between atoms: O3S_16  and  S1_51 
REMARK       I    between atoms: S_17  and  O2_44 
REMARK       I    between atoms: N_20  and  S1_58 
REMARK       I    between atoms: O4_24  and  C4_38 
REMARK       I    between atoms: S_25  and  O2_64 
REMARK       I    between atoms: O2S_27  and  S1_51 
REMARK       I    between atoms: C4_28  and  O4_73 
REMARK       I    between atoms: C3_30  and  O3_62 
REMARK       I    between atoms: O6_33  and  C6_63 
REMARK       I    between atoms: O3_35  and  C3_55 
REMARK       I    between atoms: O4_36  and  C1_84 
REMARK       I    between atoms: O4_37  and  C4_54 
REMARK       I    between atoms: C3_39  and  O3_48 
REMARK       I    between atoms: C5_42  and  C6_63 
REMARK       I    between atoms: O2_44  and  C2_61 
REMARK       I    between atoms: O6_45  and  C6_77 
REMARK       I    between atoms: O6_45  and  S2_82 
REMARK       I    between atoms: C5_49  and  C6_76 
REMARK       I    between atoms: S1_51  and  N_68 
REMARK       I    between atoms: S1_51  and  O1S_81 
REMARK       I    between atoms: O2S_52  and  S1_58 
REMARK       I    between atoms: C2_57  and  O2_64 
REMARK       I    between atoms: S1_58  and  O3S_75 
REMARK       I    between atoms: O3_66  and  C3_67 
REMARK       I    between atoms: O2_69  and  C2_79 
REMARK       I    between atoms: O2_69  and  S_72 
REMARK       I    between atoms: C5_70  and  C6_77 
REMARK       I    between atoms: C1_71  and  O4_73 
ROOT
ATOM      1  O2S IDS d 303     129.896   7.947  79.830  0.00  0.00    -0.572 OA
ATOM      2  C6  IDS d 303     135.913  11.775  78.524  0.00  0.00     0.206 C 
ATOM      3  O1S IDS d 303     131.770   6.472  79.702  0.00  0.00    -0.572 OA
ATOM      4  O3S IDS d 303     131.171   7.451  81.807  0.00  0.00    -0.572 OA
ATOM      5  O4  IDS d 303     132.859  11.283  78.479  0.00  0.00    -0.348 OA
ATOM      6  O61 IDS d 303     136.288  12.928  78.590  0.00  0.00    -0.646 OA
ATOM      7  C4  IDS d 303     133.579  11.702  79.649  0.00  0.00     0.103 C 
ATOM      8  C3  IDS d 303     132.810  11.020  80.817  0.00  0.00     0.094 C 
ATOM      9  O62 IDS d 303     136.263  11.118  77.565  0.00  0.00    -0.646 OA
ATOM     10  O3  IDS d 303     133.235  11.611  82.033  0.00  0.00    -0.390 OA
ATOM     11  C5  IDS d 303     135.031  11.168  79.615  0.00  0.00     0.152 C 
ATOM     12  O2  IDS d 303     132.103   8.837  80.055  0.00  0.00    -0.244 OA
ATOM     13  C1  IDS d 303     134.458   8.994  80.532  0.00  0.00     0.161 C 
ATOM     14  S   IDS d 303     131.186   7.601  80.374  0.00  0.00     0.252 S 
ATOM     15  C2  IDS d 303     133.034   9.485  80.908  0.00  0.00     0.134 C 
ATOM     16  O5  IDS d 303     134.995   9.744  79.449  0.00  0.00    -0.340 OA
ATOM     17  H   IDS d 303     133.635  12.767  79.734  0.00  0.00     0.092 H 
ATOM     18  H   IDS d 303     131.766  11.167  80.632  0.00  0.00     0.091 H 
ATOM     19  H   IDS d 303     134.183  11.451  82.155  0.00  0.00     0.210 HD
ATOM     20  H   IDS d 303     135.476  11.457  80.543  0.00  0.00     0.104 H 
ATOM     21  H   IDS d 303     134.410   7.979  80.197  0.00  0.00     0.133 H 
ATOM     22  H   IDS d 303     132.900   9.239  81.941  0.00  0.00     0.097 H 
ATOM     23  C2  SGN d 304     130.938  11.616  76.990  0.00  0.00     0.081 C 
ATOM     24  C1  SGN d 304     132.116  12.256  77.776  0.00  0.00     0.150 C 
ATOM     25  O3  SGN d 304     130.409  10.166  75.133  0.00  0.00    -0.391 OA
ATOM     26  O3S SGN d 304     127.709  11.050  78.327  0.00  0.00    -0.296 OA
ATOM     27  O5S SGN d 304     132.871  16.384  73.649  0.00  0.00    -0.572 OA
ATOM     28  O2S SGN d 304     129.049  13.012  78.645  0.00  0.00    -0.296 OA
ATOM     29  O4S SGN d 304     134.413  14.960  72.497  0.00  0.00    -0.572 OA
ATOM     30  O4  SGN d 304     132.500  10.789  73.766  0.00  0.00    -0.348 OA
ATOM     31  O6  SGN d 304     133.678  14.436  74.737  0.00  0.00    -0.254 OA
ATOM     32  S1  SGN d 304     128.945  11.585  78.818  0.00  0.00     0.156 S 
ATOM     33  C4  SGN d 304     132.314  11.651  74.901  0.00  0.00     0.095 C 
ATOM     34  O6S SGN d 304     135.146  16.288  74.352  0.00  0.00    -0.572 OA
ATOM     35  N   SGN d 304     130.120  10.843  77.938  0.00  0.00    -0.210 NA
ATOM     36  C5  SGN d 304     133.480  12.266  75.743  0.00  0.00     0.091 C 
ATOM     37  C3  SGN d 304     131.489  10.739  75.848  0.00  0.00     0.083 C 
ATOM     38  C6  SGN d 304     134.389  13.238  74.977  0.00  0.00     0.067 C 
ATOM     39  O5  SGN d 304     132.967  12.988  76.892  0.00  0.00    -0.349 OA
ATOM     40  O1S SGN d 304     129.209  11.192  80.173  0.00  0.00    -0.296 OA
ATOM     41  S2  SGN d 304     134.058  15.580  73.744  0.00  0.00     0.251 S 
ATOM     42  H   SGN d 304     130.323  12.367  76.541  0.00  0.00     0.076 H 
ATOM     43  H   SGN d 304     131.700  12.931  78.495  0.00  0.00     0.131 H 
ATOM     44  H   SGN d 304     129.895   9.596  75.727  0.00  0.00     0.210 HD
ATOM     45  H   SGN d 304     127.572  11.340  77.412  0.00  0.00     0.231 HD
ATOM     46  H   SGN d 304     128.865  13.239  77.720  0.00  0.00     0.231 HD
ATOM     47  H   SGN d 304     131.921  12.558  74.491  0.00  0.00     0.091 H 
ATOM     48  H   SGN d 304     130.765  10.422  78.608  0.00  0.00     0.140 HD
ATOM     49  H   SGN d 304     134.065  11.416  76.024  0.00  0.00     0.090 H 
ATOM     50  H   SGN d 304     132.104   9.955  76.238  0.00  0.00     0.089 H 
ATOM     51  H   SGN d 304     135.261  13.448  75.559  0.00  0.00     0.080 H 
ATOM     52  H   SGN d 304     134.686  12.800  74.047  0.00  0.00     0.080 H 
ATOM     53  H   SGN d 304     128.551  11.594  80.762  0.00  0.00     0.231 HD
ATOM     54  O62 IDS d 301     136.979   3.880  83.953  0.00  0.00    -0.646 OA
ATOM     55  O1  IDS d 301     140.205   3.098  87.720  0.00  0.00    -0.368 OA
ATOM     56  C4  IDS d 301     139.160   5.955  84.988  0.00  0.00     0.103 C 
ATOM     57  C5  IDS d 301     139.044   4.385  85.050  0.00  0.00     0.152 C 
ATOM     58  O61 IDS d 301     138.686   3.101  83.080  0.00  0.00    -0.646 OA
ATOM     59  S   IDS d 301     142.391   6.036  88.846  0.00  0.00     0.252 S 
ATOM     60  C3  IDS d 301     139.718   6.516  86.334  0.00  0.00     0.094 C 
ATOM     61  C1  IDS d 301     139.443   4.241  87.447  0.00  0.00     0.158 C 
ATOM     62  C6  IDS d 301     138.180   3.752  83.966  0.00  0.00     0.206 C 
ATOM     63  O5  IDS d 301     138.549   4.007  86.353  0.00  0.00    -0.340 OA
ATOM     64  O4  IDS d 301     138.662   7.129  84.327  0.00  0.00    -0.348 OA
ATOM     65  O3S IDS d 301     142.276   6.093  90.282  0.00  0.00    -0.572 OA
ATOM     66  O1S IDS d 301     143.061   4.844  88.399  0.00  0.00    -0.572 OA
ATOM     67  C2  IDS d 301     140.427   5.408  87.138  0.00  0.00     0.134 C 
ATOM     68  O3  IDS d 301     140.642   7.558  86.062  0.00  0.00    -0.390 OA
ATOM     69  O2  IDS d 301     140.908   5.958  88.351  0.00  0.00    -0.244 OA
ATOM     70  O2S IDS d 301     142.934   7.241  88.275  0.00  0.00    -0.572 OA
ATOM     71  H   IDS d 301     140.802   3.277  88.463  0.00  0.00     0.212 HD
ATOM     72  H   IDS d 301     139.299   5.555  84.005  0.00  0.00     0.092 H 
ATOM     73  H   IDS d 301     140.030   4.010  84.871  0.00  0.00     0.104 H 
ATOM     74  H   IDS d 301     138.898   6.888  86.912  0.00  0.00     0.091 H 
ATOM     75  H   IDS d 301     138.836   4.493  88.291  0.00  0.00     0.133 H 
ATOM     76  H   IDS d 301     141.241   5.022  86.561  0.00  0.00     0.097 H 
ATOM     77  H   IDS d 301     141.380   7.208  85.538  0.00  0.00     0.210 HD
ATOM     78  O1S SGN d 302     141.840  10.635  83.730  0.00  0.00    -0.296 OA
ATOM     79  C2  SGN d 302     138.840   8.677  82.414  0.00  0.00     0.081 C 
ATOM     80  S2  SGN d 302     135.871   4.319  79.384  0.00  0.00     0.251 S 
ATOM     81  N   SGN d 302     139.768   9.504  83.205  0.00  0.00    -0.210 NA
ATOM     82  C4  SGN d 302     136.492   8.331  81.636  0.00  0.00     0.095 C 
ATOM     83  O6  SGN d 302     136.140   5.612  80.221  0.00  0.00    -0.254 OA
ATOM     84  C5  SGN d 302     136.549   6.896  82.253  0.00  0.00     0.091 C 
ATOM     85  O4S SGN d 302     134.455   4.082  79.415  0.00  0.00    -0.572 OA
ATOM     86  O2S SGN d 302     141.986   8.578  82.571  0.00  0.00    -0.296 OA
ATOM     87  S1  SGN d 302     141.285   9.818  82.693  0.00  0.00     0.156 S 
ATOM     88  O5S SGN d 302     136.339   4.622  78.067  0.00  0.00    -0.572 OA
ATOM     89  O6S SGN d 302     136.632   3.286  80.025  0.00  0.00    -0.572 OA
ATOM     90  C6  SGN d 302     135.678   5.854  81.529  0.00  0.00     0.067 C 
ATOM     91  O3  SGN d 302     137.426  10.552  81.955  0.00  0.00    -0.391 OA
ATOM     92  C3  SGN d 302     137.422   9.233  82.475  0.00  0.00     0.083 C 
ATOM     93  O4  SGN d 302     135.268   9.059  81.667  0.00  0.00    -0.348 OA
ATOM     94  O3S SGN d 302     141.142  10.514  81.446  0.00  0.00    -0.296 OA
ATOM     95  C1  SGN d 302     138.871   7.221  82.944  0.00  0.00     0.150 C 
ATOM     96  O5  SGN d 302     137.920   6.406  82.250  0.00  0.00    -0.349 OA
ATOM     97  H   SGN d 302     141.914  10.116  84.546  0.00  0.00     0.231 HD
ATOM     98  H   SGN d 302     139.151   8.693  81.390  0.00  0.00     0.076 H 
ATOM     99  H   SGN d 302     139.861   9.044  84.112  0.00  0.00     0.140 HD
ATOM    100  H   SGN d 302     136.727   8.141  80.610  0.00  0.00     0.091 H 
ATOM    101  H   SGN d 302     136.162   7.004  83.244  0.00  0.00     0.090 H 
ATOM    102  H   SGN d 302     142.051   8.155  83.442  0.00  0.00     0.231 HD
ATOM    103  H   SGN d 302     135.701   4.938  82.081  0.00  0.00     0.080 H 
ATOM    104  H   SGN d 302     134.681   6.238  81.466  0.00  0.00     0.080 H 
ATOM    105  H   SGN d 302     138.013  11.108  82.489  0.00  0.00     0.210 HD
ATOM    106  H   SGN d 302     137.071   9.253  83.485  0.00  0.00     0.089 H 
ATOM    107  H   SGN d 302     140.661  11.343  81.593  0.00  0.00     0.231 HD
ATOM    108  H   SGN d 302     139.860   6.860  82.754  0.00  0.00     0.131 H 
ATOM    109  C1  IDS d 305     132.660  11.377  72.499  0.00  0.00     0.161 C 
ATOM    110  O1S IDS d 305     137.051  10.178  72.418  0.00  0.00    -0.572 OA
ATOM    111  S   IDS d 305     135.819   9.450  72.306  0.00  0.00     0.252 S 
ATOM    112  C4  IDS d 305     131.502  10.438  69.882  0.00  0.00    -0.005 C 
ATOM    113  O61 IDS d 305     128.319  10.536  71.071  0.00  0.00    -0.646 OA
ATOM    114  O3  IDS d 305     133.704   9.641  69.303  0.00  0.00    -0.393 OA
ATOM    115  O62 IDS d 305     129.052  12.387  70.485  0.00  0.00    -0.646 OA
ATOM    116  O2S IDS d 305     135.342   8.994  73.577  0.00  0.00    -0.572 OA
ATOM    117  O2  IDS d 305     134.793  10.500  71.763  0.00  0.00    -0.244 OA
ATOM    118  O5  IDS d 305     131.397  11.776  71.941  0.00  0.00    -0.343 OA
ATOM    119  C5  IDS d 305     130.686  10.778  71.174  0.00  0.00     0.127 C 
ATOM    120  C3  IDS d 305     133.033  10.587  70.113  0.00  0.00     0.069 C 
ATOM    121  C2  IDS d 305     133.392  10.349  71.594  0.00  0.00     0.132 C 
ATOM    122  C6  IDS d 305     129.269  11.266  70.892  0.00  0.00     0.203 C 
ATOM    123  O3S IDS d 305     135.876   8.413  71.317  0.00  0.00    -0.572 OA
ATOM    124  H   IDS d 305     133.241  12.272  72.577  0.00  0.00     0.133 H 
ATOM    125  H   IDS d 305     131.291   9.429  69.594  0.00  0.00     0.041 H 
ATOM    126  H   IDS d 305     131.212  11.125  69.114  0.00  0.00     0.041 H 
ATOM    127  H   IDS d 305     133.477   9.792  68.373  0.00  0.00     0.210 HD
ATOM    128  H   IDS d 305     130.590   9.866  71.725  0.00  0.00     0.100 H 
ATOM    129  H   IDS d 305     133.333  11.581  69.854  0.00  0.00     0.087 H 
ATOM    130  H   IDS d 305     133.089   9.361  71.872  0.00  0.00     0.097 H 
ENDROOT
TORSDOF 39
ENDMDL
MODEL 30
REMARK VINA RESULT:      -5.7      4.158     13.765
REMARK  0 active torsions:
REMARK  status: ('A' for Active; 'I' for Inactive)
REMARK       I    between atoms: C2_2  and  N_68 
REMARK       I    between atoms: C1_3  and  O4_24 
REMARK       I    between atoms: O1S_5  and  S1_58 
REMARK       I    between atoms: O1_6  and  C1_31 
REMARK       I    between atoms: C4_7  and  O4_36 
REMARK       I    between atoms: C1_8  and  O4_37 
REMARK       I    between atoms: O3_9  and  C3_74 
REMARK       I    between atoms: C5_10  and  C6_32 
REMARK       I    between atoms: C2_11  and  N_20 
REMARK       I    between atoms: C6_12  and  C5_53 
REMARK       I    between atoms: S2_14  and  O6_33 
REMARK       I    between atoms: O3S_16  and  S1_51 
REMARK       I    between atoms: S_17  and  O2_44 
REMARK       I    between atoms: N_20  and  S1_58 
REMARK       I    between atoms: O4_24  and  C4_38 
REMARK       I    between atoms: S_25  and  O2_64 
REMARK       I    between atoms: O2S_27  and  S1_51 
REMARK       I    between atoms: C4_28  and  O4_73 
REMARK       I    between atoms: C3_30  and  O3_62 
REMARK       I    between atoms: O6_33  and  C6_63 
REMARK       I    between atoms: O3_35  and  C3_55 
REMARK       I    between atoms: O4_36  and  C1_84 
REMARK       I    between atoms: O4_37  and  C4_54 
REMARK       I    between atoms: C3_39  and  O3_48 
REMARK       I    between atoms: C5_42  and  C6_63 
REMARK       I    between atoms: O2_44  and  C2_61 
REMARK       I    between atoms: O6_45  and  C6_77 
REMARK       I    between atoms: O6_45  and  S2_82 
REMARK       I    between atoms: C5_49  and  C6_76 
REMARK       I    between atoms: S1_51  and  N_68 
REMARK       I    between atoms: S1_51  and  O1S_81 
REMARK       I    between atoms: O2S_52  and  S1_58 
REMARK       I    between atoms: C2_57  and  O2_64 
REMARK       I    between atoms: S1_58  and  O3S_75 
REMARK       I    between atoms: O3_66  and  C3_67 
REMARK       I    between atoms: O2_69  and  C2_79 
REMARK       I    between atoms: O2_69  and  S_72 
REMARK       I    between atoms: C5_70  and  C6_77 
REMARK       I    between atoms: C1_71  and  O4_73 
ROOT
ATOM      1  O2S IDS d 303     136.840   5.627  83.664  0.00  0.00    -0.572 OA
ATOM      2  C6  IDS d 303     136.010  10.983  78.849  0.00  0.00     0.206 C 
ATOM      3  O1S IDS d 303     134.517   5.927  83.194  0.00  0.00    -0.572 OA
ATOM      4  O3S IDS d 303     135.818   4.430  81.846  0.00  0.00    -0.572 OA
ATOM      5  O4  IDS d 303     137.510   9.445  81.074  0.00  0.00    -0.348 OA
ATOM      6  O61 IDS d 303     136.685  11.595  78.046  0.00  0.00    -0.646 OA
ATOM      7  C4  IDS d 303     137.484   9.028  79.701  0.00  0.00     0.103 C 
ATOM      8  C3  IDS d 303     137.518   7.475  79.787  0.00  0.00     0.094 C 
ATOM      9  O62 IDS d 303     135.205  11.608  79.507  0.00  0.00    -0.646 OA
ATOM     10  O3  IDS d 303     137.812   6.966  78.498  0.00  0.00    -0.390 OA
ATOM     11  C5  IDS d 303     136.166   9.473  79.022  0.00  0.00     0.152 C 
ATOM     12  O2  IDS d 303     136.188   6.817  81.696  0.00  0.00    -0.244 OA
ATOM     13  C1  IDS d 303     134.892   7.560  79.808  0.00  0.00     0.161 C 
ATOM     14  S   IDS d 303     135.814   5.625  82.650  0.00  0.00     0.252 S 
ATOM     15  C2  IDS d 303     136.186   6.843  80.277  0.00  0.00     0.134 C 
ATOM     16  O5  IDS d 303     135.061   8.973  79.788  0.00  0.00    -0.340 OA
ATOM     17  H   IDS d 303     138.289   9.446  79.132  0.00  0.00     0.092 H 
ATOM     18  H   IDS d 303     138.264   7.219  80.510  0.00  0.00     0.091 H 
ATOM     19  H   IDS d 303     137.110   7.224  77.880  0.00  0.00     0.210 HD
ATOM     20  H   IDS d 303     136.189   9.067  78.033  0.00  0.00     0.104 H 
ATOM     21  H   IDS d 303     134.102   7.364  80.502  0.00  0.00     0.133 H 
ATOM     22  H   IDS d 303     136.157   5.867  79.839  0.00  0.00     0.097 H 
ATOM     23  C2  SGN d 304     138.843   9.900  83.083  0.00  0.00     0.081 C 
ATOM     24  C1  SGN d 304     138.675  10.085  81.549  0.00  0.00     0.150 C 
ATOM     25  O3  SGN d 304     137.891  10.496  85.221  0.00  0.00    -0.391 OA
ATOM     26  O3S SGN d 304     140.502   7.168  84.606  0.00  0.00    -0.296 OA
ATOM     27  O5S SGN d 304     141.114  15.438  81.741  0.00  0.00    -0.572 OA
ATOM     28  O2S SGN d 304     141.231   8.361  82.660  0.00  0.00    -0.296 OA
ATOM     29  O4S SGN d 304     138.957  16.416  82.092  0.00  0.00    -0.572 OA
ATOM     30  O4  SGN d 304     136.978  12.770  84.428  0.00  0.00    -0.348 OA
ATOM     31  O6  SGN d 304     139.177  14.105  81.426  0.00  0.00    -0.254 OA
ATOM     32  S1  SGN d 304     140.194   7.565  83.263  0.00  0.00     0.156 S 
ATOM     33  C4  SGN d 304     137.855  12.168  83.462  0.00  0.00     0.095 C 
ATOM     34  O6S SGN d 304     139.687  15.860  79.879  0.00  0.00    -0.572 OA
ATOM     35  N   SGN d 304     138.818   8.458  83.378  0.00  0.00    -0.210 NA
ATOM     36  C5  SGN d 304     137.681  12.292  81.913  0.00  0.00     0.091 C 
ATOM     37  C3  SGN d 304     137.726  10.664  83.824  0.00  0.00     0.083 C 
ATOM     38  C6  SGN d 304     137.820  13.717  81.358  0.00  0.00     0.067 C 
ATOM     39  O5  SGN d 304     138.653  11.473  81.213  0.00  0.00    -0.349 OA
ATOM     40  O1S SGN d 304     139.828   6.449  82.435  0.00  0.00    -0.296 OA
ATOM     41  S2  SGN d 304     139.759  15.547  81.276  0.00  0.00     0.251 S 
ATOM     42  H   SGN d 304     139.775  10.303  83.420  0.00  0.00     0.076 H 
ATOM     43  H   SGN d 304     139.517   9.626  81.073  0.00  0.00     0.131 H 
ATOM     44  H   SGN d 304     137.809   9.556  85.445  0.00  0.00     0.210 HD
ATOM     45  H   SGN d 304     140.742   7.950  85.127  0.00  0.00     0.231 HD
ATOM     46  H   SGN d 304     141.451   9.103  83.245  0.00  0.00     0.231 HD
ATOM     47  H   SGN d 304     138.775  12.705  83.560  0.00  0.00     0.091 H 
ATOM     48  H   SGN d 304     138.142   8.039  82.739  0.00  0.00     0.140 HD
ATOM     49  H   SGN d 304     136.676  11.966  81.744  0.00  0.00     0.090 H 
ATOM     50  H   SGN d 304     136.764  10.294  83.540  0.00  0.00     0.089 H 
ATOM     51  H   SGN d 304     137.490  13.740  80.340  0.00  0.00     0.080 H 
ATOM     52  H   SGN d 304     137.221  14.390  81.935  0.00  0.00     0.080 H 
ATOM     53  H   SGN d 304     140.596   5.868  82.318  0.00  0.00     0.231 HD
ATOM     54  O62 IDS d 301     129.601   3.796  78.375  0.00  0.00    -0.646 OA
ATOM     55  O1  IDS d 301     127.289   1.942  74.323  0.00  0.00    -0.368 OA
ATOM     56  C4  IDS d 301     129.956   4.851  75.393  0.00  0.00     0.103 C 
ATOM     57  C5  IDS d 301     128.805   4.075  76.137  0.00  0.00     0.152 C 
ATOM     58  O61 IDS d 301     127.868   4.907  78.158  0.00  0.00    -0.646 OA
ATOM     59  S   IDS d 301     128.323   3.300  70.892  0.00  0.00     0.252 S 
ATOM     60  C3  IDS d 301     130.154   4.286  73.951  0.00  0.00     0.094 C 
ATOM     61  C1  IDS d 301     128.633   2.309  74.469  0.00  0.00     0.158 C 
ATOM     62  C6  IDS d 301     128.760   4.267  77.647  0.00  0.00     0.206 C 
ATOM     63  O5  IDS d 301     128.917   2.668  75.826  0.00  0.00    -0.340 OA
ATOM     64  O4  IDS d 301     131.131   5.654  75.593  0.00  0.00    -0.348 OA
ATOM     65  O3S IDS d 301     128.551   2.146  70.058  0.00  0.00    -0.572 OA
ATOM     66  O1S IDS d 301     126.942   3.435  71.270  0.00  0.00    -0.572 OA
ATOM     67  C2  IDS d 301     128.913   3.494  73.496  0.00  0.00     0.134 C 
ATOM     68  O3  IDS d 301     130.377   5.360  73.051  0.00  0.00    -0.390 OA
ATOM     69  O2  IDS d 301     129.140   2.993  72.192  0.00  0.00    -0.244 OA
ATOM     70  O2S IDS d 301     128.885   4.509  70.349  0.00  0.00    -0.572 OA
ATOM     71  H   IDS d 301     127.118   1.703  73.398  0.00  0.00     0.212 HD
ATOM     72  H   IDS d 301     129.480   5.512  76.087  0.00  0.00     0.092 H 
ATOM     73  H   IDS d 301     127.888   4.492  75.778  0.00  0.00     0.104 H 
ATOM     74  H   IDS d 301     130.998   3.627  73.959  0.00  0.00     0.091 H 
ATOM     75  H   IDS d 301     129.271   1.485  74.229  0.00  0.00     0.133 H 
ATOM     76  H   IDS d 301     128.063   4.142  73.498  0.00  0.00     0.097 H 
ATOM     77  H   IDS d 301     129.606   5.949  73.053  0.00  0.00     0.210 HD
ATOM     78  O1S SGN d 302     131.860   9.050  72.324  0.00  0.00    -0.296 OA
ATOM     79  C2  SGN d 302     132.082   7.901  75.957  0.00  0.00     0.081 C 
ATOM     80  S2  SGN d 302     130.273   7.077  81.704  0.00  0.00     0.251 S 
ATOM     81  N   SGN d 302     132.216   8.050  74.498  0.00  0.00    -0.210 NA
ATOM     82  C4  SGN d 302     133.202   7.315  78.111  0.00  0.00     0.095 C 
ATOM     83  O6  SGN d 302     131.183   7.097  80.434  0.00  0.00    -0.254 OA
ATOM     84  C5  SGN d 302     132.092   6.238  78.341  0.00  0.00     0.091 C 
ATOM     85  O4S SGN d 302     130.966   6.319  82.709  0.00  0.00    -0.572 OA
ATOM     86  O2S SGN d 302     130.070   9.138  73.869  0.00  0.00    -0.296 OA
ATOM     87  S1  SGN d 302     131.484   9.264  73.689  0.00  0.00     0.156 S 
ATOM     88  O5S SGN d 302     130.118   8.449  82.075  0.00  0.00    -0.572 OA
ATOM     89  O6S SGN d 302     129.045   6.467  81.283  0.00  0.00    -0.572 OA
ATOM     90  C6  SGN d 302     131.760   5.969  79.819  0.00  0.00     0.067 C 
ATOM     91  O3  SGN d 302     134.386   8.439  76.310  0.00  0.00    -0.391 OA
ATOM     92  C3  SGN d 302     133.398   7.461  76.587  0.00  0.00     0.083 C 
ATOM     93  O4  SGN d 302     134.530   7.059  78.556  0.00  0.00    -0.348 OA
ATOM     94  O3S SGN d 302     132.019  10.478  74.235  0.00  0.00    -0.296 OA
ATOM     95  C1  SGN d 302     130.965   6.872  76.267  0.00  0.00     0.150 C 
ATOM     96  O5  SGN d 302     130.862   6.641  77.677  0.00  0.00    -0.349 OA
ATOM     97  H   SGN d 302     131.473   8.219  72.008  0.00  0.00     0.231 HD
ATOM     98  H   SGN d 302     131.821   8.850  76.378  0.00  0.00     0.076 H 
ATOM     99  H   SGN d 302     131.870   7.182  74.087  0.00  0.00     0.140 HD
ATOM    100  H   SGN d 302     132.828   8.143  78.675  0.00  0.00     0.091 H 
ATOM    101  H   SGN d 302     132.494   5.335  77.933  0.00  0.00     0.090 H 
ATOM    102  H   SGN d 302     129.768   8.301  73.482  0.00  0.00     0.231 HD
ATOM    103  H   SGN d 302     131.072   5.152  79.877  0.00  0.00     0.080 H 
ATOM    104  H   SGN d 302     132.672   5.739  80.330  0.00  0.00     0.080 H 
ATOM    105  H   SGN d 302     134.499   8.521  75.351  0.00  0.00     0.210 HD
ATOM    106  H   SGN d 302     133.709   6.521  76.183  0.00  0.00     0.089 H 
ATOM    107  H   SGN d 302     132.976  10.506  74.083  0.00  0.00     0.231 HD
ATOM    108  H   SGN d 302     130.056   7.306  75.906  0.00  0.00     0.131 H 
ATOM    109  C1  IDS d 305     137.240  14.089  84.839  0.00  0.00     0.161 C 
ATOM    110  O1S IDS d 305     133.581  15.593  82.587  0.00  0.00    -0.572 OA
ATOM    111  S   IDS d 305     133.764  14.818  83.782  0.00  0.00     0.252 S 
ATOM    112  C4  IDS d 305     137.017  15.221  87.621  0.00  0.00    -0.005 C 
ATOM    113  O61 IDS d 305     139.155  12.911  88.906  0.00  0.00    -0.646 OA
ATOM    114  O3  IDS d 305     134.987  16.313  86.911  0.00  0.00    -0.393 OA
ATOM    115  O62 IDS d 305     140.103  14.495  87.959  0.00  0.00    -0.646 OA
ATOM    116  O2S IDS d 305     133.802  13.412  83.513  0.00  0.00    -0.572 OA
ATOM    117  O2  IDS d 305     135.177  15.239  84.307  0.00  0.00    -0.244 OA
ATOM    118  O5  IDS d 305     138.289  14.135  85.820  0.00  0.00    -0.343 OA
ATOM    119  C5  IDS d 305     137.888  13.990  87.201  0.00  0.00     0.127 C 
ATOM    120  C3  IDS d 305     136.205  15.787  86.421  0.00  0.00     0.069 C 
ATOM    121  C2  IDS d 305     135.913  14.682  85.385  0.00  0.00     0.132 C 
ATOM    122  C6  IDS d 305     139.125  13.790  88.072  0.00  0.00     0.203 C 
ATOM    123  O3S IDS d 305     132.841  15.172  84.820  0.00  0.00    -0.572 OA
ATOM    124  H   IDS d 305     137.586  14.673  84.012  0.00  0.00     0.133 H 
ATOM    125  H   IDS d 305     136.336  14.918  88.389  0.00  0.00     0.041 H 
ATOM    126  H   IDS d 305     137.673  15.990  87.972  0.00  0.00     0.041 H 
ATOM    127  H   IDS d 305     135.173  17.007  87.562  0.00  0.00     0.210 HD
ATOM    128  H   IDS d 305     137.277  13.122  87.336  0.00  0.00     0.100 H 
ATOM    129  H   IDS d 305     136.776  16.551  85.939  0.00  0.00     0.087 H 
ATOM    130  H   IDS d 305     135.349  13.903  85.855  0.00  0.00     0.097 H 
ENDROOT
TORSDOF 39
ENDMDL
MODEL 31
REMARK VINA RESULT:      -5.7      3.481     13.853
REMARK  0 active torsions:
REMARK  status: ('A' for Active; 'I' for Inactive)
REMARK       I    between atoms: C2_2  and  N_68 
REMARK       I    between atoms: C1_3  and  O4_24 
REMARK       I    between atoms: O1S_5  and  S1_58 
REMARK       I    between atoms: O1_6  and  C1_31 
REMARK       I    between atoms: C4_7  and  O4_36 
REMARK       I    between atoms: C1_8  and  O4_37 
REMARK       I    between atoms: O3_9  and  C3_74 
REMARK       I    between atoms: C5_10  and  C6_32 
REMARK       I    between atoms: C2_11  and  N_20 
REMARK       I    between atoms: C6_12  and  C5_53 
REMARK       I    between atoms: S2_14  and  O6_33 
REMARK       I    between atoms: O3S_16  and  S1_51 
REMARK       I    between atoms: S_17  and  O2_44 
REMARK       I    between atoms: N_20  and  S1_58 
REMARK       I    between atoms: O4_24  and  C4_38 
REMARK       I    between atoms: S_25  and  O2_64 
REMARK       I    between atoms: O2S_27  and  S1_51 
REMARK       I    between atoms: C4_28  and  O4_73 
REMARK       I    between atoms: C3_30  and  O3_62 
REMARK       I    between atoms: O6_33  and  C6_63 
REMARK       I    between atoms: O3_35  and  C3_55 
REMARK       I    between atoms: O4_36  and  C1_84 
REMARK       I    between atoms: O4_37  and  C4_54 
REMARK       I    between atoms: C3_39  and  O3_48 
REMARK       I    between atoms: C5_42  and  C6_63 
REMARK       I    between atoms: O2_44  and  C2_61 
REMARK       I    between atoms: O6_45  and  C6_77 
REMARK       I    between atoms: O6_45  and  S2_82 
REMARK       I    between atoms: C5_49  and  C6_76 
REMARK       I    between atoms: S1_51  and  N_68 
REMARK       I    between atoms: S1_51  and  O1S_81 
REMARK       I    between atoms: O2S_52  and  S1_58 
REMARK       I    between atoms: C2_57  and  O2_64 
REMARK       I    between atoms: S1_58  and  O3S_75 
REMARK       I    between atoms: O3_66  and  C3_67 
REMARK       I    between atoms: O2_69  and  C2_79 
REMARK       I    between atoms: O2_69  and  S_72 
REMARK       I    between atoms: C5_70  and  C6_77 
REMARK       I    between atoms: C1_71  and  O4_73 
ROOT
ATOM      1  O2S IDS d 303     132.808  14.814  80.075  0.00  0.00    -0.572 OA
ATOM      2  C6  IDS d 303     134.536   7.820  80.877  0.00  0.00     0.206 C 
ATOM      3  O1S IDS d 303     133.831  14.009  78.073  0.00  0.00    -0.572 OA
ATOM      4  O3S IDS d 303     131.456  13.827  78.349  0.00  0.00    -0.572 OA
ATOM      5  O4  IDS d 303     133.908  10.670  81.903  0.00  0.00    -0.348 OA
ATOM      6  O61 IDS d 303     134.252   6.893  81.609  0.00  0.00    -0.646 OA
ATOM      7  C4  IDS d 303     132.901   9.742  81.472  0.00  0.00     0.103 C 
ATOM      8  C3  IDS d 303     131.809  10.652  80.839  0.00  0.00     0.094 C 
ATOM      9  O62 IDS d 303     135.696   7.947  80.546  0.00  0.00    -0.646 OA
ATOM     10  O3  IDS d 303     130.634   9.880  80.665  0.00  0.00    -0.390 OA
ATOM     11  C5  IDS d 303     133.465   8.793  80.386  0.00  0.00     0.152 C 
ATOM     12  O2  IDS d 303     132.934  12.458  79.691  0.00  0.00    -0.244 OA
ATOM     13  C1  IDS d 303     133.071  10.340  78.556  0.00  0.00     0.161 C 
ATOM     14  S   IDS d 303     132.742  13.856  78.999  0.00  0.00     0.252 S 
ATOM     15  C2  IDS d 303     132.212  11.258  79.466  0.00  0.00     0.134 C 
ATOM     16  O5  IDS d 303     134.004   9.583  79.318  0.00  0.00    -0.340 OA
ATOM     17  H   IDS d 303     132.540   9.129  82.272  0.00  0.00     0.092 H 
ATOM     18  H   IDS d 303     131.664  11.476  81.507  0.00  0.00     0.091 H 
ATOM     19  H   IDS d 303     130.816   9.149  80.054  0.00  0.00     0.210 HD
ATOM     20  H   IDS d 303     132.644   8.186  80.067  0.00  0.00     0.104 H 
ATOM     21  H   IDS d 303     133.650  10.940  77.886  0.00  0.00     0.133 H 
ATOM     22  H   IDS d 303     131.291  11.413  78.943  0.00  0.00     0.097 H 
ATOM     23  C2  SGN d 304     134.683  12.249  83.612  0.00  0.00     0.081 C 
ATOM     24  C1  SGN d 304     134.091  10.849  83.291  0.00  0.00     0.150 C 
ATOM     25  O3  SGN d 304     136.663  13.615  83.383  0.00  0.00    -0.391 OA
ATOM     26  O3S SGN d 304     132.755  15.171  84.142  0.00  0.00    -0.296 OA
ATOM     27  O5S SGN d 304     136.952   8.397  87.812  0.00  0.00    -0.572 OA
ATOM     28  O2S SGN d 304     132.269  12.981  84.986  0.00  0.00    -0.296 OA
ATOM     29  O4S SGN d 304     138.820   7.931  86.387  0.00  0.00    -0.572 OA
ATOM     30  O4  SGN d 304     138.304  11.631  83.434  0.00  0.00    -0.348 OA
ATOM     31  O6  SGN d 304     136.702   8.640  85.465  0.00  0.00    -0.254 OA
ATOM     32  S1  SGN d 304     132.479  13.802  83.820  0.00  0.00     0.156 S 
ATOM     33  C4  SGN d 304     136.966  11.241  83.789  0.00  0.00     0.095 C 
ATOM     34  O6S SGN d 304     136.930   6.459  86.426  0.00  0.00    -0.572 OA
ATOM     35  N   SGN d 304     133.808  13.268  83.011  0.00  0.00    -0.210 NA
ATOM     36  C5  SGN d 304     136.326   9.860  83.433  0.00  0.00     0.091 C 
ATOM     37  C3  SGN d 304     136.128  12.338  83.080  0.00  0.00     0.083 C 
ATOM     38  C6  SGN d 304     137.002   8.645  84.084  0.00  0.00     0.067 C 
ATOM     39  O5  SGN d 304     134.927   9.820  83.820  0.00  0.00    -0.349 OA
ATOM     40  O1S SGN d 304     131.406  13.669  82.875  0.00  0.00    -0.296 OA
ATOM     41  S2  SGN d 304     137.402   7.803  86.583  0.00  0.00     0.251 S 
ATOM     42  H   SGN d 304     134.728  12.416  84.668  0.00  0.00     0.076 H 
ATOM     43  H   SGN d 304     133.129  10.789  83.757  0.00  0.00     0.131 H 
ATOM     44  H   SGN d 304     136.137  14.298  82.938  0.00  0.00     0.210 HD
ATOM     45  H   SGN d 304     133.483  15.212  84.781  0.00  0.00     0.231 HD
ATOM     46  H   SGN d 304     133.011  13.096  85.600  0.00  0.00     0.231 HD
ATOM     47  H   SGN d 304     136.989  11.134  84.853  0.00  0.00     0.091 H 
ATOM     48  H   SGN d 304     133.477  12.886  82.125  0.00  0.00     0.140 HD
ATOM     49  H   SGN d 304     136.457   9.785  82.374  0.00  0.00     0.090 H 
ATOM     50  H   SGN d 304     136.148  12.194  82.020  0.00  0.00     0.089 H 
ATOM     51  H   SGN d 304     136.636   7.746  83.634  0.00  0.00     0.080 H 
ATOM     52  H   SGN d 304     138.061   8.701  83.942  0.00  0.00     0.080 H 
ATOM     53  H   SGN d 304     130.577  13.967  83.281  0.00  0.00     0.231 HD
ATOM     54  O62 IDS d 301     132.001  10.592  71.999  0.00  0.00    -0.646 OA
ATOM     55  O1  IDS d 301     129.590   7.949  68.475  0.00  0.00    -0.368 OA
ATOM     56  C4  IDS d 301     131.043   7.569  72.279  0.00  0.00     0.103 C 
ATOM     57  C5  IDS d 301     131.392   8.484  71.045  0.00  0.00     0.152 C 
ATOM     58  O61 IDS d 301     133.474   9.626  70.913  0.00  0.00    -0.646 OA
ATOM     59  S   IDS d 301     128.310   4.461  69.414  0.00  0.00     0.252 S 
ATOM     60  C3  IDS d 301     129.791   6.688  71.970  0.00  0.00     0.094 C 
ATOM     61  C1  IDS d 301     129.324   8.019  69.848  0.00  0.00     0.158 C 
ATOM     62  C6  IDS d 301     132.342   9.639  71.339  0.00  0.00     0.206 C 
ATOM     63  O5  IDS d 301     130.164   8.992  70.480  0.00  0.00    -0.340 OA
ATOM     64  O4  IDS d 301     131.195   7.432  73.701  0.00  0.00    -0.348 OA
ATOM     65  O3S IDS d 301     126.938   4.408  68.976  0.00  0.00    -0.572 OA
ATOM     66  O1S IDS d 301     129.231   4.555  68.313  0.00  0.00    -0.572 OA
ATOM     67  C2  IDS d 301     129.544   6.599  70.451  0.00  0.00     0.134 C 
ATOM     68  O3  IDS d 301     129.996   5.382  72.486  0.00  0.00    -0.390 OA
ATOM     69  O2  IDS d 301     128.398   5.802  70.219  0.00  0.00    -0.244 OA
ATOM     70  O2S IDS d 301     128.645   3.418  70.348  0.00  0.00    -0.572 OA
ATOM     71  H   IDS d 301     129.012   7.285  68.067  0.00  0.00     0.212 HD
ATOM     72  H   IDS d 301     132.098   7.743  72.260  0.00  0.00     0.092 H 
ATOM     73  H   IDS d 301     131.922   7.860  70.356  0.00  0.00     0.104 H 
ATOM     74  H   IDS d 301     128.937   7.140  72.431  0.00  0.00     0.091 H 
ATOM     75  H   IDS d 301     128.314   8.330  70.015  0.00  0.00     0.133 H 
ATOM     76  H   IDS d 301     130.399   6.160  69.982  0.00  0.00     0.097 H 
ATOM     77  H   IDS d 301     130.771   4.984  72.061  0.00  0.00     0.210 HD
ATOM     78  O1S SGN d 302     131.609   2.952  75.285  0.00  0.00    -0.296 OA
ATOM     79  C2  SGN d 302     132.578   6.632  75.581  0.00  0.00     0.081 C 
ATOM     80  S2  SGN d 302     135.806  11.686  74.571  0.00  0.00     0.251 S 
ATOM     81  N   SGN d 302     131.862   5.346  75.524  0.00  0.00    -0.210 NA
ATOM     82  C4  SGN d 302     132.773   8.869  76.673  0.00  0.00     0.095 C 
ATOM     83  O6  SGN d 302     134.744  10.711  75.176  0.00  0.00    -0.254 OA
ATOM     84  C5  SGN d 302     132.618   9.520  75.261  0.00  0.00     0.091 C 
ATOM     85  O4S SGN d 302     135.470  13.008  75.021  0.00  0.00    -0.572 OA
ATOM     86  O2S SGN d 302     133.291   4.003  73.995  0.00  0.00    -0.296 OA
ATOM     87  S1  SGN d 302     132.647   3.938  75.271  0.00  0.00     0.156 S 
ATOM     88  O5S SGN d 302     137.061  11.242  75.093  0.00  0.00    -0.572 OA
ATOM     89  O6S SGN d 302     135.702  11.528  73.150  0.00  0.00    -0.572 OA
ATOM     90  C6  SGN d 302     133.347  10.865  75.094  0.00  0.00     0.067 C 
ATOM     91  O3  SGN d 302     132.107   6.888  77.913  0.00  0.00    -0.391 OA
ATOM     92  C3  SGN d 302     131.993   7.537  76.658  0.00  0.00     0.083 C 
ATOM     93  O4  SGN d 302     132.219   9.523  77.811  0.00  0.00    -0.348 OA
ATOM     94  O3S SGN d 302     133.567   3.800  76.363  0.00  0.00    -0.296 OA
ATOM     95  C1  SGN d 302     132.502   7.323  74.196  0.00  0.00     0.150 C 
ATOM     96  O5  SGN d 302     133.119   8.615  74.237  0.00  0.00    -0.349 OA
ATOM     97  H   SGN d 302     131.019   3.092  74.528  0.00  0.00     0.231 HD
ATOM     98  H   SGN d 302     133.602   6.446  75.834  0.00  0.00     0.076 H 
ATOM     99  H   SGN d 302     131.177   5.431  74.772  0.00  0.00     0.140 HD
ATOM    100  H   SGN d 302     133.835   8.856  76.796  0.00  0.00     0.091 H 
ATOM    101  H   SGN d 302     131.570   9.708  75.155  0.00  0.00     0.090 H 
ATOM    102  H   SGN d 302     132.621   4.096  73.299  0.00  0.00     0.231 HD
ATOM    103  H   SGN d 302     133.098  11.279  74.139  0.00  0.00     0.080 H 
ATOM    104  H   SGN d 302     133.035  11.515  75.885  0.00  0.00     0.080 H 
ATOM    105  H   SGN d 302     131.613   6.053  77.891  0.00  0.00     0.210 HD
ATOM    106  H   SGN d 302     130.962   7.739  76.458  0.00  0.00     0.089 H 
ATOM    107  H   SGN d 302     133.075   3.762  77.197  0.00  0.00     0.231 HD
ATOM    108  H   SGN d 302     133.039   6.690  73.521  0.00  0.00     0.131 H 
ATOM    109  C1  IDS d 305     139.352  11.294  84.308  0.00  0.00     0.161 C 
ATOM    110  O1S IDS d 305     140.919   8.206  81.353  0.00  0.00    -0.572 OA
ATOM    111  S   IDS d 305     140.901   9.642  81.375  0.00  0.00     0.252 S 
ATOM    112  C4  IDS d 305     141.725  12.988  85.064  0.00  0.00    -0.005 C 
ATOM    113  O61 IDS d 305     139.760  15.535  86.162  0.00  0.00    -0.646 OA
ATOM    114  O3  IDS d 305     143.062  11.588  83.625  0.00  0.00    -0.393 OA
ATOM    115  O62 IDS d 305     139.979  13.994  87.535  0.00  0.00    -0.646 OA
ATOM    116  O2S IDS d 305     139.728  10.177  80.752  0.00  0.00    -0.572 OA
ATOM    117  O2  IDS d 305     140.839  10.007  82.896  0.00  0.00    -0.244 OA
ATOM    118  O5  IDS d 305     139.424  12.203  85.419  0.00  0.00    -0.343 OA
ATOM    119  C5  IDS d 305     140.222  13.393  85.229  0.00  0.00     0.127 C 
ATOM    120  C3  IDS d 305     141.874  11.593  84.393  0.00  0.00     0.069 C 
ATOM    121  C2  IDS d 305     140.667  11.288  83.482  0.00  0.00     0.132 C 
ATOM    122  C6  IDS d 305     139.972  14.362  86.380  0.00  0.00     0.203 C 
ATOM    123  O3S IDS d 305     142.117  10.219  80.884  0.00  0.00    -0.572 OA
ATOM    124  H   IDS d 305     139.185  10.326  84.732  0.00  0.00     0.133 H 
ATOM    125  H   IDS d 305     142.216  13.720  84.456  0.00  0.00     0.041 H 
ATOM    126  H   IDS d 305     142.167  12.939  86.037  0.00  0.00     0.041 H 
ATOM    127  H   IDS d 305     143.820  11.779  84.200  0.00  0.00     0.210 HD
ATOM    128  H   IDS d 305     139.942  13.906  84.333  0.00  0.00     0.100 H 
ATOM    129  H   IDS d 305     141.916  10.840  85.152  0.00  0.00     0.087 H 
ATOM    130  H   IDS d 305     140.605  12.039  82.722  0.00  0.00     0.097 H 
ENDROOT
TORSDOF 39
ENDMDL
MODEL 32
REMARK VINA RESULT:      -5.6      4.207     12.955
REMARK  0 active torsions:
REMARK  status: ('A' for Active; 'I' for Inactive)
REMARK       I    between atoms: C2_2  and  N_68 
REMARK       I    between atoms: C1_3  and  O4_24 
REMARK       I    between atoms: O1S_5  and  S1_58 
REMARK       I    between atoms: O1_6  and  C1_31 
REMARK       I    between atoms: C4_7  and  O4_36 
REMARK       I    between atoms: C1_8  and  O4_37 
REMARK       I    between atoms: O3_9  and  C3_74 
REMARK       I    between atoms: C5_10  and  C6_32 
REMARK       I    between atoms: C2_11  and  N_20 
REMARK       I    between atoms: C6_12  and  C5_53 
REMARK       I    between atoms: S2_14  and  O6_33 
REMARK       I    between atoms: O3S_16  and  S1_51 
REMARK       I    between atoms: S_17  and  O2_44 
REMARK       I    between atoms: N_20  and  S1_58 
REMARK       I    between atoms: O4_24  and  C4_38 
REMARK       I    between atoms: S_25  and  O2_64 
REMARK       I    between atoms: O2S_27  and  S1_51 
REMARK       I    between atoms: C4_28  and  O4_73 
REMARK       I    between atoms: C3_30  and  O3_62 
REMARK       I    between atoms: O6_33  and  C6_63 
REMARK       I    between atoms: O3_35  and  C3_55 
REMARK       I    between atoms: O4_36  and  C1_84 
REMARK       I    between atoms: O4_37  and  C4_54 
REMARK       I    between atoms: C3_39  and  O3_48 
REMARK       I    between atoms: C5_42  and  C6_63 
REMARK       I    between atoms: O2_44  and  C2_61 
REMARK       I    between atoms: O6_45  and  C6_77 
REMARK       I    between atoms: O6_45  and  S2_82 
REMARK       I    between atoms: C5_49  and  C6_76 
REMARK       I    between atoms: S1_51  and  N_68 
REMARK       I    between atoms: S1_51  and  O1S_81 
REMARK       I    between atoms: O2S_52  and  S1_58 
REMARK       I    between atoms: C2_57  and  O2_64 
REMARK       I    between atoms: S1_58  and  O3S_75 
REMARK       I    between atoms: O3_66  and  C3_67 
REMARK       I    between atoms: O2_69  and  C2_79 
REMARK       I    between atoms: O2_69  and  S_72 
REMARK       I    between atoms: C5_70  and  C6_77 
REMARK       I    between atoms: C1_71  and  O4_73 
ROOT
ATOM      1  O2S IDS d 303     131.175  10.418  83.195  0.00  0.00    -0.572 OA
ATOM      2  C6  IDS d 303     135.972   7.290  78.750  0.00  0.00     0.206 C 
ATOM      3  O1S IDS d 303     132.325  12.100  81.949  0.00  0.00    -0.572 OA
ATOM      4  O3S IDS d 303     130.323  11.125  81.060  0.00  0.00    -0.572 OA
ATOM      5  O4  IDS d 303     134.170   7.415  81.261  0.00  0.00    -0.348 OA
ATOM      6  O61 IDS d 303     136.194   6.192  78.281  0.00  0.00    -0.646 OA
ATOM      7  C4  IDS d 303     133.678   7.122  79.945  0.00  0.00     0.103 C 
ATOM      8  C3  IDS d 303     132.252   7.745  79.939  0.00  0.00     0.094 C 
ATOM      9  O62 IDS d 303     136.920   7.952  79.117  0.00  0.00    -0.646 OA
ATOM     10  O3  IDS d 303     131.556   7.248  78.810  0.00  0.00    -0.390 OA
ATOM     11  C5  IDS d 303     134.545   7.823  78.871  0.00  0.00     0.152 C 
ATOM     12  O2  IDS d 303     132.346   9.804  81.203  0.00  0.00    -0.244 OA
ATOM     13  C1  IDS d 303     133.369   9.942  79.029  0.00  0.00     0.161 C 
ATOM     14  S   IDS d 303     131.489  10.932  81.884  0.00  0.00     0.252 S 
ATOM     15  C2  IDS d 303     132.244   9.298  79.881  0.00  0.00     0.134 C 
ATOM     16  O5  IDS d 303     134.592   9.227  79.161  0.00  0.00    -0.340 OA
ATOM     17  H   IDS d 303     133.691   6.074  79.728  0.00  0.00     0.092 H 
ATOM     18  H   IDS d 303     131.787   7.470  80.862  0.00  0.00     0.091 H 
ATOM     19  H   IDS d 303     132.014   7.523  78.000  0.00  0.00     0.210 HD
ATOM     20  H   IDS d 303     134.077   7.619  77.931  0.00  0.00     0.104 H 
ATOM     21  H   IDS d 303     133.564  10.933  79.383  0.00  0.00     0.133 H 
ATOM     22  H   IDS d 303     131.324   9.559  79.401  0.00  0.00     0.097 H 
ATOM     23  C2  SGN d 304     134.238   6.809  83.637  0.00  0.00     0.081 C 
ATOM     24  C1  SGN d 304     134.337   6.339  82.159  0.00  0.00     0.150 C 
ATOM     25  O3  SGN d 304     135.349   8.126  85.330  0.00  0.00    -0.391 OA
ATOM     26  O3S SGN d 304     131.220   7.031  85.475  0.00  0.00    -0.296 OA
ATOM     27  O5S SGN d 304     138.284   2.199  83.546  0.00  0.00    -0.572 OA
ATOM     28  O2S SGN d 304     131.850   5.253  83.995  0.00  0.00    -0.296 OA
ATOM     29  O4S SGN d 304     140.063   3.757  83.167  0.00  0.00    -0.572 OA
ATOM     30  O4  SGN d 304     137.718   7.711  84.410  0.00  0.00    -0.348 OA
ATOM     31  O6  SGN d 304     137.803   4.263  82.478  0.00  0.00    -0.254 OA
ATOM     32  S1  SGN d 304     131.585   6.663  84.138  0.00  0.00     0.156 S 
ATOM     33  C4  SGN d 304     136.735   6.871  83.783  0.00  0.00     0.095 C 
ATOM     34  O6S SGN d 304     139.068   2.586  81.329  0.00  0.00    -0.572 OA
ATOM     35  N   SGN d 304     132.956   7.510  83.812  0.00  0.00    -0.210 NA
ATOM     36  C5  SGN d 304     136.780   6.425  82.285  0.00  0.00     0.091 C 
ATOM     37  C3  SGN d 304     135.444   7.708  83.979  0.00  0.00     0.083 C 
ATOM     38  C6  SGN d 304     137.979   5.543  81.907  0.00  0.00     0.067 C 
ATOM     39  O5  SGN d 304     135.585   5.685  81.926  0.00  0.00    -0.349 OA
ATOM     40  O1S SGN d 304     130.636   7.128  83.166  0.00  0.00    -0.296 OA
ATOM     41  S2  SGN d 304     138.878   3.140  82.637  0.00  0.00     0.251 S 
ATOM     42  H   SGN d 304     134.267   5.976  84.309  0.00  0.00     0.076 H 
ATOM     43  H   SGN d 304     133.542   5.643  81.986  0.00  0.00     0.131 H 
ATOM     44  H   SGN d 304     134.541   8.650  85.450  0.00  0.00     0.210 HD
ATOM     45  H   SGN d 304     131.886   6.697  86.095  0.00  0.00     0.231 HD
ATOM     46  H   SGN d 304     132.493   4.976  84.666  0.00  0.00     0.231 HD
ATOM     47  H   SGN d 304     136.872   5.911  84.236  0.00  0.00     0.091 H 
ATOM     48  H   SGN d 304     132.783   8.026  82.949  0.00  0.00     0.140 HD
ATOM     49  H   SGN d 304     136.864   7.347  81.749  0.00  0.00     0.090 H 
ATOM     50  H   SGN d 304     135.461   8.571  83.348  0.00  0.00     0.089 H 
ATOM     51  H   SGN d 304     138.040   5.457  80.842  0.00  0.00     0.080 H 
ATOM     52  H   SGN d 304     138.883   5.983  82.274  0.00  0.00     0.080 H 
ATOM     53  H   SGN d 304     129.791   6.670  83.293  0.00  0.00     0.231 HD
ATOM     54  O62 IDS d 301     131.892  15.426  75.572  0.00  0.00    -0.646 OA
ATOM     55  O1  IDS d 301     130.751  16.706  70.852  0.00  0.00    -0.368 OA
ATOM     56  C4  IDS d 301     132.452  13.658  72.984  0.00  0.00     0.103 C 
ATOM     57  C5  IDS d 301     132.263  15.204  73.219  0.00  0.00     0.152 C 
ATOM     58  O61 IDS d 301     133.573  16.373  74.823  0.00  0.00    -0.646 OA
ATOM     59  S   IDS d 301     131.280  14.085  68.108  0.00  0.00     0.252 S 
ATOM     60  C3  IDS d 301     131.729  13.211  71.675  0.00  0.00     0.094 C 
ATOM     61  C1  IDS d 301     130.569  15.472  71.490  0.00  0.00     0.158 C 
ATOM     62  C6  IDS d 301     132.591  15.695  74.623  0.00  0.00     0.206 C 
ATOM     63  O5  IDS d 301     130.905  15.564  72.880  0.00  0.00    -0.340 OA
ATOM     64  O4  IDS d 301     132.739  12.413  73.640  0.00  0.00    -0.348 OA
ATOM     65  O3S IDS d 301     130.061  14.061  67.338  0.00  0.00    -0.572 OA
ATOM     66  O1S IDS d 301     131.983  15.333  67.977  0.00  0.00    -0.572 OA
ATOM     67  C2  IDS d 301     131.455  14.420  70.758  0.00  0.00     0.134 C 
ATOM     68  O3  IDS d 301     132.543  12.278  70.982  0.00  0.00    -0.390 OA
ATOM     69  O2  IDS d 301     130.792  13.970  69.591  0.00  0.00    -0.244 OA
ATOM     70  O2S IDS d 301     132.115  12.935  67.878  0.00  0.00    -0.572 OA
ATOM     71  H   IDS d 301     130.518  16.622  69.914  0.00  0.00     0.212 HD
ATOM     72  H   IDS d 301     133.305  14.040  73.504  0.00  0.00     0.092 H 
ATOM     73  H   IDS d 301     132.975  15.688  72.584  0.00  0.00     0.104 H 
ATOM     74  H   IDS d 301     130.794  12.763  71.940  0.00  0.00     0.091 H 
ATOM     75  H   IDS d 301     129.542  15.177  71.441  0.00  0.00     0.133 H 
ATOM     76  H   IDS d 301     132.384  14.881  70.499  0.00  0.00     0.097 H 
ATOM     77  H   IDS d 301     133.386  12.695  70.748  0.00  0.00     0.210 HD
ATOM     78  O1S SGN d 302     135.266   9.290  71.067  0.00  0.00    -0.296 OA
ATOM     79  C2  SGN d 302     134.450  10.836  74.460  0.00  0.00     0.081 C 
ATOM     80  S2  SGN d 302     134.922  14.712  79.122  0.00  0.00     0.251 S 
ATOM     81  N   SGN d 302     134.404  10.151  73.157  0.00  0.00    -0.210 NA
ATOM     82  C4  SGN d 302     133.663  10.877  76.830  0.00  0.00     0.095 C 
ATOM     83  O6  SGN d 302     134.468  13.488  78.263  0.00  0.00    -0.254 OA
ATOM     84  C5  SGN d 302     133.138  12.328  76.581  0.00  0.00     0.091 C 
ATOM     85  O4S SGN d 302     134.044  14.780  80.258  0.00  0.00    -0.572 OA
ATOM     86  O2S SGN d 302     136.191  11.313  71.876  0.00  0.00    -0.296 OA
ATOM     87  S1  SGN d 302     135.731  10.002  72.219  0.00  0.00     0.156 S 
ATOM     88  O5S SGN d 302     136.271  14.424  79.500  0.00  0.00    -0.572 OA
ATOM     89  O6S SGN d 302     134.813  15.848  78.254  0.00  0.00    -0.572 OA
ATOM     90  C6  SGN d 302     133.154  13.235  77.824  0.00  0.00     0.067 C 
ATOM     91  O3  SGN d 302     134.062   8.793  75.644  0.00  0.00    -0.391 OA
ATOM     92  C3  SGN d 302     133.584  10.118  75.487  0.00  0.00     0.083 C 
ATOM     93  O4  SGN d 302     132.943  10.010  77.702  0.00  0.00    -0.348 OA
ATOM     94  O3S SGN d 302     136.678   9.255  72.996  0.00  0.00    -0.296 OA
ATOM     95  C1  SGN d 302     133.978  12.302  74.286  0.00  0.00     0.150 C 
ATOM     96  O5  SGN d 302     133.933  12.976  75.549  0.00  0.00    -0.349 OA
ATOM     97  H   SGN d 302     134.631   9.840  70.581  0.00  0.00     0.231 HD
ATOM     98  H   SGN d 302     135.459  10.825  74.820  0.00  0.00     0.076 H 
ATOM     99  H   SGN d 302     133.711  10.648  72.596  0.00  0.00     0.140 HD
ATOM    100  H   SGN d 302     134.618  11.060  77.275  0.00  0.00     0.091 H 
ATOM    101  H   SGN d 302     132.117  12.206  76.286  0.00  0.00     0.090 H 
ATOM    102  H   SGN d 302     135.511  11.767  71.354  0.00  0.00     0.231 HD
ATOM    103  H   SGN d 302     132.684  14.165  77.581  0.00  0.00     0.080 H 
ATOM    104  H   SGN d 302     132.629  12.734  78.610  0.00  0.00     0.080 H 
ATOM    105  H   SGN d 302     134.008   8.328  74.795  0.00  0.00     0.210 HD
ATOM    106  H   SGN d 302     132.565  10.089  75.163  0.00  0.00     0.089 H 
ATOM    107  H   SGN d 302     136.312   8.380  73.196  0.00  0.00     0.231 HD
ATOM    108  H   SGN d 302     134.703  12.771  73.654  0.00  0.00     0.131 H 
ATOM    109  C1  IDS d 305     138.857   7.106  84.970  0.00  0.00     0.161 C 
ATOM    110  O1S IDS d 305     141.479   8.813  81.663  0.00  0.00    -0.572 OA
ATOM    111  S   IDS d 305     140.804   9.387  82.793  0.00  0.00     0.252 S 
ATOM    112  C4  IDS d 305     140.227   7.816  87.556  0.00  0.00    -0.005 C 
ATOM    113  O61 IDS d 305     137.384   7.380  89.369  0.00  0.00    -0.646 OA
ATOM    114  O3  IDS d 305     141.965   8.850  86.240  0.00  0.00    -0.393 OA
ATOM    115  O62 IDS d 305     138.374   5.612  88.923  0.00  0.00    -0.646 OA
ATOM    116  O2S IDS d 305     139.479   9.823  82.467  0.00  0.00    -0.572 OA
ATOM    117  O2  IDS d 305     140.677   8.205  83.812  0.00  0.00    -0.244 OA
ATOM    118  O5  IDS d 305     138.572   6.543  86.261  0.00  0.00    -0.343 OA
ATOM    119  C5  IDS d 305     138.720   7.424  87.396  0.00  0.00     0.127 C 
ATOM    120  C3  IDS d 305     140.959   7.857  86.184  0.00  0.00     0.069 C 
ATOM    121  C2  IDS d 305     139.972   8.184  85.044  0.00  0.00     0.132 C 
ATOM    122  C6  IDS d 305     138.126   6.762  88.636  0.00  0.00     0.203 C 
ATOM    123  O3S IDS d 305     141.584  10.391  83.454  0.00  0.00    -0.572 OA
ATOM    124  H   IDS d 305     139.180   6.289  84.359  0.00  0.00     0.133 H 
ATOM    125  H   IDS d 305     140.287   8.783  88.010  0.00  0.00     0.041 H 
ATOM    126  H   IDS d 305     140.702   7.076  88.165  0.00  0.00     0.041 H 
ATOM    127  H   IDS d 305     142.584   8.643  86.958  0.00  0.00     0.210 HD
ATOM    128  H   IDS d 305     138.180   8.336  87.249  0.00  0.00     0.100 H 
ATOM    129  H   IDS d 305     141.389   6.898  85.986  0.00  0.00     0.087 H 
ATOM    130  H   IDS d 305     139.524   9.137  85.232  0.00  0.00     0.097 H 
ENDROOT
TORSDOF 39
ENDMDL
MODEL 33
REMARK VINA RESULT:      -5.6      2.051      2.386
REMARK  0 active torsions:
REMARK  status: ('A' for Active; 'I' for Inactive)
REMARK       I    between atoms: C2_2  and  N_68 
REMARK       I    between atoms: C1_3  and  O4_24 
REMARK       I    between atoms: O1S_5  and  S1_58 
REMARK       I    between atoms: O1_6  and  C1_31 
REMARK       I    between atoms: C4_7  and  O4_36 
REMARK       I    between atoms: C1_8  and  O4_37 
REMARK       I    between atoms: O3_9  and  C3_74 
REMARK       I    between atoms: C5_10  and  C6_32 
REMARK       I    between atoms: C2_11  and  N_20 
REMARK       I    between atoms: C6_12  and  C5_53 
REMARK       I    between atoms: S2_14  and  O6_33 
REMARK       I    between atoms: O3S_16  and  S1_51 
REMARK       I    between atoms: S_17  and  O2_44 
REMARK       I    between atoms: N_20  and  S1_58 
REMARK       I    between atoms: O4_24  and  C4_38 
REMARK       I    between atoms: S_25  and  O2_64 
REMARK       I    between atoms: O2S_27  and  S1_51 
REMARK       I    between atoms: C4_28  and  O4_73 
REMARK       I    between atoms: C3_30  and  O3_62 
REMARK       I    between atoms: O6_33  and  C6_63 
REMARK       I    between atoms: O3_35  and  C3_55 
REMARK       I    between atoms: O4_36  and  C1_84 
REMARK       I    between atoms: O4_37  and  C4_54 
REMARK       I    between atoms: C3_39  and  O3_48 
REMARK       I    between atoms: C5_42  and  C6_63 
REMARK       I    between atoms: O2_44  and  C2_61 
REMARK       I    between atoms: O6_45  and  C6_77 
REMARK       I    between atoms: O6_45  and  S2_82 
REMARK       I    between atoms: C5_49  and  C6_76 
REMARK       I    between atoms: S1_51  and  N_68 
REMARK       I    between atoms: S1_51  and  O1S_81 
REMARK       I    between atoms: O2S_52  and  S1_58 
REMARK       I    between atoms: C2_57  and  O2_64 
REMARK       I    between atoms: S1_58  and  O3S_75 
REMARK       I    between atoms: O3_66  and  C3_67 
REMARK       I    between atoms: O2_69  and  C2_79 
REMARK       I    between atoms: O2_69  and  S_72 
REMARK       I    between atoms: C5_70  and  C6_77 
REMARK       I    between atoms: C1_71  and  O4_73 
ROOT
ATOM      1  O2S IDS d 303     133.293   3.845  76.929  0.00  0.00    -0.572 OA
ATOM      2  C6  IDS d 303     134.534  10.783  75.232  0.00  0.00     0.206 C 
ATOM      3  O1S IDS d 303     135.267   4.600  78.042  0.00  0.00    -0.572 OA
ATOM      4  O3S IDS d 303     133.132   4.865  79.101  0.00  0.00    -0.572 OA
ATOM      5  O4  IDS d 303     133.356   7.964  74.748  0.00  0.00    -0.348 OA
ATOM      6  O61 IDS d 303     133.929  11.725  74.762  0.00  0.00    -0.646 OA
ATOM      7  C4  IDS d 303     132.777   8.922  75.646  0.00  0.00     0.103 C 
ATOM      8  C3  IDS d 303     132.176   8.045  76.782  0.00  0.00     0.094 C 
ATOM      9  O62 IDS d 303     135.683  10.614  74.880  0.00  0.00    -0.646 OA
ATOM     10  O3  IDS d 303     131.312   8.855  77.559  0.00  0.00    -0.390 OA
ATOM     11  C5  IDS d 303     133.872   9.843  76.239  0.00  0.00     0.152 C 
ATOM     12  O2  IDS d 303     133.685   6.193  77.154  0.00  0.00    -0.244 OA
ATOM     13  C1  IDS d 303     134.487   8.296  78.007  0.00  0.00     0.161 C 
ATOM     14  S   IDS d 303     133.855   4.796  77.856  0.00  0.00     0.252 S 
ATOM     15  C2  IDS d 303     133.241   7.415  77.722  0.00  0.00     0.134 C 
ATOM     16  O5  IDS d 303     134.880   9.027  76.851  0.00  0.00    -0.340 OA
ATOM     17  H   IDS d 303     132.059   9.554  75.164  0.00  0.00     0.092 H 
ATOM     18  H   IDS d 303     131.664   7.232  76.311  0.00  0.00     0.091 H 
ATOM     19  H   IDS d 303     131.821   9.575  77.963  0.00  0.00     0.210 HD
ATOM     20  H   IDS d 303     133.377  10.475  76.947  0.00  0.00     0.104 H 
ATOM     21  H   IDS d 303     135.318   7.671  78.260  0.00  0.00     0.133 H 
ATOM     22  H   IDS d 303     132.749   7.287  78.663  0.00  0.00     0.097 H 
ATOM     23  C2  SGN d 304     133.024   6.373  72.911  0.00  0.00     0.081 C 
ATOM     24  C1  SGN d 304     132.748   7.790  73.486  0.00  0.00     0.150 C 
ATOM     25  O3  SGN d 304     134.763   4.939  72.042  0.00  0.00    -0.391 OA
ATOM     26  O3S SGN d 304     131.023   3.523  73.551  0.00  0.00    -0.296 OA
ATOM     27  O5S SGN d 304     132.765  10.179  68.107  0.00  0.00    -0.572 OA
ATOM     28  O2S SGN d 304     130.228   5.735  73.081  0.00  0.00    -0.296 OA
ATOM     29  O4S SGN d 304     135.122  10.569  68.280  0.00  0.00    -0.572 OA
ATOM     30  O4  SGN d 304     136.176   6.867  71.082  0.00  0.00    -0.348 OA
ATOM     31  O6  SGN d 304     133.826   9.926  70.215  0.00  0.00    -0.254 OA
ATOM     32  S1  SGN d 304     131.011   4.898  73.955  0.00  0.00     0.156 S 
ATOM     33  C4  SGN d 304     134.874   7.304  71.508  0.00  0.00     0.095 C 
ATOM     34  O6S SGN d 304     133.565  12.106  69.259  0.00  0.00    -0.572 OA
ATOM     35  N   SGN d 304     132.583   5.379  73.904  0.00  0.00    -0.210 NA
ATOM     36  C5  SGN d 304     134.576   8.704  72.139  0.00  0.00     0.091 C 
ATOM     37  C3  SGN d 304     134.522   6.231  72.572  0.00  0.00     0.083 C 
ATOM     38  C6  SGN d 304     134.828   9.900  71.210  0.00  0.00     0.067 C 
ATOM     39  O5  SGN d 304     133.195   8.794  72.575  0.00  0.00    -0.349 OA
ATOM     40  O1S SGN d 304     130.632   5.060  75.330  0.00  0.00    -0.296 OA
ATOM     41  S2  SGN d 304     133.831  10.747  68.886  0.00  0.00     0.251 S 
ATOM     42  H   SGN d 304     132.480   6.213  72.003  0.00  0.00     0.076 H 
ATOM     43  H   SGN d 304     131.690   7.886  73.618  0.00  0.00     0.131 H 
ATOM     44  H   SGN d 304     134.542   4.270  72.710  0.00  0.00     0.210 HD
ATOM     45  H   SGN d 304     131.284   3.462  72.619  0.00  0.00     0.231 HD
ATOM     46  H   SGN d 304     130.512   5.599  72.164  0.00  0.00     0.231 HD
ATOM     47  H   SGN d 304     134.317   7.419  70.602  0.00  0.00     0.091 H 
ATOM     48  H   SGN d 304     132.801   5.766  74.823  0.00  0.00     0.140 HD
ATOM     49  H   SGN d 304     135.265   8.766  72.955  0.00  0.00     0.090 H 
ATOM     50  H   SGN d 304     135.120   6.365  73.448  0.00  0.00     0.089 H 
ATOM     51  H   SGN d 304     134.796  10.807  71.776  0.00  0.00     0.080 H 
ATOM     52  H   SGN d 304     135.791   9.807  70.753  0.00  0.00     0.080 H 
ATOM     53  H   SGN d 304     129.706   4.794  75.444  0.00  0.00     0.231 HD
ATOM     54  O62 IDS d 301     137.151   8.029  84.093  0.00  0.00    -0.646 OA
ATOM     55  O1  IDS d 301     137.136  10.725  88.329  0.00  0.00    -0.368 OA
ATOM     56  C4  IDS d 301     136.295  11.085  84.343  0.00  0.00     0.103 C 
ATOM     57  C5  IDS d 301     137.229  10.149  85.199  0.00  0.00     0.152 C 
ATOM     58  O61 IDS d 301     139.009   8.936  84.190  0.00  0.00    -0.646 OA
ATOM     59  S   IDS d 301     135.666  14.261  88.197  0.00  0.00     0.252 S 
ATOM     60  C3  IDS d 301     135.443  12.005  85.273  0.00  0.00     0.094 C 
ATOM     61  C1  IDS d 301     136.162  10.675  87.323  0.00  0.00     0.158 C 
ATOM     62  C6  IDS d 301     137.828   8.965  84.450  0.00  0.00     0.206 C 
ATOM     63  O5  IDS d 301     136.490   9.679  86.347  0.00  0.00    -0.340 OA
ATOM     64  O4  IDS d 301     135.653  11.228  83.066  0.00  0.00    -0.348 OA
ATOM     65  O3S IDS d 301     134.756  14.358  89.311  0.00  0.00    -0.572 OA
ATOM     66  O1S IDS d 301     137.034  14.127  88.620  0.00  0.00    -0.572 OA
ATOM     67  C2  IDS d 301     136.065  12.091  86.680  0.00  0.00     0.134 C 
ATOM     68  O3  IDS d 301     135.376  13.308  84.713  0.00  0.00    -0.390 OA
ATOM     69  O2  IDS d 301     135.257  12.925  87.489  0.00  0.00    -0.244 OA
ATOM     70  O2S IDS d 301     135.472  15.300  87.218  0.00  0.00    -0.572 OA
ATOM     71  H   IDS d 301     136.895  11.405  88.978  0.00  0.00     0.212 HD
ATOM     72  H   IDS d 301     137.184  10.875  83.786  0.00  0.00     0.092 H 
ATOM     73  H   IDS d 301     138.069  10.749  85.481  0.00  0.00     0.104 H 
ATOM     74  H   IDS d 301     134.461  11.587  85.356  0.00  0.00     0.091 H 
ATOM     75  H   IDS d 301     135.215  10.400  87.737  0.00  0.00     0.133 H 
ATOM     76  H   IDS d 301     137.052  12.497  86.604  0.00  0.00     0.097 H 
ATOM     77  H   IDS d 301     136.271  13.676  84.643  0.00  0.00     0.210 HD
ATOM     78  O1S SGN d 302     135.284  15.704  81.458  0.00  0.00    -0.296 OA
ATOM     79  C2  SGN d 302     135.815  11.995  80.726  0.00  0.00     0.081 C 
ATOM     80  S2  SGN d 302     138.904   6.826  79.877  0.00  0.00     0.251 S 
ATOM     81  N   SGN d 302     135.288  13.304  81.149  0.00  0.00    -0.210 NA
ATOM     82  C4  SGN d 302     135.310   9.761  79.731  0.00  0.00     0.095 C 
ATOM     83  O6  SGN d 302     137.717   7.842  79.936  0.00  0.00    -0.254 OA
ATOM     84  C5  SGN d 302     135.928   9.105  81.008  0.00  0.00     0.091 C 
ATOM     85  O4S SGN d 302     138.335   5.520  79.698  0.00  0.00    -0.572 OA
ATOM     86  O2S SGN d 302     137.362  14.585  81.638  0.00  0.00    -0.296 OA
ATOM     87  S1  SGN d 302     136.130  14.683  80.917  0.00  0.00     0.156 S 
ATOM     88  O5S SGN d 302     139.687   7.232  78.751  0.00  0.00    -0.572 OA
ATOM     89  O6S SGN d 302     139.596   6.977  81.124  0.00  0.00    -0.572 OA
ATOM     90  C6  SGN d 302     136.586   7.735  80.767  0.00  0.00     0.067 C 
ATOM     91  O3  SGN d 302     134.142  11.774  79.030  0.00  0.00    -0.391 OA
ATOM     92  C3  SGN d 302     134.708  11.119  80.152  0.00  0.00     0.083 C 
ATOM     93  O4  SGN d 302     134.205   9.136  79.086  0.00  0.00    -0.348 OA
ATOM     94  O3S SGN d 302     136.311  14.798  79.498  0.00  0.00    -0.296 OA
ATOM     95  C1  SGN d 302     136.483  11.296  81.938  0.00  0.00     0.150 C 
ATOM     96  O5  SGN d 302     136.935   9.984  81.583  0.00  0.00    -0.349 OA
ATOM     97  H   SGN d 302     135.197  15.578  82.416  0.00  0.00     0.231 HD
ATOM     98  H   SGN d 302     136.542  12.148  79.955  0.00  0.00     0.076 H 
ATOM     99  H   SGN d 302     135.121  13.236  82.154  0.00  0.00     0.140 HD
ATOM    100  H   SGN d 302     136.134   9.739  79.049  0.00  0.00     0.091 H 
ATOM    101  H   SGN d 302     135.101   8.952  81.669  0.00  0.00     0.090 H 
ATOM    102  H   SGN d 302     137.176  14.510  82.587  0.00  0.00     0.231 HD
ATOM    103  H   SGN d 302     136.884   7.322  81.708  0.00  0.00     0.080 H 
ATOM    104  H   SGN d 302     135.872   7.102  80.281  0.00  0.00     0.080 H 
ATOM    105  H   SGN d 302     133.768  12.625  79.307  0.00  0.00     0.210 HD
ATOM    106  H   SGN d 302     133.946  10.951  80.884  0.00  0.00     0.089 H 
ATOM    107  H   SGN d 302     135.445  14.860  79.066  0.00  0.00     0.231 HD
ATOM    108  H   SGN d 302     137.321  11.906  82.204  0.00  0.00     0.131 H 
ATOM    109  C1  IDS d 305     136.590   7.174  69.774  0.00  0.00     0.161 C 
ATOM    110  O1S IDS d 305     139.613  10.184  71.364  0.00  0.00    -0.572 OA
ATOM    111  S   IDS d 305     139.539   8.750  71.372  0.00  0.00     0.252 S 
ATOM    112  C4  IDS d 305     138.112   5.407  67.869  0.00  0.00    -0.005 C 
ATOM    113  O61 IDS d 305     135.783   2.936  68.048  0.00  0.00    -0.646 OA
ATOM    114  O3  IDS d 305     140.062   6.749  68.331  0.00  0.00    -0.393 OA
ATOM    115  O62 IDS d 305     135.270   4.480  66.759  0.00  0.00    -0.646 OA
ATOM    116  O2S IDS d 305     138.877   8.250  72.540  0.00  0.00    -0.572 OA
ATOM    117  O2  IDS d 305     138.647   8.399  70.134  0.00  0.00    -0.244 OA
ATOM    118  O5  IDS d 305     136.015   6.272  68.815  0.00  0.00    -0.343 OA
ATOM    119  C5  IDS d 305     136.749   5.055  68.554  0.00  0.00     0.127 C 
ATOM    120  C3  IDS d 305     138.648   6.791  68.334  0.00  0.00     0.069 C 
ATOM    121  C2  IDS d 305     138.142   7.129  69.752  0.00  0.00     0.132 C 
ATOM    122  C6  IDS d 305     135.881   4.103  67.736  0.00  0.00     0.203 C 
ATOM    123  O3S IDS d 305     140.807   8.128  71.129  0.00  0.00    -0.572 OA
ATOM    124  H   IDS d 305     136.250   8.151  69.498  0.00  0.00     0.133 H 
ATOM    125  H   IDS d 305     138.830   4.654  68.120  0.00  0.00     0.041 H 
ATOM    126  H   IDS d 305     137.954   5.448  66.812  0.00  0.00     0.041 H 
ATOM    127  H   IDS d 305     140.378   6.536  67.440  0.00  0.00     0.210 HD
ATOM    128  H   IDS d 305     136.985   4.544  69.464  0.00  0.00     0.100 H 
ATOM    129  H   IDS d 305     138.294   7.547  67.666  0.00  0.00     0.087 H 
ATOM    130  H   IDS d 305     138.479   6.375  70.432  0.00  0.00     0.097 H 
ENDROOT
TORSDOF 39
ENDMDL
MODEL 34
REMARK VINA RESULT:      -5.6      3.832      5.271
REMARK  0 active torsions:
REMARK  status: ('A' for Active; 'I' for Inactive)
REMARK       I    between atoms: C2_2  and  N_68 
REMARK       I    between atoms: C1_3  and  O4_24 
REMARK       I    between atoms: O1S_5  and  S1_58 
REMARK       I    between atoms: O1_6  and  C1_31 
REMARK       I    between atoms: C4_7  and  O4_36 
REMARK       I    between atoms: C1_8  and  O4_37 
REMARK       I    between atoms: O3_9  and  C3_74 
REMARK       I    between atoms: C5_10  and  C6_32 
REMARK       I    between atoms: C2_11  and  N_20 
REMARK       I    between atoms: C6_12  and  C5_53 
REMARK       I    between atoms: S2_14  and  O6_33 
REMARK       I    between atoms: O3S_16  and  S1_51 
REMARK       I    between atoms: S_17  and  O2_44 
REMARK       I    between atoms: N_20  and  S1_58 
REMARK       I    between atoms: O4_24  and  C4_38 
REMARK       I    between atoms: S_25  and  O2_64 
REMARK       I    between atoms: O2S_27  and  S1_51 
REMARK       I    between atoms: C4_28  and  O4_73 
REMARK       I    between atoms: C3_30  and  O3_62 
REMARK       I    between atoms: O6_33  and  C6_63 
REMARK       I    between atoms: O3_35  and  C3_55 
REMARK       I    between atoms: O4_36  and  C1_84 
REMARK       I    between atoms: O4_37  and  C4_54 
REMARK       I    between atoms: C3_39  and  O3_48 
REMARK       I    between atoms: C5_42  and  C6_63 
REMARK       I    between atoms: O2_44  and  C2_61 
REMARK       I    between atoms: O6_45  and  C6_77 
REMARK       I    between atoms: O6_45  and  S2_82 
REMARK       I    between atoms: C5_49  and  C6_76 
REMARK       I    between atoms: S1_51  and  N_68 
REMARK       I    between atoms: S1_51  and  O1S_81 
REMARK       I    between atoms: O2S_52  and  S1_58 
REMARK       I    between atoms: C2_57  and  O2_64 
REMARK       I    between atoms: S1_58  and  O3S_75 
REMARK       I    between atoms: O3_66  and  C3_67 
REMARK       I    between atoms: O2_69  and  C2_79 
REMARK       I    between atoms: O2_69  and  S_72 
REMARK       I    between atoms: C5_70  and  C6_77 
REMARK       I    between atoms: C1_71  and  O4_73 
ROOT
ATOM      1  O2S IDS d 303     130.721   4.298  75.168  0.00  0.00    -0.572 OA
ATOM      2  C6  IDS d 303     134.209  10.584  76.103  0.00  0.00     0.206 C 
ATOM      3  O1S IDS d 303     133.068   3.892  75.337  0.00  0.00    -0.572 OA
ATOM      4  O3S IDS d 303     131.723   3.928  77.322  0.00  0.00    -0.572 OA
ATOM      5  O4  IDS d 303     131.845   8.821  75.166  0.00  0.00    -0.348 OA
ATOM      6  O61 IDS d 303     133.953  11.723  76.434  0.00  0.00    -0.646 OA
ATOM      7  C4  IDS d 303     132.059   9.200  76.534  0.00  0.00     0.103 C 
ATOM      8  C3  IDS d 303     131.541   7.974  77.339  0.00  0.00     0.094 C 
ATOM      9  O62 IDS d 303     134.991  10.420  75.190  0.00  0.00    -0.646 OA
ATOM     10  O3  IDS d 303     131.410   8.359  78.697  0.00  0.00    -0.390 OA
ATOM     11  C5  IDS d 303     133.569   9.392  76.815  0.00  0.00     0.152 C 
ATOM     12  O2  IDS d 303     132.135   5.981  76.107  0.00  0.00    -0.244 OA
ATOM     13  C1  IDS d 303     133.991   7.035  77.219  0.00  0.00     0.161 C 
ATOM     14  S   IDS d 303     131.903   4.431  75.984  0.00  0.00     0.252 S 
ATOM     15  C2  IDS d 303     132.470   6.731  77.264  0.00  0.00     0.134 C 
ATOM     16  O5  IDS d 303     134.265   8.195  76.442  0.00  0.00    -0.340 OA
ATOM     17  H   IDS d 303     131.571  10.119  76.785  0.00  0.00     0.092 H 
ATOM     18  H   IDS d 303     130.607   7.686  76.903  0.00  0.00     0.091 H 
ATOM     19  H   IDS d 303     132.280   8.610  79.046  0.00  0.00     0.210 HD
ATOM     20  H   IDS d 303     133.653   9.600  77.861  0.00  0.00     0.104 H 
ATOM     21  H   IDS d 303     134.504   6.228  76.740  0.00  0.00     0.133 H 
ATOM     22  H   IDS d 303     132.303   6.196  78.175  0.00  0.00     0.097 H 
ATOM     23  C2  SGN d 304     130.288   8.640  73.279  0.00  0.00     0.081 C 
ATOM     24  C1  SGN d 304     130.851   9.509  74.437  0.00  0.00     0.150 C 
ATOM     25  O3  SGN d 304     130.858   7.634  71.158  0.00  0.00    -0.391 OA
ATOM     26  O3S SGN d 304     127.580   6.382  73.598  0.00  0.00    -0.296 OA
ATOM     27  O5S SGN d 304     130.163  14.448  71.311  0.00  0.00    -0.572 OA
ATOM     28  O2S SGN d 304     127.711   8.579  74.547  0.00  0.00    -0.296 OA
ATOM     29  O4S SGN d 304     132.374  14.203  70.423  0.00  0.00    -0.572 OA
ATOM     30  O4  SGN d 304     132.570   9.446  70.510  0.00  0.00    -0.348 OA
ATOM     31  O6  SGN d 304     131.627  12.853  72.282  0.00  0.00    -0.254 OA
ATOM     32  S1  SGN d 304     128.293   7.262  74.476  0.00  0.00     0.156 S 
ATOM     33  C4  SGN d 304     131.798   9.813  71.666  0.00  0.00     0.095 C 
ATOM     34  O6S SGN d 304     132.038  15.192  72.579  0.00  0.00    -0.572 OA
ATOM     35  N   SGN d 304     129.809   7.369  73.848  0.00  0.00    -0.210 NA
ATOM     36  C5  SGN d 304     132.353  10.642  72.870  0.00  0.00     0.091 C 
ATOM     37  C3  SGN d 304     131.381   8.422  72.212  0.00  0.00     0.083 C 
ATOM     38  C6  SGN d 304     132.781  12.076  72.528  0.00  0.00     0.067 C 
ATOM     39  O5  SGN d 304     131.367  10.741  73.931  0.00  0.00    -0.349 OA
ATOM     40  O1S SGN d 304     128.485   6.694  75.781  0.00  0.00    -0.296 OA
ATOM     41  S2  SGN d 304     131.557  14.258  71.604  0.00  0.00     0.251 S 
ATOM     42  H   SGN d 304     129.469   9.128  72.793  0.00  0.00     0.076 H 
ATOM     43  H   SGN d 304     130.043   9.720  75.107  0.00  0.00     0.131 H 
ATOM     44  H   SGN d 304     130.599   6.765  71.502  0.00  0.00     0.210 HD
ATOM     45  H   SGN d 304     127.474   6.805  72.732  0.00  0.00     0.231 HD
ATOM     46  H   SGN d 304     127.597   8.930  73.650  0.00  0.00     0.231 HD
ATOM     47  H   SGN d 304     131.086  10.524  71.301  0.00  0.00     0.091 H 
ATOM     48  H   SGN d 304     130.455   7.121  74.598  0.00  0.00     0.140 HD
ATOM     49  H   SGN d 304     133.223  10.098  73.173  0.00  0.00     0.090 H 
ATOM     50  H   SGN d 304     132.226   7.921  72.636  0.00  0.00     0.089 H 
ATOM     51  H   SGN d 304     133.327  12.494  73.348  0.00  0.00     0.080 H 
ATOM     52  H   SGN d 304     133.406  12.070  71.659  0.00  0.00     0.080 H 
ATOM     53  H   SGN d 304     127.626   6.597  76.222  0.00  0.00     0.231 HD
ATOM     54  O62 IDS d 301     138.082   2.879  80.413  0.00  0.00    -0.646 OA
ATOM     55  O1  IDS d 301     140.594   2.668  84.755  0.00  0.00    -0.368 OA
ATOM     56  C4  IDS d 301     138.757   5.362  82.287  0.00  0.00     0.103 C 
ATOM     57  C5  IDS d 301     139.417   3.946  82.087  0.00  0.00     0.152 C 
ATOM     58  O61 IDS d 301     140.070   3.189  79.929  0.00  0.00    -0.646 OA
ATOM     59  S   IDS d 301     140.835   5.872  86.843  0.00  0.00     0.252 S 
ATOM     60  C3  IDS d 301     138.734   5.746  83.800  0.00  0.00     0.094 C 
ATOM     61  C1  IDS d 301     139.428   3.384  84.456  0.00  0.00     0.158 C 
ATOM     62  C6  IDS d 301     139.170   3.298  80.730  0.00  0.00     0.206 C 
ATOM     63  O5  IDS d 301     138.961   3.068  83.139  0.00  0.00    -0.340 OA
ATOM     64  O4  IDS d 301     137.866   6.320  81.694  0.00  0.00    -0.348 OA
ATOM     65  O3S IDS d 301     140.468   5.502  88.187  0.00  0.00    -0.572 OA
ATOM     66  O1S IDS d 301     142.067   5.259  86.425  0.00  0.00    -0.572 OA
ATOM     67  C2  IDS d 301     139.749   4.902  84.596  0.00  0.00     0.134 C 
ATOM     68  O3  IDS d 301     139.059   7.120  83.942  0.00  0.00    -0.390 OA
ATOM     69  O2  IDS d 301     139.687   5.276  85.960  0.00  0.00    -0.244 OA
ATOM     70  O2S IDS d 301     140.803   7.295  86.621  0.00  0.00    -0.572 OA
ATOM     71  H   IDS d 301     140.892   2.897  85.650  0.00  0.00     0.212 HD
ATOM     72  H   IDS d 301     139.236   5.332  81.331  0.00  0.00     0.092 H 
ATOM     73  H   IDS d 301     140.474   4.105  82.128  0.00  0.00     0.104 H 
ATOM     74  H   IDS d 301     137.753   5.555  84.183  0.00  0.00     0.091 H 
ATOM     75  H   IDS d 301     138.643   3.116  85.132  0.00  0.00     0.133 H 
ATOM     76  H   IDS d 301     140.731   5.078  84.211  0.00  0.00     0.097 H 
ATOM     77  H   IDS d 301     139.949   7.280  83.592  0.00  0.00     0.210 HD
ATOM     78  O1S SGN d 302     138.965  10.893  82.491  0.00  0.00    -0.296 OA
ATOM     79  C2  SGN d 302     137.579   8.220  80.145  0.00  0.00     0.081 C 
ATOM     80  S2  SGN d 302     137.685   3.937  75.829  0.00  0.00     0.251 S 
ATOM     81  N   SGN d 302     137.835   9.138  81.269  0.00  0.00    -0.210 NA
ATOM     82  C4  SGN d 302     135.871   7.083  78.722  0.00  0.00     0.095 C 
ATOM     83  O6  SGN d 302     137.140   4.953  76.885  0.00  0.00    -0.254 OA
ATOM     84  C5  SGN d 302     136.521   5.716  79.116  0.00  0.00     0.091 C 
ATOM     85  O4S SGN d 302     136.584   3.099  75.441  0.00  0.00    -0.572 OA
ATOM     86  O2S SGN d 302     140.293   9.486  81.129  0.00  0.00    -0.296 OA
ATOM     87  S1  SGN d 302     139.064  10.211  81.236  0.00  0.00     0.156 S 
ATOM     88  O5S SGN d 302     138.157   4.743  74.745  0.00  0.00    -0.572 OA
ATOM     89  O6S SGN d 302     138.734   3.222  76.494  0.00  0.00    -0.572 OA
ATOM     90  C6  SGN d 302     136.407   4.622  78.041  0.00  0.00     0.067 C 
ATOM     91  O3  SGN d 302     135.528   9.323  79.600  0.00  0.00    -0.391 OA
ATOM     92  C3  SGN d 302     136.084   8.055  79.902  0.00  0.00     0.083 C 
ATOM     93  O4  SGN d 302     134.462   7.159  78.527  0.00  0.00    -0.348 OA
ATOM     94  O3S SGN d 302     138.810  11.065  80.112  0.00  0.00    -0.296 OA
ATOM     95  C1  SGN d 302     138.231   6.846  80.447  0.00  0.00     0.150 C 
ATOM     96  O5  SGN d 302     137.934   5.903  79.411  0.00  0.00    -0.349 OA
ATOM     97  H   SGN d 302     139.146  10.270  83.213  0.00  0.00     0.231 HD
ATOM     98  H   SGN d 302     138.010   8.634  79.257  0.00  0.00     0.076 H 
ATOM     99  H   SGN d 302     137.988   8.551  82.090  0.00  0.00     0.140 HD
ATOM    100  H   SGN d 302     136.337   7.287  77.781  0.00  0.00     0.091 H 
ATOM    101  H   SGN d 302     135.971   5.384  79.971  0.00  0.00     0.090 H 
ATOM    102  H   SGN d 302     140.409   8.928  81.914  0.00  0.00     0.231 HD
ATOM    103  H   SGN d 302     136.784   3.703  78.440  0.00  0.00     0.080 H 
ATOM    104  H   SGN d 302     135.377   4.526  77.768  0.00  0.00     0.080 H 
ATOM    105  H   SGN d 302     135.668   9.924  80.347  0.00  0.00     0.210 HD
ATOM    106  H   SGN d 302     135.605   7.658  80.772  0.00  0.00     0.089 H 
ATOM    107  H   SGN d 302     137.967  11.527  80.242  0.00  0.00     0.231 HD
ATOM    108  H   SGN d 302     139.286   7.023  80.480  0.00  0.00     0.131 H 
ATOM    109  C1  IDS d 305     132.631  10.347  69.432  0.00  0.00     0.161 C 
ATOM    110  O1S IDS d 305     136.988  11.280  70.365  0.00  0.00    -0.572 OA
ATOM    111  S   IDS d 305     136.310  10.138  69.820  0.00  0.00     0.252 S 
ATOM    112  C4  IDS d 305     132.539   9.699  66.493  0.00  0.00    -0.005 C 
ATOM    113  O61 IDS d 305     129.569   8.069  66.780  0.00  0.00    -0.646 OA
ATOM    114  O3  IDS d 305     134.910  10.136  66.420  0.00  0.00    -0.393 OA
ATOM    115  O62 IDS d 305     129.387  10.134  66.689  0.00  0.00    -0.646 OA
ATOM    116  O2S IDS d 305     135.912   9.210  70.836  0.00  0.00    -0.572 OA
ATOM    117  O2  IDS d 305     135.008  10.726  69.179  0.00  0.00    -0.244 OA
ATOM    118  O5  IDS d 305     131.449  10.274  68.619  0.00  0.00    -0.343 OA
ATOM    119  C5  IDS d 305     131.459   9.298  67.552  0.00  0.00     0.127 C 
ATOM    120  C3  IDS d 305     133.737  10.445  67.147  0.00  0.00     0.069 C 
ATOM    121  C2  IDS d 305     133.912  10.019  68.619  0.00  0.00     0.132 C 
ATOM    122  C6  IDS d 305     130.054   9.163  66.973  0.00  0.00     0.203 C 
ATOM    123  O3S IDS d 305     137.033   9.526  68.745  0.00  0.00    -0.572 OA
ATOM    124  H   IDS d 305     132.676  11.354  69.793  0.00  0.00     0.133 H 
ATOM    125  H   IDS d 305     132.902   8.812  66.015  0.00  0.00     0.041 H 
ATOM    126  H   IDS d 305     132.083  10.357  65.783  0.00  0.00     0.041 H 
ATOM    127  H   IDS d 305     134.798  10.404  65.495  0.00  0.00     0.210 HD
ATOM    128  H   IDS d 305     131.731   8.331  67.918  0.00  0.00     0.100 H 
ATOM    129  H   IDS d 305     133.549  11.498  67.126  0.00  0.00     0.087 H 
ATOM    130  H   IDS d 305     134.091   8.965  68.659  0.00  0.00     0.097 H 
ENDROOT
TORSDOF 39
ENDMDL
MODEL 35
REMARK VINA RESULT:      -5.6      4.756      8.009
REMARK  0 active torsions:
REMARK  status: ('A' for Active; 'I' for Inactive)
REMARK       I    between atoms: C2_2  and  N_68 
REMARK       I    between atoms: C1_3  and  O4_24 
REMARK       I    between atoms: O1S_5  and  S1_58 
REMARK       I    between atoms: O1_6  and  C1_31 
REMARK       I    between atoms: C4_7  and  O4_36 
REMARK       I    between atoms: C1_8  and  O4_37 
REMARK       I    between atoms: O3_9  and  C3_74 
REMARK       I    between atoms: C5_10  and  C6_32 
REMARK       I    between atoms: C2_11  and  N_20 
REMARK       I    between atoms: C6_12  and  C5_53 
REMARK       I    between atoms: S2_14  and  O6_33 
REMARK       I    between atoms: O3S_16  and  S1_51 
REMARK       I    between atoms: S_17  and  O2_44 
REMARK       I    between atoms: N_20  and  S1_58 
REMARK       I    between atoms: O4_24  and  C4_38 
REMARK       I    between atoms: S_25  and  O2_64 
REMARK       I    between atoms: O2S_27  and  S1_51 
REMARK       I    between atoms: C4_28  and  O4_73 
REMARK       I    between atoms: C3_30  and  O3_62 
REMARK       I    between atoms: O6_33  and  C6_63 
REMARK       I    between atoms: O3_35  and  C3_55 
REMARK       I    between atoms: O4_36  and  C1_84 
REMARK       I    between atoms: O4_37  and  C4_54 
REMARK       I    between atoms: C3_39  and  O3_48 
REMARK       I    between atoms: C5_42  and  C6_63 
REMARK       I    between atoms: O2_44  and  C2_61 
REMARK       I    between atoms: O6_45  and  C6_77 
REMARK       I    between atoms: O6_45  and  S2_82 
REMARK       I    between atoms: C5_49  and  C6_76 
REMARK       I    between atoms: S1_51  and  N_68 
REMARK       I    between atoms: S1_51  and  O1S_81 
REMARK       I    between atoms: O2S_52  and  S1_58 
REMARK       I    between atoms: C2_57  and  O2_64 
REMARK       I    between atoms: S1_58  and  O3S_75 
REMARK       I    between atoms: O3_66  and  C3_67 
REMARK       I    between atoms: O2_69  and  C2_79 
REMARK       I    between atoms: O2_69  and  S_72 
REMARK       I    between atoms: C5_70  and  C6_77 
REMARK       I    between atoms: C1_71  and  O4_73 
ROOT
ATOM      1  O2S IDS d 303     139.301   4.542  75.821  0.00  0.00    -0.572 OA
ATOM      2  C6  IDS d 303     132.326   6.482  75.430  0.00  0.00     0.206 C 
ATOM      3  O1S IDS d 303     138.783   6.032  77.615  0.00  0.00    -0.572 OA
ATOM      4  O3S IDS d 303     138.484   3.671  77.908  0.00  0.00    -0.572 OA
ATOM      5  O4  IDS d 303     135.006   5.466  74.263  0.00  0.00    -0.348 OA
ATOM      6  O61 IDS d 303     131.307   6.102  74.890  0.00  0.00    -0.646 OA
ATOM      7  C4  IDS d 303     134.102   4.639  75.013  0.00  0.00     0.103 C 
ATOM      8  C3  IDS d 303     135.043   3.660  75.771  0.00  0.00     0.094 C 
ATOM      9  O62 IDS d 303     132.535   7.676  75.472  0.00  0.00    -0.646 OA
ATOM     10  O3  IDS d 303     134.256   2.604  76.293  0.00  0.00    -0.390 OA
ATOM     11  C5  IDS d 303     133.313   5.488  76.040  0.00  0.00     0.152 C 
ATOM     12  O2  IDS d 303     137.015   4.897  76.426  0.00  0.00    -0.244 OA
ATOM     13  C1  IDS d 303     135.058   5.413  77.728  0.00  0.00     0.161 C 
ATOM     14  S   IDS d 303     138.480   4.776  76.984  0.00  0.00     0.252 S 
ATOM     15  C2  IDS d 303     135.826   4.318  76.941  0.00  0.00     0.134 C 
ATOM     16  O5  IDS d 303     134.247   6.200  76.863  0.00  0.00    -0.340 OA
ATOM     17  H   IDS d 303     133.383   4.149  74.389  0.00  0.00     0.092 H 
ATOM     18  H   IDS d 303     135.773   3.320  75.067  0.00  0.00     0.091 H 
ATOM     19  H   IDS d 303     133.613   2.962  76.924  0.00  0.00     0.210 HD
ATOM     20  H   IDS d 303     132.721   4.798  76.603  0.00  0.00     0.104 H 
ATOM     21  H   IDS d 303     135.756   6.088  78.178  0.00  0.00     0.133 H 
ATOM     22  H   IDS d 303     136.011   3.529  77.639  0.00  0.00     0.097 H 
ATOM     23  C2  SGN d 304     136.391   5.743  72.258  0.00  0.00     0.081 C 
ATOM     24  C1  SGN d 304     135.020   5.325  72.859  0.00  0.00     0.150 C 
ATOM     25  O3  SGN d 304     137.844   7.635  71.878  0.00  0.00    -0.391 OA
ATOM     26  O3S SGN d 304     139.155   3.566  71.859  0.00  0.00    -0.296 OA
ATOM     27  O5S SGN d 304     132.137   7.260  68.107  0.00  0.00    -0.572 OA
ATOM     28  O2S SGN d 304     136.862   3.043  71.397  0.00  0.00    -0.296 OA
ATOM     29  O4S SGN d 304     131.916   9.423  69.112  0.00  0.00    -0.572 OA
ATOM     30  O4  SGN d 304     135.928   9.344  71.675  0.00  0.00    -0.348 OA
ATOM     31  O6  SGN d 304     132.657   7.522  70.407  0.00  0.00    -0.254 OA
ATOM     32  S1  SGN d 304     137.826   3.455  72.385  0.00  0.00     0.156 S 
ATOM     33  C4  SGN d 304     135.451   7.989  71.680  0.00  0.00     0.095 C 
ATOM     34  O6S SGN d 304     130.384   7.667  69.669  0.00  0.00    -0.572 OA
ATOM     35  N   SGN d 304     137.444   4.960  72.925  0.00  0.00    -0.210 NA
ATOM     36  C5  SGN d 304     134.101   7.530  72.324  0.00  0.00     0.091 C 
ATOM     37  C3  SGN d 304     136.595   7.262  72.435  0.00  0.00     0.083 C 
ATOM     38  C6  SGN d 304     132.841   8.119  71.675  0.00  0.00     0.067 C 
ATOM     39  O5  SGN d 304     133.965   6.086  72.271  0.00  0.00    -0.349 OA
ATOM     40  O1S SGN d 304     137.772   2.629  73.559  0.00  0.00    -0.296 OA
ATOM     41  S2  SGN d 304     131.714   8.007  69.259  0.00  0.00     0.251 S 
ATOM     42  H   SGN d 304     136.428   5.542  71.208  0.00  0.00     0.076 H 
ATOM     43  H   SGN d 304     134.869   4.289  72.633  0.00  0.00     0.131 H 
ATOM     44  H   SGN d 304     138.558   7.180  72.352  0.00  0.00     0.210 HD
ATOM     45  H   SGN d 304     139.144   4.131  71.071  0.00  0.00     0.231 HD
ATOM     46  H   SGN d 304     136.928   3.622  70.621  0.00  0.00     0.231 HD
ATOM     47  H   SGN d 304     135.215   7.781  70.657  0.00  0.00     0.091 H 
ATOM     48  H   SGN d 304     137.161   4.859  73.900  0.00  0.00     0.140 HD
ATOM     49  H   SGN d 304     134.161   7.897  73.327  0.00  0.00     0.090 H 
ATOM     50  H   SGN d 304     136.583   7.525  73.471  0.00  0.00     0.089 H 
ATOM     51  H   SGN d 304     131.991   7.919  72.293  0.00  0.00     0.080 H 
ATOM     52  H   SGN d 304     132.951   9.178  71.565  0.00  0.00     0.080 H 
ATOM     53  H   SGN d 304     137.988   1.714  73.321  0.00  0.00     0.231 HD
ATOM     54  O62 IDS d 301     136.071   5.809  84.288  0.00  0.00    -0.646 OA
ATOM     55  O1  IDS d 301     133.794   4.410  88.538  0.00  0.00    -0.368 OA
ATOM     56  C4  IDS d 301     133.005   5.004  84.570  0.00  0.00     0.103 C 
ATOM     57  C5  IDS d 301     134.075   5.560  85.582  0.00  0.00     0.152 C 
ATOM     58  O61 IDS d 301     135.299   7.544  85.110  0.00  0.00    -0.646 OA
ATOM     59  S   IDS d 301     130.175   3.173  88.309  0.00  0.00     0.252 S 
ATOM     60  C3  IDS d 301     132.124   3.909  85.251  0.00  0.00     0.094 C 
ATOM     61  C1  IDS d 301     133.687   3.841  87.263  0.00  0.00     0.158 C 
ATOM     62  C6  IDS d 301     135.219   6.347  84.954  0.00  0.00     0.206 C 
ATOM     63  O5  IDS d 301     134.604   4.458  86.352  0.00  0.00    -0.340 OA
ATOM     64  O4  IDS d 301     132.700   4.845  83.175  0.00  0.00    -0.348 OA
ATOM     65  O3S IDS d 301     130.127   1.938  89.051  0.00  0.00    -0.572 OA
ATOM     66  O1S IDS d 301     130.436   4.307  89.153  0.00  0.00    -0.572 OA
ATOM     67  C2  IDS d 301     132.213   4.010  86.787  0.00  0.00     0.134 C 
ATOM     68  O3  IDS d 301     130.773   4.075  84.851  0.00  0.00    -0.390 OA
ATOM     69  O2  IDS d 301     131.409   2.996  87.361  0.00  0.00    -0.244 OA
ATOM     70  O2S IDS d 301     129.038   3.357  87.444  0.00  0.00    -0.572 OA
ATOM     71  H   IDS d 301     133.166   3.979  89.138  0.00  0.00     0.212 HD
ATOM     72  H   IDS d 301     133.218   6.024  84.329  0.00  0.00     0.092 H 
ATOM     73  H   IDS d 301     133.560   6.267  86.198  0.00  0.00     0.104 H 
ATOM     74  H   IDS d 301     132.485   2.948  84.949  0.00  0.00     0.091 H 
ATOM     75  H   IDS d 301     133.939   2.802  87.296  0.00  0.00     0.133 H 
ATOM     76  H   IDS d 301     131.865   4.974  87.096  0.00  0.00     0.097 H 
ATOM     77  H   IDS d 301     130.458   4.949  85.130  0.00  0.00     0.210 HD
ATOM     78  O1S SGN d 302     128.078   5.177  82.046  0.00  0.00    -0.296 OA
ATOM     79  C2  SGN d 302     131.726   5.824  81.130  0.00  0.00     0.081 C 
ATOM     80  S2  SGN d 302     136.978   8.874  80.812  0.00  0.00     0.251 S 
ATOM     81  N   SGN d 302     130.432   5.220  81.492  0.00  0.00    -0.210 NA
ATOM     82  C4  SGN d 302     133.819   5.632  79.781  0.00  0.00     0.095 C 
ATOM     83  O6  SGN d 302     135.899   7.768  80.577  0.00  0.00    -0.254 OA
ATOM     84  C5  SGN d 302     134.631   5.754  81.111  0.00  0.00     0.091 C 
ATOM     85  O4S SGN d 302     138.222   8.365  80.306  0.00  0.00    -0.572 OA
ATOM     86  O2S SGN d 302     129.339   7.033  82.795  0.00  0.00    -0.296 OA
ATOM     87  S1  SGN d 302     129.095   6.129  81.714  0.00  0.00     0.156 S 
ATOM     88  O5S SGN d 302     136.518  10.008  80.071  0.00  0.00    -0.572 OA
ATOM     89  O6S SGN d 302     136.992   9.098  82.228  0.00  0.00    -0.572 OA
ATOM     90  C6  SGN d 302     136.012   6.416  80.956  0.00  0.00     0.067 C 
ATOM     91  O3  SGN d 302     131.678   4.833  78.953  0.00  0.00    -0.391 OA
ATOM     92  C3  SGN d 302     132.472   4.960  80.121  0.00  0.00     0.083 C 
ATOM     93  O4  SGN d 302     134.308   4.800  78.733  0.00  0.00    -0.348 OA
ATOM     94  O3S SGN d 302     128.857   6.790  80.463  0.00  0.00    -0.296 OA
ATOM     95  C1  SGN d 302     132.578   6.014  82.411  0.00  0.00     0.150 C 
ATOM     96  O5  SGN d 302     133.877   6.525  82.087  0.00  0.00    -0.349 OA
ATOM     97  H   SGN d 302     128.288   4.761  82.897  0.00  0.00     0.231 HD
ATOM     98  H   SGN d 302     131.547   6.776  80.674  0.00  0.00     0.076 H 
ATOM     99  H   SGN d 302     130.584   4.715  82.365  0.00  0.00     0.140 HD
ATOM    100  H   SGN d 302     133.828   6.640  79.422  0.00  0.00     0.091 H 
ATOM    101  H   SGN d 302     134.793   4.746  81.430  0.00  0.00     0.090 H 
ATOM    102  H   SGN d 302     129.492   6.530  83.610  0.00  0.00     0.231 HD
ATOM    103  H   SGN d 302     136.530   6.360  81.891  0.00  0.00     0.080 H 
ATOM    104  H   SGN d 302     136.549   5.897  80.190  0.00  0.00     0.080 H 
ATOM    105  H   SGN d 302     130.835   4.410  79.180  0.00  0.00     0.210 HD
ATOM    106  H   SGN d 302     132.659   3.988  80.527  0.00  0.00     0.089 H 
ATOM    107  H   SGN d 302     128.699   6.128  79.773  0.00  0.00     0.231 HD
ATOM    108  H   SGN d 302     132.052   6.726  83.012  0.00  0.00     0.131 H 
ATOM    109  C1  IDS d 305     135.525  10.192  70.629  0.00  0.00     0.161 C 
ATOM    110  O1S IDS d 305     132.880  12.564  73.475  0.00  0.00    -0.572 OA
ATOM    111  S   IDS d 305     134.300  12.452  73.298  0.00  0.00     0.252 S 
ATOM    112  C4  IDS d 305     137.197  12.228  69.170  0.00  0.00    -0.005 C 
ATOM    113  O61 IDS d 305     139.519   9.913  68.271  0.00  0.00    -0.646 OA
ATOM    114  O3  IDS d 305     136.032  13.936  70.413  0.00  0.00    -0.393 OA
ATOM    115  O62 IDS d 305     137.831   9.919  67.065  0.00  0.00    -0.646 OA
ATOM    116  O2S IDS d 305     134.865  11.415  74.108  0.00  0.00    -0.572 OA
ATOM    117  O2  IDS d 305     134.474  12.032  71.800  0.00  0.00    -0.244 OA
ATOM    118  O5  IDS d 305     136.293   9.959  69.438  0.00  0.00    -0.343 OA
ATOM    119  C5  IDS d 305     137.525  10.704  69.307  0.00  0.00     0.127 C 
ATOM    120  C3  IDS d 305     135.901  12.609  69.940  0.00  0.00     0.069 C 
ATOM    121  C2  IDS d 305     135.667  11.655  71.130  0.00  0.00     0.132 C 
ATOM    122  C6  IDS d 305     138.337  10.145  68.143  0.00  0.00     0.203 C 
ATOM    123  O3S IDS d 305     134.976  13.709  73.433  0.00  0.00    -0.572 OA
ATOM    124  H   IDS d 305     134.507   9.995  70.364  0.00  0.00     0.133 H 
ATOM    125  H   IDS d 305     138.015  12.795  69.565  0.00  0.00     0.041 H 
ATOM    126  H   IDS d 305     137.045  12.445  68.134  0.00  0.00     0.041 H 
ATOM    127  H   IDS d 305     136.179  14.533  69.664  0.00  0.00     0.210 HD
ATOM    128  H   IDS d 305     138.133  10.597  70.181  0.00  0.00     0.100 H 
ATOM    129  H   IDS d 305     135.063  12.528  69.280  0.00  0.00     0.087 H 
ATOM    130  H   IDS d 305     136.503  11.717  71.796  0.00  0.00     0.097 H 
ENDROOT
TORSDOF 39
ENDMDL
MODEL 36
REMARK VINA RESULT:      -5.6      3.958      6.208
REMARK  0 active torsions:
REMARK  status: ('A' for Active; 'I' for Inactive)
REMARK       I    between atoms: C2_2  and  N_68 
REMARK       I    between atoms: C1_3  and  O4_24 
REMARK       I    between atoms: O1S_5  and  S1_58 
REMARK       I    between atoms: O1_6  and  C1_31 
REMARK       I    between atoms: C4_7  and  O4_36 
REMARK       I    between atoms: C1_8  and  O4_37 
REMARK       I    between atoms: O3_9  and  C3_74 
REMARK       I    between atoms: C5_10  and  C6_32 
REMARK       I    between atoms: C2_11  and  N_20 
REMARK       I    between atoms: C6_12  and  C5_53 
REMARK       I    between atoms: S2_14  and  O6_33 
REMARK       I    between atoms: O3S_16  and  S1_51 
REMARK       I    between atoms: S_17  and  O2_44 
REMARK       I    between atoms: N_20  and  S1_58 
REMARK       I    between atoms: O4_24  and  C4_38 
REMARK       I    between atoms: S_25  and  O2_64 
REMARK       I    between atoms: O2S_27  and  S1_51 
REMARK       I    between atoms: C4_28  and  O4_73 
REMARK       I    between atoms: C3_30  and  O3_62 
REMARK       I    between atoms: O6_33  and  C6_63 
REMARK       I    between atoms: O3_35  and  C3_55 
REMARK       I    between atoms: O4_36  and  C1_84 
REMARK       I    between atoms: O4_37  and  C4_54 
REMARK       I    between atoms: C3_39  and  O3_48 
REMARK       I    between atoms: C5_42  and  C6_63 
REMARK       I    between atoms: O2_44  and  C2_61 
REMARK       I    between atoms: O6_45  and  C6_77 
REMARK       I    between atoms: O6_45  and  S2_82 
REMARK       I    between atoms: C5_49  and  C6_76 
REMARK       I    between atoms: S1_51  and  N_68 
REMARK       I    between atoms: S1_51  and  O1S_81 
REMARK       I    between atoms: O2S_52  and  S1_58 
REMARK       I    between atoms: C2_57  and  O2_64 
REMARK       I    between atoms: S1_58  and  O3S_75 
REMARK       I    between atoms: O3_66  and  C3_67 
REMARK       I    between atoms: O2_69  and  C2_79 
REMARK       I    between atoms: O2_69  and  S_72 
REMARK       I    between atoms: C5_70  and  C6_77 
REMARK       I    between atoms: C1_71  and  O4_73 
ROOT
ATOM      1  O2S IDS d 303     139.449   4.765  77.386  0.00  0.00    -0.572 OA
ATOM      2  C6  IDS d 303     132.809   7.425  76.204  0.00  0.00     0.206 C 
ATOM      3  O1S IDS d 303     139.270   6.935  78.368  0.00  0.00    -0.572 OA
ATOM      4  O3S IDS d 303     138.660   5.000  79.645  0.00  0.00    -0.572 OA
ATOM      5  O4  IDS d 303     135.232   5.604  75.585  0.00  0.00    -0.348 OA
ATOM      6  O61 IDS d 303     131.712   7.017  75.880  0.00  0.00    -0.646 OA
ATOM      7  C4  IDS d 303     134.274   5.326  76.617  0.00  0.00     0.103 C 
ATOM      8  C3  IDS d 303     135.116   4.626  77.721  0.00  0.00     0.094 C 
ATOM      9  O62 IDS d 303     133.187   8.476  75.730  0.00  0.00    -0.646 OA
ATOM     10  O3  IDS d 303     134.225   4.027  78.646  0.00  0.00    -0.390 OA
ATOM     11  C5  IDS d 303     133.685   6.641  77.182  0.00  0.00     0.152 C 
ATOM     12  O2  IDS d 303     137.283   5.697  77.781  0.00  0.00    -0.244 OA
ATOM     13  C1  IDS d 303     135.511   7.016  78.737  0.00  0.00     0.161 C 
ATOM     14  S   IDS d 303     138.750   5.595  78.337  0.00  0.00     0.252 S 
ATOM     15  C2  IDS d 303     136.062   5.586  78.496  0.00  0.00     0.134 C 
ATOM     16  O5  IDS d 303     134.764   7.479  77.619  0.00  0.00    -0.340 OA
ATOM     17  H   IDS d 303     133.452   4.737  76.263  0.00  0.00     0.092 H 
ATOM     18  H   IDS d 303     135.741   3.909  77.231  0.00  0.00     0.091 H 
ATOM     19  H   IDS d 303     133.682   4.715  79.063  0.00  0.00     0.210 HD
ATOM     20  H   IDS d 303     133.040   6.357  77.987  0.00  0.00     0.104 H 
ATOM     21  H   IDS d 303     136.327   7.699  78.854  0.00  0.00     0.133 H 
ATOM     22  H   IDS d 303     136.180   5.147  79.465  0.00  0.00     0.097 H 
ATOM     23  C2  SGN d 304     136.504   4.785  73.653  0.00  0.00     0.081 C 
ATOM     24  C1  SGN d 304     135.132   4.882  74.376  0.00  0.00     0.150 C 
ATOM     25  O3  SGN d 304     138.181   6.085  72.498  0.00  0.00    -0.391 OA
ATOM     26  O3S SGN d 304     138.898   2.241  74.225  0.00  0.00    -0.296 OA
ATOM     27  O5S SGN d 304     132.236   5.049  69.255  0.00  0.00    -0.572 OA
ATOM     28  O2S SGN d 304     136.528   1.938  74.033  0.00  0.00    -0.296 OA
ATOM     29  O4S SGN d 304     132.392   7.439  69.236  0.00  0.00    -0.572 OA
ATOM     30  O4  SGN d 304     136.517   7.825  71.583  0.00  0.00    -0.348 OA
ATOM     31  O6  SGN d 304     132.942   6.176  71.221  0.00  0.00    -0.254 OA
ATOM     32  S1  SGN d 304     137.606   2.572  74.749  0.00  0.00     0.156 S 
ATOM     33  C4  SGN d 304     135.854   6.692  72.169  0.00  0.00     0.095 C 
ATOM     34  O6S SGN d 304     130.668   6.349  70.493  0.00  0.00    -0.572 OA
ATOM     35  N   SGN d 304     137.478   4.204  74.591  0.00  0.00    -0.210 NA
ATOM     36  C5  SGN d 304     134.500   6.767  72.948  0.00  0.00     0.091 C 
ATOM     37  C3  SGN d 304     136.933   6.183  73.162  0.00  0.00     0.083 C 
ATOM     38  C6  SGN d 304     133.294   7.216  72.110  0.00  0.00     0.067 C 
ATOM     39  O5  SGN d 304     134.157   5.478  73.520  0.00  0.00    -0.349 OA
ATOM     40  O1S SGN d 304     137.515   2.341  76.163  0.00  0.00    -0.296 OA
ATOM     41  S2  SGN d 304     132.002   6.270  69.976  0.00  0.00     0.251 S 
ATOM     42  H   SGN d 304     136.441   4.155  72.791  0.00  0.00     0.076 H 
ATOM     43  H   SGN d 304     134.820   3.886  74.617  0.00  0.00     0.131 H 
ATOM     44  H   SGN d 304     138.853   5.767  73.121  0.00  0.00     0.210 HD
ATOM     45  H   SGN d 304     138.914   2.412  73.271  0.00  0.00     0.231 HD
ATOM     46  H   SGN d 304     136.622   2.116  73.084  0.00  0.00     0.231 HD
ATOM     47  H   SGN d 304     135.522   6.111  71.334  0.00  0.00     0.091 H 
ATOM     48  H   SGN d 304     137.250   4.571  75.516  0.00  0.00     0.140 HD
ATOM     49  H   SGN d 304     134.679   7.509  73.697  0.00  0.00     0.090 H 
ATOM     50  H   SGN d 304     137.028   6.858  73.986  0.00  0.00     0.089 H 
ATOM     51  H   SGN d 304     132.469   7.432  72.755  0.00  0.00     0.080 H 
ATOM     52  H   SGN d 304     133.546   8.097  71.556  0.00  0.00     0.080 H 
ATOM     53  H   SGN d 304     137.583   1.389  76.341  0.00  0.00     0.231 HD
ATOM     54  O62 IDS d 301     137.013   9.987  84.493  0.00  0.00    -0.646 OA
ATOM     55  O1  IDS d 301     134.855  10.895  88.935  0.00  0.00    -0.368 OA
ATOM     56  C4  IDS d 301     133.890   9.870  85.095  0.00  0.00     0.103 C 
ATOM     57  C5  IDS d 301     135.094  10.626  85.771  0.00  0.00     0.152 C 
ATOM     58  O61 IDS d 301     136.552  12.005  84.493  0.00  0.00    -0.646 OA
ATOM     59  S   IDS d 301     131.089  10.263  89.260  0.00  0.00     0.252 S 
ATOM     60  C3  IDS d 301     132.911   9.319  86.181  0.00  0.00     0.094 C 
ATOM     61  C1  IDS d 301     134.581   9.865  88.026  0.00  0.00     0.158 C 
ATOM     62  C6  IDS d 301     136.293  10.883  84.866  0.00  0.00     0.206 C 
ATOM     63  O5  IDS d 301     135.513   9.886  86.938  0.00  0.00    -0.340 OA
ATOM     64  O4  IDS d 301     133.472   9.185  83.903  0.00  0.00    -0.348 OA
ATOM     65  O3S IDS d 301     130.917   9.482  90.459  0.00  0.00    -0.572 OA
ATOM     66  O1S IDS d 301     131.565  11.591  89.536  0.00  0.00    -0.572 OA
ATOM     67  C2  IDS d 301     133.117  10.046  87.525  0.00  0.00     0.134 C 
ATOM     68  O3  IDS d 301     131.573   9.510  85.749  0.00  0.00    -0.390 OA
ATOM     69  O2  IDS d 301     132.219   9.510  88.478  0.00  0.00    -0.244 OA
ATOM     70  O2S IDS d 301     129.934  10.239  88.400  0.00  0.00    -0.572 OA
ATOM     71  H   IDS d 301     134.213  10.863  89.662  0.00  0.00     0.212 HD
ATOM     72  H   IDS d 301     134.228  10.644  84.440  0.00  0.00     0.092 H 
ATOM     73  H   IDS d 301     134.727  11.599  86.024  0.00  0.00     0.104 H 
ATOM     74  H   IDS d 301     133.111   8.277  86.320  0.00  0.00     0.091 H 
ATOM     75  H   IDS d 301     134.685   8.913  88.502  0.00  0.00     0.133 H 
ATOM     76  H   IDS d 301     132.931  11.091  87.391  0.00  0.00     0.097 H 
ATOM     77  H   IDS d 301     131.405  10.457  85.626  0.00  0.00     0.210 HD
ATOM     78  O1S SGN d 302     128.877   9.728  82.744  0.00  0.00    -0.296 OA
ATOM     79  C2  SGN d 302     132.510   9.346  81.637  0.00  0.00     0.081 C 
ATOM     80  S2  SGN d 302     138.107  11.108  80.039  0.00  0.00     0.251 S 
ATOM     81  N   SGN d 302     131.171   9.163  82.223  0.00  0.00    -0.210 NA
ATOM     82  C4  SGN d 302     134.458   8.275  80.499  0.00  0.00     0.095 C 
ATOM     83  O6  SGN d 302     136.869  10.191  80.301  0.00  0.00    -0.254 OA
ATOM     84  C5  SGN d 302     135.368   8.819  81.647  0.00  0.00     0.091 C 
ATOM     85  O4S SGN d 302     139.229  10.244  79.799  0.00  0.00    -0.572 OA
ATOM     86  O2S SGN d 302     130.436  11.504  82.624  0.00  0.00    -0.296 OA
ATOM     87  S1  SGN d 302     129.994  10.278  82.035  0.00  0.00     0.156 S 
ATOM     88  O5S SGN d 302     137.763  11.878  78.883  0.00  0.00    -0.572 OA
ATOM     89  O6S SGN d 302     138.248  11.905  81.222  0.00  0.00    -0.572 OA
ATOM     90  C6  SGN d 302     136.815   9.128  81.223  0.00  0.00     0.067 C 
ATOM     91  O3  SGN d 302     132.174   7.547  80.095  0.00  0.00    -0.391 OA
ATOM     92  C3  SGN d 302     133.055   8.030  81.095  0.00  0.00     0.083 C 
ATOM     93  O4  SGN d 302     134.752   7.012  79.909  0.00  0.00    -0.348 OA
ATOM     94  O3S SGN d 302     129.768  10.376  80.622  0.00  0.00    -0.296 OA
ATOM     95  C1  SGN d 302     133.465   9.924  82.712  0.00  0.00     0.150 C 
ATOM     96  O5  SGN d 302     134.798  10.039  82.200  0.00  0.00    -0.349 OA
ATOM     97  H   SGN d 302     129.084   9.685  83.691  0.00  0.00     0.231 HD
ATOM     98  H   SGN d 302     132.437  10.030  80.817  0.00  0.00     0.076 H 
ATOM     99  H   SGN d 302     131.309   9.059  83.229  0.00  0.00     0.140 HD
ATOM    100  H   SGN d 302     134.586   9.020  79.742  0.00  0.00     0.091 H 
ATOM    101  H   SGN d 302     135.407   8.030  82.368  0.00  0.00     0.090 H 
ATOM    102  H   SGN d 302     130.571  11.376  83.576  0.00  0.00     0.231 HD
ATOM    103  H   SGN d 302     137.382   9.393  82.092  0.00  0.00     0.080 H 
ATOM    104  H   SGN d 302     137.219   8.256  80.753  0.00  0.00     0.080 H 
ATOM    105  H   SGN d 302     131.298   7.398  80.482  0.00  0.00     0.210 HD
ATOM    106  H   SGN d 302     133.131   7.305  81.878  0.00  0.00     0.089 H 
ATOM    107  H   SGN d 302     129.472   9.518  80.282  0.00  0.00     0.231 HD
ATOM    108  H   SGN d 302     133.087  10.896  82.950  0.00  0.00     0.131 H 
ATOM    109  C1  IDS d 305     136.168   8.201  70.275  0.00  0.00     0.161 C 
ATOM    110  O1S IDS d 305     134.084  11.938  71.830  0.00  0.00    -0.572 OA
ATOM    111  S   IDS d 305     135.459  11.540  71.718  0.00  0.00     0.252 S 
ATOM    112  C4  IDS d 305     138.009   9.138  68.083  0.00  0.00    -0.005 C 
ATOM    113  O61 IDS d 305     139.913   6.327  68.262  0.00  0.00    -0.646 OA
ATOM    114  O3  IDS d 305     137.184  11.371  68.475  0.00  0.00    -0.393 OA
ATOM    115  O62 IDS d 305     138.165   6.087  67.171  0.00  0.00    -0.646 OA
ATOM    116  O2S IDS d 305     135.925  10.869  72.894  0.00  0.00    -0.572 OA
ATOM    117  O2  IDS d 305     135.470  10.504  70.544  0.00  0.00    -0.244 OA
ATOM    118  O5  IDS d 305     136.813   7.368  69.298  0.00  0.00    -0.343 OA
ATOM    119  C5  IDS d 305     138.126   7.784  68.860  0.00  0.00     0.127 C 
ATOM    120  C3  IDS d 305     136.834  10.007  68.616  0.00  0.00     0.069 C 
ATOM    121  C2  IDS d 305     136.549   9.696  70.100  0.00  0.00     0.132 C 
ATOM    122  C6  IDS d 305     138.770   6.665  68.047  0.00  0.00     0.203 C 
ATOM    123  O3S IDS d 305     136.314  12.612  71.300  0.00  0.00    -0.572 OA
ATOM    124  H   IDS d 305     135.116   8.073  70.121  0.00  0.00     0.133 H 
ATOM    125  H   IDS d 305     138.923   9.682  68.196  0.00  0.00     0.041 H 
ATOM    126  H   IDS d 305     137.819   8.917  67.054  0.00  0.00     0.041 H 
ATOM    127  H   IDS d 305     137.363  11.564  67.541  0.00  0.00     0.210 HD
ATOM    128  H   IDS d 305     138.771   7.964  69.695  0.00  0.00     0.100 H 
ATOM    129  H   IDS d 305     135.951   9.787  68.055  0.00  0.00     0.087 H 
ATOM    130  H   IDS d 305     137.428   9.902  70.675  0.00  0.00     0.097 H 
ENDROOT
TORSDOF 39
ENDMDL
MODEL 37
REMARK VINA RESULT:      -5.6      4.291     13.880
REMARK  0 active torsions:
REMARK  status: ('A' for Active; 'I' for Inactive)
REMARK       I    between atoms: C2_2  and  N_68 
REMARK       I    between atoms: C1_3  and  O4_24 
REMARK       I    between atoms: O1S_5  and  S1_58 
REMARK       I    between atoms: O1_6  and  C1_31 
REMARK       I    between atoms: C4_7  and  O4_36 
REMARK       I    between atoms: C1_8  and  O4_37 
REMARK       I    between atoms: O3_9  and  C3_74 
REMARK       I    between atoms: C5_10  and  C6_32 
REMARK       I    between atoms: C2_11  and  N_20 
REMARK       I    between atoms: C6_12  and  C5_53 
REMARK       I    between atoms: S2_14  and  O6_33 
REMARK       I    between atoms: O3S_16  and  S1_51 
REMARK       I    between atoms: S_17  and  O2_44 
REMARK       I    between atoms: N_20  and  S1_58 
REMARK       I    between atoms: O4_24  and  C4_38 
REMARK       I    between atoms: S_25  and  O2_64 
REMARK       I    between atoms: O2S_27  and  S1_51 
REMARK       I    between atoms: C4_28  and  O4_73 
REMARK       I    between atoms: C3_30  and  O3_62 
REMARK       I    between atoms: O6_33  and  C6_63 
REMARK       I    between atoms: O3_35  and  C3_55 
REMARK       I    between atoms: O4_36  and  C1_84 
REMARK       I    between atoms: O4_37  and  C4_54 
REMARK       I    between atoms: C3_39  and  O3_48 
REMARK       I    between atoms: C5_42  and  C6_63 
REMARK       I    between atoms: O2_44  and  C2_61 
REMARK       I    between atoms: O6_45  and  C6_77 
REMARK       I    between atoms: O6_45  and  S2_82 
REMARK       I    between atoms: C5_49  and  C6_76 
REMARK       I    between atoms: S1_51  and  N_68 
REMARK       I    between atoms: S1_51  and  O1S_81 
REMARK       I    between atoms: O2S_52  and  S1_58 
REMARK       I    between atoms: C2_57  and  O2_64 
REMARK       I    between atoms: S1_58  and  O3S_75 
REMARK       I    between atoms: O3_66  and  C3_67 
REMARK       I    between atoms: O2_69  and  C2_79 
REMARK       I    between atoms: O2_69  and  S_72 
REMARK       I    between atoms: C5_70  and  C6_77 
REMARK       I    between atoms: C1_71  and  O4_73 
ROOT
ATOM      1  O2S IDS d 303     136.955   6.027  80.865  0.00  0.00    -0.572 OA
ATOM      2  C6  IDS d 303     136.585  13.114  82.345  0.00  0.00     0.206 C 
ATOM      3  O1S IDS d 303     134.790   6.853  80.286  0.00  0.00    -0.572 OA
ATOM      4  O3S IDS d 303     136.557   6.915  78.667  0.00  0.00    -0.572 OA
ATOM      5  O4  IDS d 303     137.708  10.252  82.685  0.00  0.00    -0.348 OA
ATOM      6  O61 IDS d 303     137.344  14.037  82.564  0.00  0.00    -0.646 OA
ATOM      7  C4  IDS d 303     138.062  11.119  81.597  0.00  0.00     0.103 C 
ATOM      8  C3  IDS d 303     138.278  10.143  80.405  0.00  0.00     0.094 C 
ATOM      9  O62 IDS d 303     135.573  13.042  83.010  0.00  0.00    -0.646 OA
ATOM     10  O3  IDS d 303     138.933  10.850  79.366  0.00  0.00    -0.390 OA
ATOM     11  C5  IDS d 303     136.894  12.079  81.264  0.00  0.00     0.152 C 
ATOM     12  O2  IDS d 303     136.634   8.380  80.592  0.00  0.00    -0.244 OA
ATOM     13  C1  IDS d 303     135.734  10.484  79.846  0.00  0.00     0.161 C 
ATOM     14  S   IDS d 303     136.206   6.963  80.063  0.00  0.00     0.252 S 
ATOM     15  C2  IDS d 303     136.964   9.538  79.840  0.00  0.00     0.134 C 
ATOM     16  O5  IDS d 303     135.716  11.301  81.011  0.00  0.00    -0.340 OA
ATOM     17  H   IDS d 303     138.916  11.725  81.819  0.00  0.00     0.092 H 
ATOM     18  H   IDS d 303     138.860   9.324  80.774  0.00  0.00     0.091 H 
ATOM     19  H   IDS d 303     138.368  11.580  79.067  0.00  0.00     0.210 HD
ATOM     20  H   IDS d 303     137.203  12.637  80.406  0.00  0.00     0.104 H 
ATOM     21  H   IDS d 303     134.835   9.905  79.875  0.00  0.00     0.133 H 
ATOM     22  H   IDS d 303     137.168   9.326  78.811  0.00  0.00     0.097 H 
ATOM     23  C2  SGN d 304     138.457   8.742  84.468  0.00  0.00     0.081 C 
ATOM     24  C1  SGN d 304     138.634  10.104  83.741  0.00  0.00     0.150 C 
ATOM     25  O3  SGN d 304     136.958   7.479  85.878  0.00  0.00    -0.391 OA
ATOM     26  O3S SGN d 304     140.055   5.733  83.506  0.00  0.00    -0.296 OA
ATOM     27  O5S SGN d 304     140.232  12.774  88.737  0.00  0.00    -0.572 OA
ATOM     28  O2S SGN d 304     141.059   7.907  83.583  0.00  0.00    -0.296 OA
ATOM     29  O4S SGN d 304     137.943  13.313  89.189  0.00  0.00    -0.572 OA
ATOM     30  O4  SGN d 304     135.967   9.546  87.051  0.00  0.00    -0.348 OA
ATOM     31  O6  SGN d 304     138.616  12.481  87.024  0.00  0.00    -0.254 OA
ATOM     32  S1  SGN d 304     140.023   7.080  83.019  0.00  0.00     0.156 S 
ATOM     33  C4  SGN d 304     137.118   9.871  86.255  0.00  0.00     0.095 C 
ATOM     34  O6S SGN d 304     139.241  14.686  87.716  0.00  0.00    -0.572 OA
ATOM     35  N   SGN d 304     138.553   7.669  83.464  0.00  0.00    -0.210 NA
ATOM     36  C5  SGN d 304     137.300  11.211  85.470  0.00  0.00     0.091 C 
ATOM     37  C3  SGN d 304     137.107   8.721  85.213  0.00  0.00     0.083 C 
ATOM     38  C6  SGN d 304     137.376  12.470  86.346  0.00  0.00     0.067 C 
ATOM     39  O5  SGN d 304     138.508  11.184  84.667  0.00  0.00    -0.349 OA
ATOM     40  O1S SGN d 304     140.013   7.142  81.584  0.00  0.00    -0.296 OA
ATOM     41  S2  SGN d 304     139.022  13.371  88.242  0.00  0.00     0.251 S 
ATOM     42  H   SGN d 304     139.223   8.595  85.201  0.00  0.00     0.076 H 
ATOM     43  H   SGN d 304     139.616  10.122  83.318  0.00  0.00     0.131 H 
ATOM     44  H   SGN d 304     136.950   6.761  85.225  0.00  0.00     0.210 HD
ATOM     45  H   SGN d 304     140.060   5.739  84.475  0.00  0.00     0.231 HD
ATOM     46  H   SGN d 304     141.035   7.841  84.550  0.00  0.00     0.231 HD
ATOM     47  H   SGN d 304     137.911   9.996  86.964  0.00  0.00     0.091 H 
ATOM     48  H   SGN d 304     138.109   8.020  82.616  0.00  0.00     0.140 HD
ATOM     49  H   SGN d 304     136.415  11.276  84.872  0.00  0.00     0.090 H 
ATOM     50  H   SGN d 304     136.296   8.848  84.527  0.00  0.00     0.089 H 
ATOM     51  H   SGN d 304     137.296  13.341  85.730  0.00  0.00     0.080 H 
ATOM     52  H   SGN d 304     136.575  12.467  87.055  0.00  0.00     0.080 H 
ATOM     53  H   SGN d 304     140.856   6.808  81.240  0.00  0.00     0.231 HD
ATOM     54  O62 IDS d 301     131.473  10.073  74.758  0.00  0.00    -0.646 OA
ATOM     55  O1  IDS d 301     130.447  12.531  70.502  0.00  0.00    -0.368 OA
ATOM     56  C4  IDS d 301     132.379  13.046  74.069  0.00  0.00     0.103 C 
ATOM     57  C5  IDS d 301     131.198  12.131  73.570  0.00  0.00     0.152 C 
ATOM     58  O61 IDS d 301     129.710  11.097  75.111  0.00  0.00    -0.646 OA
ATOM     59  S   IDS d 301     132.072  15.961  69.977  0.00  0.00     0.252 S 
ATOM     60  C3  IDS d 301     132.985  13.855  72.879  0.00  0.00     0.094 C 
ATOM     61  C1  IDS d 301     131.658  12.469  71.203  0.00  0.00     0.158 C 
ATOM     62  C6  IDS d 301     130.773  11.032  74.536  0.00  0.00     0.206 C 
ATOM     63  O5  IDS d 301     131.564  11.551  72.299  0.00  0.00    -0.340 OA
ATOM     64  O4  IDS d 301     133.357  13.213  75.108  0.00  0.00    -0.348 OA
ATOM     65  O3S IDS d 301     132.640  15.936  68.652  0.00  0.00    -0.572 OA
ATOM     66  O1S IDS d 301     130.636  15.898  69.956  0.00  0.00    -0.572 OA
ATOM     67  C2  IDS d 301     132.001  13.907  71.693  0.00  0.00     0.134 C 
ATOM     68  O3  IDS d 301     133.270  15.178  73.306  0.00  0.00    -0.390 OA
ATOM     69  O2  IDS d 301     132.594  14.640  70.637  0.00  0.00    -0.244 OA
ATOM     70  O2S IDS d 301     132.582  17.035  70.789  0.00  0.00    -0.572 OA
ATOM     71  H   IDS d 301     130.532  13.157  69.765  0.00  0.00     0.212 HD
ATOM     72  H   IDS d 301     131.671  12.927  74.861  0.00  0.00     0.092 H 
ATOM     73  H   IDS d 301     130.345  12.771  73.487  0.00  0.00     0.104 H 
ATOM     74  H   IDS d 301     133.882  13.367  72.559  0.00  0.00     0.091 H 
ATOM     75  H   IDS d 301     132.438  12.108  70.566  0.00  0.00     0.133 H 
ATOM     76  H   IDS d 301     131.096  14.383  72.009  0.00  0.00     0.097 H 
ATOM     77  H   IDS d 301     132.450  15.609  73.593  0.00  0.00     0.210 HD
ATOM     78  O1S SGN d 302     134.383  17.734  76.234  0.00  0.00    -0.296 OA
ATOM     79  C2  SGN d 302     133.891  14.114  77.342  0.00  0.00     0.081 C 
ATOM     80  S2  SGN d 302     130.903   9.220  79.367  0.00  0.00     0.251 S 
ATOM     81  N   SGN d 302     134.345  15.360  76.700  0.00  0.00    -0.210 NA
ATOM     82  C4  SGN d 302     134.539  11.908  78.315  0.00  0.00     0.095 C 
ATOM     83  O6  SGN d 302     132.076  10.148  78.914  0.00  0.00    -0.254 OA
ATOM     84  C5  SGN d 302     133.558  11.227  77.306  0.00  0.00     0.091 C 
ATOM     85  O4S SGN d 302     131.433   7.889  79.474  0.00  0.00    -0.572 OA
ATOM     86  O2S SGN d 302     132.284  16.751  76.710  0.00  0.00    -0.296 OA
ATOM     87  S1  SGN d 302     133.671  16.803  77.057  0.00  0.00     0.156 S 
ATOM     88  O5S SGN d 302     130.485   9.737  80.633  0.00  0.00    -0.572 OA
ATOM     89  O6S SGN d 302     129.900   9.350  78.350  0.00  0.00    -0.572 OA
ATOM     90  C6  SGN d 302     132.926   9.920  77.814  0.00  0.00     0.067 C 
ATOM     91  O3  SGN d 302     135.956  13.871  78.526  0.00  0.00    -0.391 OA
ATOM     92  C3  SGN d 302     135.068  13.197  77.651  0.00  0.00     0.083 C 
ATOM     93  O4  SGN d 302     135.747  11.244  78.675  0.00  0.00    -0.348 OA
ATOM     94  O3S SGN d 302     133.897  17.006  78.459  0.00  0.00    -0.296 OA
ATOM     95  C1  SGN d 302     132.879  13.398  76.413  0.00  0.00     0.150 C 
ATOM     96  O5  SGN d 302     132.477  12.141  76.969  0.00  0.00    -0.349 OA
ATOM     97  H   SGN d 302     134.194  17.551  75.300  0.00  0.00     0.231 HD
ATOM     98  H   SGN d 302     133.416  14.357  78.270  0.00  0.00     0.076 H 
ATOM     99  H   SGN d 302     134.223  15.227  75.696  0.00  0.00     0.140 HD
ATOM    100  H   SGN d 302     133.937  11.978  79.197  0.00  0.00     0.091 H 
ATOM    101  H   SGN d 302     134.160  10.983  76.456  0.00  0.00     0.090 H 
ATOM    102  H   SGN d 302     132.195  16.612  75.754  0.00  0.00     0.231 HD
ATOM    103  H   SGN d 302     132.357   9.479  77.022  0.00  0.00     0.080 H 
ATOM    104  H   SGN d 302     133.713   9.267  78.129  0.00  0.00     0.080 H 
ATOM    105  H   SGN d 302     136.280  14.678  78.098  0.00  0.00     0.210 HD
ATOM    106  H   SGN d 302     135.587  12.938  76.752  0.00  0.00     0.089 H 
ATOM    107  H   SGN d 302     134.851  17.032  78.632  0.00  0.00     0.231 HD
ATOM    108  H   SGN d 302     132.031  14.048  76.344  0.00  0.00     0.131 H 
ATOM    109  C1  IDS d 305     135.948   9.951  88.397  0.00  0.00     0.161 C 
ATOM    110  O1S IDS d 305     132.758  13.069  87.490  0.00  0.00    -0.572 OA
ATOM    111  S   IDS d 305     132.755  11.635  87.563  0.00  0.00     0.252 S 
ATOM    112  C4  IDS d 305     134.928   8.395  90.766  0.00  0.00    -0.005 C 
ATOM    113  O61 IDS d 305     136.989   5.766  90.130  0.00  0.00    -0.646 OA
ATOM    114  O3  IDS d 305     132.997   9.841  90.763  0.00  0.00    -0.393 OA
ATOM    115  O62 IDS d 305     137.916   7.338  91.117  0.00  0.00    -0.646 OA
ATOM    116  O2S IDS d 305     133.040  11.030  86.297  0.00  0.00    -0.572 OA
ATOM    117  O2  IDS d 305     133.936  11.291  88.530  0.00  0.00    -0.244 OA
ATOM    118  O5  IDS d 305     136.720   9.065  89.223  0.00  0.00    -0.343 OA
ATOM    119  C5  IDS d 305     136.028   7.915  89.761  0.00  0.00     0.127 C 
ATOM    120  C3  IDS d 305     134.355   9.786  90.370  0.00  0.00     0.069 C 
ATOM    121  C2  IDS d 305     134.463  10.012  88.848  0.00  0.00     0.132 C 
ATOM    122  C6  IDS d 305     137.040   6.952  90.374  0.00  0.00     0.203 C 
ATOM    123  O3S IDS d 305     131.574  11.114  88.187  0.00  0.00    -0.572 OA
ATOM    124  H   IDS d 305     136.400  10.916  88.500  0.00  0.00     0.133 H 
ATOM    125  H   IDS d 305     134.132   7.681  90.775  0.00  0.00     0.041 H 
ATOM    126  H   IDS d 305     135.376   8.483  91.734  0.00  0.00     0.041 H 
ATOM    127  H   IDS d 305     132.931   9.698  91.720  0.00  0.00     0.210 HD
ATOM    128  H   IDS d 305     135.523   7.374  88.988  0.00  0.00     0.100 H 
ATOM    129  H   IDS d 305     134.918  10.551  90.861  0.00  0.00     0.087 H 
ATOM    130  H   IDS d 305     133.913   9.247  88.341  0.00  0.00     0.097 H 
ENDROOT
TORSDOF 39
ENDMDL
MODEL 38
REMARK VINA RESULT:      -5.6      3.751     13.833
REMARK  0 active torsions:
REMARK  status: ('A' for Active; 'I' for Inactive)
REMARK       I    between atoms: C2_2  and  N_68 
REMARK       I    between atoms: C1_3  and  O4_24 
REMARK       I    between atoms: O1S_5  and  S1_58 
REMARK       I    between atoms: O1_6  and  C1_31 
REMARK       I    between atoms: C4_7  and  O4_36 
REMARK       I    between atoms: C1_8  and  O4_37 
REMARK       I    between atoms: O3_9  and  C3_74 
REMARK       I    between atoms: C5_10  and  C6_32 
REMARK       I    between atoms: C2_11  and  N_20 
REMARK       I    between atoms: C6_12  and  C5_53 
REMARK       I    between atoms: S2_14  and  O6_33 
REMARK       I    between atoms: O3S_16  and  S1_51 
REMARK       I    between atoms: S_17  and  O2_44 
REMARK       I    between atoms: N_20  and  S1_58 
REMARK       I    between atoms: O4_24  and  C4_38 
REMARK       I    between atoms: S_25  and  O2_64 
REMARK       I    between atoms: O2S_27  and  S1_51 
REMARK       I    between atoms: C4_28  and  O4_73 
REMARK       I    between atoms: C3_30  and  O3_62 
REMARK       I    between atoms: O6_33  and  C6_63 
REMARK       I    between atoms: O3_35  and  C3_55 
REMARK       I    between atoms: O4_36  and  C1_84 
REMARK       I    between atoms: O4_37  and  C4_54 
REMARK       I    between atoms: C3_39  and  O3_48 
REMARK       I    between atoms: C5_42  and  C6_63 
REMARK       I    between atoms: O2_44  and  C2_61 
REMARK       I    between atoms: O6_45  and  C6_77 
REMARK       I    between atoms: O6_45  and  S2_82 
REMARK       I    between atoms: C5_49  and  C6_76 
REMARK       I    between atoms: S1_51  and  N_68 
REMARK       I    between atoms: S1_51  and  O1S_81 
REMARK       I    between atoms: O2S_52  and  S1_58 
REMARK       I    between atoms: C2_57  and  O2_64 
REMARK       I    between atoms: S1_58  and  O3S_75 
REMARK       I    between atoms: O3_66  and  C3_67 
REMARK       I    between atoms: O2_69  and  C2_79 
REMARK       I    between atoms: O2_69  and  S_72 
REMARK       I    between atoms: C5_70  and  C6_77 
REMARK       I    between atoms: C1_71  and  O4_73 
ROOT
ATOM      1  O2S IDS d 303     136.503   7.137  81.418  0.00  0.00    -0.572 OA
ATOM      2  C6  IDS d 303     135.231  14.009  79.490  0.00  0.00     0.206 C 
ATOM      3  O1S IDS d 303     134.604   7.223  79.971  0.00  0.00    -0.572 OA
ATOM      4  O3S IDS d 303     136.800   6.988  79.036  0.00  0.00    -0.572 OA
ATOM      5  O4  IDS d 303     136.352  11.795  81.338  0.00  0.00    -0.348 OA
ATOM      6  O61 IDS d 303     135.817  15.072  79.481  0.00  0.00    -0.646 OA
ATOM      7  C4  IDS d 303     136.991  12.213  80.122  0.00  0.00     0.103 C 
ATOM      8  C3  IDS d 303     137.649  10.910  79.586  0.00  0.00     0.094 C 
ATOM      9  O62 IDS d 303     134.062  14.007  79.816  0.00  0.00    -0.646 OA
ATOM     10  O3  IDS d 303     138.565  11.263  78.564  0.00  0.00    -0.390 OA
ATOM     11  C5  IDS d 303     135.942  12.714  79.100  0.00  0.00     0.152 C 
ATOM     12  O2  IDS d 303     136.147   9.078  80.068  0.00  0.00    -0.244 OA
ATOM     13  C1  IDS d 303     135.416  10.494  78.265  0.00  0.00     0.161 C 
ATOM     14  S   IDS d 303     136.005   7.513  80.117  0.00  0.00     0.252 S 
ATOM     15  C2  IDS d 303     136.634   9.884  79.007  0.00  0.00     0.134 C 
ATOM     16  O5  IDS d 303     134.964  11.684  78.902  0.00  0.00    -0.340 OA
ATOM     17  H   IDS d 303     137.686  13.013  80.280  0.00  0.00     0.092 H 
ATOM     18  H   IDS d 303     138.125  10.434  80.417  0.00  0.00     0.091 H 
ATOM     19  H   IDS d 303     138.087  11.689  77.835  0.00  0.00     0.210 HD
ATOM     20  H   IDS d 303     136.483  12.936  78.204  0.00  0.00     0.104 H 
ATOM     21  H   IDS d 303     134.596   9.808  78.298  0.00  0.00     0.133 H 
ATOM     22  H   IDS d 303     137.179   9.329  78.273  0.00  0.00     0.097 H 
ATOM     23  C2  SGN d 304     136.562  11.292  83.730  0.00  0.00     0.081 C 
ATOM     24  C1  SGN d 304     136.884  12.261  82.559  0.00  0.00     0.150 C 
ATOM     25  O3  SGN d 304     134.761  10.419  85.083  0.00  0.00    -0.391 OA
ATOM     26  O3S SGN d 304     138.569   8.525  84.654  0.00  0.00    -0.296 OA
ATOM     27  O5S SGN d 304     136.576  16.944  86.111  0.00  0.00    -0.572 OA
ATOM     28  O2S SGN d 304     139.356  10.705  84.043  0.00  0.00    -0.296 OA
ATOM     29  O4S SGN d 304     134.237  17.157  85.641  0.00  0.00    -0.572 OA
ATOM     30  O4  SGN d 304     133.313  12.542  84.915  0.00  0.00    -0.348 OA
ATOM     31  O6  SGN d 304     135.638  15.687  84.331  0.00  0.00    -0.254 OA
ATOM     32  S1  SGN d 304     138.617   9.536  83.639  0.00  0.00     0.156 S 
ATOM     33  C4  SGN d 304     134.641  12.746  84.405  0.00  0.00     0.095 C 
ATOM     34  O6S SGN d 304     135.863  18.062  84.131  0.00  0.00    -0.572 OA
ATOM     35  N   SGN d 304     137.049   9.952  83.364  0.00  0.00    -0.210 NA
ATOM     36  C5  SGN d 304     134.989  13.675  83.195  0.00  0.00     0.091 C 
ATOM     37  C3  SGN d 304     135.045  11.301  84.010  0.00  0.00     0.083 C 
ATOM     38  C6  SGN d 304     134.695  15.165  83.417  0.00  0.00     0.067 C 
ATOM     39  O5  SGN d 304     136.394  13.572  82.848  0.00  0.00    -0.349 OA
ATOM     40  O1S SGN d 304     139.078   9.023  82.379  0.00  0.00    -0.296 OA
ATOM     41  S2  SGN d 304     135.563  17.046  85.097  0.00  0.00     0.251 S 
ATOM     42  H   SGN d 304     137.050  11.600  84.631  0.00  0.00     0.076 H 
ATOM     43  H   SGN d 304     137.949  12.304  82.456  0.00  0.00     0.131 H 
ATOM     44  H   SGN d 304     135.014   9.516  84.834  0.00  0.00     0.210 HD
ATOM     45  H   SGN d 304     138.254   8.915  85.484  0.00  0.00     0.231 HD
ATOM     46  H   SGN d 304     139.018  11.023  84.895  0.00  0.00     0.231 HD
ATOM     47  H   SGN d 304     135.146  13.294  85.173  0.00  0.00     0.091 H 
ATOM     48  H   SGN d 304     136.890   9.844  82.362  0.00  0.00     0.140 HD
ATOM     49  H   SGN d 304     134.349  13.323  82.413  0.00  0.00     0.090 H 
ATOM     50  H   SGN d 304     134.500  10.985  83.146  0.00  0.00     0.089 H 
ATOM     51  H   SGN d 304     134.769  15.689  82.487  0.00  0.00     0.080 H 
ATOM     52  H   SGN d 304     133.706  15.285  83.808  0.00  0.00     0.080 H 
ATOM     53  H   SGN d 304     140.006   8.754  82.460  0.00  0.00     0.231 HD
ATOM     54  O62 IDS d 301     133.108   7.278  72.923  0.00  0.00    -0.646 OA
ATOM     55  O1  IDS d 301     133.396   7.601  67.920  0.00  0.00    -0.368 OA
ATOM     56  C4  IDS d 301     134.007   9.852  71.280  0.00  0.00     0.103 C 
ATOM     57  C5  IDS d 301     133.115   8.602  70.930  0.00  0.00     0.152 C 
ATOM     58  O61 IDS d 301     131.268   7.989  72.298  0.00  0.00    -0.646 OA
ATOM     59  S   IDS d 301     134.890  10.792  66.414  0.00  0.00     0.252 S 
ATOM     60  C3  IDS d 301     134.920  10.228  70.070  0.00  0.00     0.094 C 
ATOM     61  C1  IDS d 301     134.309   8.061  68.878  0.00  0.00     0.158 C 
ATOM     62  C6  IDS d 301     132.463   7.913  72.122  0.00  0.00     0.206 C 
ATOM     63  O5  IDS d 301     133.915   7.651  70.193  0.00  0.00    -0.340 OA
ATOM     64  O4  IDS d 301     134.575  10.605  72.363  0.00  0.00    -0.348 OA
ATOM     65  O3S IDS d 301     135.864  10.359  65.444  0.00  0.00    -0.572 OA
ATOM     66  O1S IDS d 301     133.548  10.445  66.033  0.00  0.00    -0.572 OA
ATOM     67  C2  IDS d 301     134.382   9.613  68.763  0.00  0.00     0.134 C 
ATOM     68  O3  IDS d 301     134.967  11.640  69.936  0.00  0.00    -0.390 OA
ATOM     69  O2  IDS d 301     135.244   9.970  67.699  0.00  0.00    -0.244 OA
ATOM     70  O2S IDS d 301     135.036  12.177  66.780  0.00  0.00    -0.572 OA
ATOM     71  H   IDS d 301     133.681   7.889  67.038  0.00  0.00     0.212 HD
ATOM     72  H   IDS d 301     133.085   9.919  71.818  0.00  0.00     0.092 H 
ATOM     73  H   IDS d 301     132.299   8.975  70.347  0.00  0.00     0.104 H 
ATOM     74  H   IDS d 301     135.901   9.840  70.254  0.00  0.00     0.091 H 
ATOM     75  H   IDS d 301     135.276   7.639  68.702  0.00  0.00     0.133 H 
ATOM     76  H   IDS d 301     133.397   9.986  68.580  0.00  0.00     0.097 H 
ATOM     77  H   IDS d 301     134.073  11.979  69.770  0.00  0.00     0.210 HD
ATOM     78  O1S SGN d 302     134.892  15.308  71.634  0.00  0.00    -0.296 OA
ATOM     79  C2  SGN d 302     134.284  12.400  74.031  0.00  0.00     0.081 C 
ATOM     80  S2  SGN d 302     131.101   8.219  77.091  0.00  0.00     0.251 S 
ATOM     81  N   SGN d 302     134.847  13.355  73.059  0.00  0.00    -0.210 NA
ATOM     82  C4  SGN d 302     134.709  10.932  76.005  0.00  0.00     0.095 C 
ATOM     83  O6  SGN d 302     132.299   9.104  76.617  0.00  0.00    -0.254 OA
ATOM     84  C5  SGN d 302     134.160   9.730  75.170  0.00  0.00     0.091 C 
ATOM     85  O4S SGN d 302     131.647   7.172  77.909  0.00  0.00    -0.572 OA
ATOM     86  O2S SGN d 302     132.818  14.201  71.900  0.00  0.00    -0.296 OA
ATOM     87  S1  SGN d 302     134.006  14.658  72.552  0.00  0.00     0.156 S 
ATOM     88  O5S SGN d 302     130.258   9.101  77.838  0.00  0.00    -0.572 OA
ATOM     89  O6S SGN d 302     130.485   7.737  75.890  0.00  0.00    -0.572 OA
ATOM     90  C6  SGN d 302     133.476   8.632  76.005  0.00  0.00     0.067 C 
ATOM     91  O3  SGN d 302     135.853  13.056  75.714  0.00  0.00    -0.391 OA
ATOM     92  C3  SGN d 302     135.347  11.931  75.016  0.00  0.00     0.083 C 
ATOM     93  O4  SGN d 302     135.768  10.716  76.932  0.00  0.00    -0.348 OA
ATOM     94  O3S SGN d 302     133.744  15.438  73.727  0.00  0.00    -0.296 OA
ATOM     95  C1  SGN d 302     133.681  11.192  73.271  0.00  0.00     0.150 C 
ATOM     96  O5  SGN d 302     133.197  10.204  74.188  0.00  0.00    -0.349 OA
ATOM     97  H   SGN d 302     135.033  14.738  70.861  0.00  0.00     0.231 HD
ATOM     98  H   SGN d 302     133.515  12.892  74.591  0.00  0.00     0.076 H 
ATOM     99  H   SGN d 302     135.072  12.815  72.223  0.00  0.00     0.140 HD
ATOM    100  H   SGN d 302     133.846  11.225  76.566  0.00  0.00     0.091 H 
ATOM    101  H   SGN d 302     135.022   9.294  74.712  0.00  0.00     0.090 H 
ATOM    102  H   SGN d 302     133.057  13.681  71.116  0.00  0.00     0.231 HD
ATOM    103  H   SGN d 302     133.230   7.812  75.363  0.00  0.00     0.080 H 
ATOM    104  H   SGN d 302     134.154   8.326  76.774  0.00  0.00     0.080 H 
ATOM    105  H   SGN d 302     136.251  13.675  75.082  0.00  0.00     0.210 HD
ATOM    106  H   SGN d 302     136.149  11.446  74.500  0.00  0.00     0.089 H 
ATOM    107  H   SGN d 302     134.584  15.717  74.123  0.00  0.00     0.231 HD
ATOM    108  H   SGN d 302     132.866  11.581  72.698  0.00  0.00     0.131 H 
ATOM    109  C1  IDS d 305     132.826  13.433  85.888  0.00  0.00     0.161 C 
ATOM    110  O1S IDS d 305     129.930  15.246  82.880  0.00  0.00    -0.572 OA
ATOM    111  S   IDS d 305     129.991  13.987  83.567  0.00  0.00     0.252 S 
ATOM    112  C4  IDS d 305     131.179  12.772  88.321  0.00  0.00    -0.005 C 
ATOM    113  O61 IDS d 305     133.491  10.567  89.484  0.00  0.00    -0.646 OA
ATOM    114  O3  IDS d 305     129.272  13.687  87.161  0.00  0.00    -0.393 OA
ATOM    115  O62 IDS d 305     133.942  12.550  89.896  0.00  0.00    -0.646 OA
ATOM    116  O2S IDS d 305     130.715  13.000  82.824  0.00  0.00    -0.572 OA
ATOM    117  O2  IDS d 305     130.805  14.293  84.869  0.00  0.00    -0.244 OA
ATOM    118  O5  IDS d 305     133.336  13.116  87.193  0.00  0.00    -0.343 OA
ATOM    119  C5  IDS d 305     132.576  12.161  87.968  0.00  0.00     0.127 C 
ATOM    120  C3  IDS d 305     130.685  13.750  87.218  0.00  0.00     0.069 C 
ATOM    121  C2  IDS d 305     131.276  13.374  85.843  0.00  0.00     0.132 C 
ATOM    122  C6  IDS d 305     133.386  11.738  89.190  0.00  0.00     0.203 C 
ATOM    123  O3S IDS d 305     128.705  13.533  84.009  0.00  0.00    -0.572 OA
ATOM    124  H   IDS d 305     133.159  14.429  85.678  0.00  0.00     0.133 H 
ATOM    125  H   IDS d 305     130.470  11.977  88.424  0.00  0.00     0.041 H 
ATOM    126  H   IDS d 305     131.276  13.320  89.234  0.00  0.00     0.041 H 
ATOM    127  H   IDS d 305     128.903  13.924  88.026  0.00  0.00     0.210 HD
ATOM    128  H   IDS d 305     132.389  11.271  87.404  0.00  0.00     0.100 H 
ATOM    129  H   IDS d 305     131.006  14.742  87.457  0.00  0.00     0.087 H 
ATOM    130  H   IDS d 305     130.971  12.379  85.593  0.00  0.00     0.097 H 
ENDROOT
TORSDOF 39
ENDMDL
MODEL 39
REMARK VINA RESULT:      -5.5      4.450      7.268
REMARK  0 active torsions:
REMARK  status: ('A' for Active; 'I' for Inactive)
REMARK       I    between atoms: C2_2  and  N_68 
REMARK       I    between atoms: C1_3  and  O4_24 
REMARK       I    between atoms: O1S_5  and  S1_58 
REMARK       I    between atoms: O1_6  and  C1_31 
REMARK       I    between atoms: C4_7  and  O4_36 
REMARK       I    between atoms: C1_8  and  O4_37 
REMARK       I    between atoms: O3_9  and  C3_74 
REMARK       I    between atoms: C5_10  and  C6_32 
REMARK       I    between atoms: C2_11  and  N_20 
REMARK       I    between atoms: C6_12  and  C5_53 
REMARK       I    between atoms: S2_14  and  O6_33 
REMARK       I    between atoms: O3S_16  and  S1_51 
REMARK       I    between atoms: S_17  and  O2_44 
REMARK       I    between atoms: N_20  and  S1_58 
REMARK       I    between atoms: O4_24  and  C4_38 
REMARK       I    between atoms: S_25  and  O2_64 
REMARK       I    between atoms: O2S_27  and  S1_51 
REMARK       I    between atoms: C4_28  and  O4_73 
REMARK       I    between atoms: C3_30  and  O3_62 
REMARK       I    between atoms: O6_33  and  C6_63 
REMARK       I    between atoms: O3_35  and  C3_55 
REMARK       I    between atoms: O4_36  and  C1_84 
REMARK       I    between atoms: O4_37  and  C4_54 
REMARK       I    between atoms: C3_39  and  O3_48 
REMARK       I    between atoms: C5_42  and  C6_63 
REMARK       I    between atoms: O2_44  and  C2_61 
REMARK       I    between atoms: O6_45  and  C6_77 
REMARK       I    between atoms: O6_45  and  S2_82 
REMARK       I    between atoms: C5_49  and  C6_76 
REMARK       I    between atoms: S1_51  and  N_68 
REMARK       I    between atoms: S1_51  and  O1S_81 
REMARK       I    between atoms: O2S_52  and  S1_58 
REMARK       I    between atoms: C2_57  and  O2_64 
REMARK       I    between atoms: S1_58  and  O3S_75 
REMARK       I    between atoms: O3_66  and  C3_67 
REMARK       I    between atoms: O2_69  and  C2_79 
REMARK       I    between atoms: O2_69  and  S_72 
REMARK       I    between atoms: C5_70  and  C6_77 
REMARK       I    between atoms: C1_71  and  O4_73 
ROOT
ATOM      1  O2S IDS d 303     139.687   4.739  77.196  0.00  0.00    -0.572 OA
ATOM      2  C6  IDS d 303     132.857   6.498  75.518  0.00  0.00     0.206 C 
ATOM      3  O1S IDS d 303     139.058   6.719  78.375  0.00  0.00    -0.572 OA
ATOM      4  O3S IDS d 303     138.645   4.570  79.356  0.00  0.00    -0.572 OA
ATOM      5  O4  IDS d 303     135.595   5.153  75.002  0.00  0.00    -0.348 OA
ATOM      6  O61 IDS d 303     131.880   5.974  75.023  0.00  0.00    -0.646 OA
ATOM      7  C4  IDS d 303     134.594   4.608  75.876  0.00  0.00     0.103 C 
ATOM      8  C3  IDS d 303     135.423   3.911  76.993  0.00  0.00     0.094 C 
ATOM      9  O62 IDS d 303     133.105   7.645  75.207  0.00  0.00    -0.646 OA
ATOM     10  O3  IDS d 303     134.552   3.075  77.736  0.00  0.00    -0.390 OA
ATOM     11  C5  IDS d 303     133.745   5.740  76.504  0.00  0.00     0.152 C 
ATOM     12  O2  IDS d 303     137.369   5.278  77.426  0.00  0.00    -0.244 OA
ATOM     13  C1  IDS d 303     135.319   6.188  78.298  0.00  0.00     0.161 C 
ATOM     14  S   IDS d 303     138.769   5.330  78.139  0.00  0.00     0.252 S 
ATOM     15  C2  IDS d 303     136.116   4.898  77.973  0.00  0.00     0.134 C 
ATOM     16  O5  IDS d 303     134.623   6.669  77.154  0.00  0.00    -0.340 OA
ATOM     17  H   IDS d 303     133.920   3.951  75.367  0.00  0.00     0.092 H 
ATOM     18  H   IDS d 303     136.203   3.362  76.507  0.00  0.00     0.091 H 
ATOM     19  H   IDS d 303     133.866   3.616  78.155  0.00  0.00     0.210 HD
ATOM     20  H   IDS d 303     133.077   5.264  77.191  0.00  0.00     0.104 H 
ATOM     21  H   IDS d 303     135.996   6.966  78.583  0.00  0.00     0.133 H 
ATOM     22  H   IDS d 303     136.205   4.365  78.897  0.00  0.00     0.097 H 
ATOM     23  C2  SGN d 304     137.172   4.780  73.161  0.00  0.00     0.081 C 
ATOM     24  C1  SGN d 304     135.736   4.579  73.721  0.00  0.00     0.150 C 
ATOM     25  O3  SGN d 304     138.723   6.449  72.360  0.00  0.00    -0.391 OA
ATOM     26  O3S SGN d 304     139.878   2.572  73.740  0.00  0.00    -0.296 OA
ATOM     27  O5S SGN d 304     133.386   4.944  68.337  0.00  0.00    -0.572 OA
ATOM     28  O2S SGN d 304     137.621   1.943  73.235  0.00  0.00    -0.296 OA
ATOM     29  O4S SGN d 304     133.152   7.314  68.592  0.00  0.00    -0.572 OA
ATOM     30  O4  SGN d 304     136.900   8.020  71.443  0.00  0.00    -0.348 OA
ATOM     31  O6  SGN d 304     133.696   5.911  70.481  0.00  0.00    -0.254 OA
ATOM     32  S1  SGN d 304     138.503   2.638  74.138  0.00  0.00     0.156 S 
ATOM     33  C4  SGN d 304     136.374   6.737  71.821  0.00  0.00     0.095 C 
ATOM     34  O6S SGN d 304     131.510   5.830  69.509  0.00  0.00    -0.572 OA
ATOM     35  N   SGN d 304     138.127   4.240  74.141  0.00  0.00    -0.210 NA
ATOM     36  C5  SGN d 304     134.954   6.511  72.436  0.00  0.00     0.091 C 
ATOM     37  C3  SGN d 304     137.415   6.276  72.876  0.00  0.00     0.083 C 
ATOM     38  C6  SGN d 304     133.783   6.874  71.512  0.00  0.00     0.067 C 
ATOM     39  O5  SGN d 304     134.769   5.124  72.822  0.00  0.00    -0.349 OA
ATOM     40  O1S SGN d 304     138.308   2.222  75.499  0.00  0.00    -0.296 OA
ATOM     41  S2  SGN d 304     132.885   6.017  69.151  0.00  0.00     0.251 S 
ATOM     42  H   SGN d 304     137.300   4.259  72.235  0.00  0.00     0.076 H 
ATOM     43  H   SGN d 304     135.568   3.526  73.814  0.00  0.00     0.131 H 
ATOM     44  H   SGN d 304     139.372   6.161  73.021  0.00  0.00     0.210 HD
ATOM     45  H   SGN d 304     139.962   2.861  72.819  0.00  0.00     0.231 HD
ATOM     46  H   SGN d 304     137.781   2.250  72.328  0.00  0.00     0.231 HD
ATOM     47  H   SGN d 304     136.228   6.221  70.895  0.00  0.00     0.091 H 
ATOM     48  H   SGN d 304     137.750   4.450  75.066  0.00  0.00     0.140 HD
ATOM     49  H   SGN d 304     134.933   7.173  73.276  0.00  0.00     0.090 H 
ATOM     50  H   SGN d 304     137.315   6.851  73.772  0.00  0.00     0.089 H 
ATOM     51  H   SGN d 304     132.872   6.882  72.073  0.00  0.00     0.080 H 
ATOM     52  H   SGN d 304     133.942   7.844  71.090  0.00  0.00     0.080 H 
ATOM     53  H   SGN d 304     138.511   1.277  75.581  0.00  0.00     0.231 HD
ATOM     54  O62 IDS d 301     135.725   8.614  84.476  0.00  0.00    -0.646 OA
ATOM     55  O1  IDS d 301     133.008   8.629  88.698  0.00  0.00    -0.368 OA
ATOM     56  C4  IDS d 301     132.617   7.955  84.684  0.00  0.00     0.103 C 
ATOM     57  C5  IDS d 301     133.608   8.794  85.575  0.00  0.00     0.152 C 
ATOM     58  O61 IDS d 301     134.943  10.524  84.635  0.00  0.00    -0.646 OA
ATOM     59  S   IDS d 301     129.383   7.404  88.501  0.00  0.00     0.252 S 
ATOM     60  C3  IDS d 301     131.637   7.134  85.579  0.00  0.00     0.094 C 
ATOM     61  C1  IDS d 301     133.000   7.691  87.659  0.00  0.00     0.158 C 
ATOM     62  C6  IDS d 301     134.834   9.338  84.853  0.00  0.00     0.206 C 
ATOM     63  O5  IDS d 301     134.021   7.986  86.699  0.00  0.00    -0.340 OA
ATOM     64  O4  IDS d 301     132.440   7.369  83.384  0.00  0.00    -0.348 OA
ATOM     65  O3S IDS d 301     129.219   6.464  89.581  0.00  0.00    -0.572 OA
ATOM     66  O1S IDS d 301     129.605   8.744  88.972  0.00  0.00    -0.572 OA
ATOM     67  C2  IDS d 301     131.584   7.711  87.008  0.00  0.00     0.134 C 
ATOM     68  O3  IDS d 301     130.336   7.174  85.013  0.00  0.00    -0.390 OA
ATOM     69  O2  IDS d 301     130.693   6.932  87.784  0.00  0.00    -0.244 OA
ATOM     70  O2S IDS d 301     128.340   7.314  87.512  0.00  0.00    -0.572 OA
ATOM     71  H   IDS d 301     132.310   8.412  89.336  0.00  0.00     0.212 HD
ATOM     72  H   IDS d 301     132.890   8.847  84.160  0.00  0.00     0.092 H 
ATOM     73  H   IDS d 301     133.063   9.661  85.885  0.00  0.00     0.104 H 
ATOM     74  H   IDS d 301     131.988   6.124  85.629  0.00  0.00     0.091 H 
ATOM     75  H   IDS d 301     133.208   6.713  88.039  0.00  0.00     0.133 H 
ATOM     76  H   IDS d 301     131.245   8.724  86.965  0.00  0.00     0.097 H 
ATOM     77  H   IDS d 301     130.029   8.093  84.973  0.00  0.00     0.210 HD
ATOM     78  O1S SGN d 302     127.959   7.356  81.747  0.00  0.00    -0.296 OA
ATOM     79  C2  SGN d 302     131.699   7.663  81.049  0.00  0.00     0.081 C 
ATOM     80  S2  SGN d 302     137.067  10.430  80.329  0.00  0.00     0.251 S 
ATOM     81  N   SGN d 302     130.355   7.211  81.448  0.00  0.00    -0.210 NA
ATOM     82  C4  SGN d 302     133.901   7.046  80.045  0.00  0.00     0.095 C 
ATOM     83  O6  SGN d 302     135.975   9.312  80.342  0.00  0.00    -0.254 OA
ATOM     84  C5  SGN d 302     134.589   7.574  81.345  0.00  0.00     0.091 C 
ATOM     85  O4S SGN d 302     138.334   9.781  80.135  0.00  0.00    -0.572 OA
ATOM     86  O2S SGN d 302     129.212   9.347  82.005  0.00  0.00    -0.296 OA
ATOM     87  S1  SGN d 302     129.038   8.151  81.240  0.00  0.00     0.156 S 
ATOM     88  O5S SGN d 302     136.722  11.277  79.230  0.00  0.00    -0.572 OA
ATOM     89  O6S SGN d 302     136.956  11.086  81.599  0.00  0.00    -0.572 OA
ATOM     90  C6  SGN d 302     136.001   8.147  81.133  0.00  0.00     0.067 C 
ATOM     91  O3  SGN d 302     131.819   6.040  79.295  0.00  0.00    -0.391 OA
ATOM     92  C3  SGN d 302     132.504   6.522  80.439  0.00  0.00     0.083 C 
ATOM     93  O4  SGN d 302     134.455   5.925  79.363  0.00  0.00    -0.348 OA
ATOM     94  O3S SGN d 302     128.944   8.389  79.829  0.00  0.00    -0.296 OA
ATOM     95  C1  SGN d 302     132.434   8.240  82.286  0.00  0.00     0.150 C 
ATOM     96  O5  SGN d 302     133.775   8.617  81.952  0.00  0.00    -0.349 OA
ATOM     97  H   SGN d 302     128.073   7.228  82.702  0.00  0.00     0.231 HD
ATOM     98  H   SGN d 302     131.600   8.426  80.303  0.00  0.00     0.076 H 
ATOM     99  H   SGN d 302     130.406   7.004  82.446  0.00  0.00     0.140 HD
ATOM    100  H   SGN d 302     133.982   7.891  79.393  0.00  0.00     0.091 H 
ATOM    101  H   SGN d 302     134.682   6.716  81.977  0.00  0.00     0.090 H 
ATOM    102  H   SGN d 302     129.269   9.124  82.947  0.00  0.00     0.231 HD
ATOM    103  H   SGN d 302     136.427   8.384  82.086  0.00  0.00     0.080 H 
ATOM    104  H   SGN d 302     136.588   7.410  80.625  0.00  0.00     0.080 H 
ATOM    105  H   SGN d 302     130.944   5.714  79.556  0.00  0.00     0.210 HD
ATOM    106  H   SGN d 302     132.616   5.725  81.144  0.00  0.00     0.089 H 
ATOM    107  H   SGN d 302     128.827   7.544  79.366  0.00  0.00     0.231 HD
ATOM    108  H   SGN d 302     131.880   9.108  82.579  0.00  0.00     0.131 H 
ATOM    109  C1  IDS d 305     136.628   8.499  70.150  0.00  0.00     0.161 C 
ATOM    110  O1S IDS d 305     133.817  11.659  71.834  0.00  0.00    -0.572 OA
ATOM    111  S   IDS d 305     135.242  11.489  71.845  0.00  0.00     0.252 S 
ATOM    112  C4  IDS d 305     138.505   9.966  68.307  0.00  0.00    -0.005 C 
ATOM    113  O61 IDS d 305     140.814   7.473  68.412  0.00  0.00    -0.646 OA
ATOM    114  O3  IDS d 305     137.292  11.984  68.832  0.00  0.00    -0.393 OA
ATOM    115  O62 IDS d 305     139.248   7.110  67.100  0.00  0.00    -0.646 OA
ATOM    116  O2S IDS d 305     135.690  10.754  72.990  0.00  0.00    -0.572 OA
ATOM    117  O2  IDS d 305     135.541  10.620  70.578  0.00  0.00    -0.244 OA
ATOM    118  O5  IDS d 305     137.496   7.900  69.174  0.00  0.00    -0.343 OA
ATOM    119  C5  IDS d 305     138.761   8.559  68.943  0.00  0.00     0.127 C 
ATOM    120  C3  IDS d 305     137.156  10.576  68.785  0.00  0.00     0.069 C 
ATOM    121  C2  IDS d 305     136.776  10.045  70.182  0.00  0.00     0.132 C 
ATOM    122  C6  IDS d 305     139.658   7.659  68.099  0.00  0.00     0.203 C 
ATOM    123  O3S IDS d 305     135.949  12.720  71.649  0.00  0.00    -0.572 OA
ATOM    124  H   IDS d 305     135.633   8.235  69.858  0.00  0.00     0.133 H 
ATOM    125  H   IDS d 305     139.302  10.623  68.586  0.00  0.00     0.041 H 
ATOM    126  H   IDS d 305     138.459   9.848  67.244  0.00  0.00     0.041 H 
ATOM    127  H   IDS d 305     137.531  12.316  67.953  0.00  0.00     0.210 HD
ATOM    128  H   IDS d 305     139.280   8.729  69.863  0.00  0.00     0.100 H 
ATOM    129  H   IDS d 305     136.382  10.297  68.102  0.00  0.00     0.087 H 
ATOM    130  H   IDS d 305     137.547  10.307  70.877  0.00  0.00     0.097 H 
ENDROOT
TORSDOF 39
ENDMDL
MODEL 40
REMARK VINA RESULT:      -5.5      5.402     14.372
REMARK  0 active torsions:
REMARK  status: ('A' for Active; 'I' for Inactive)
REMARK       I    between atoms: C2_2  and  N_68 
REMARK       I    between atoms: C1_3  and  O4_24 
REMARK       I    between atoms: O1S_5  and  S1_58 
REMARK       I    between atoms: O1_6  and  C1_31 
REMARK       I    between atoms: C4_7  and  O4_36 
REMARK       I    between atoms: C1_8  and  O4_37 
REMARK       I    between atoms: O3_9  and  C3_74 
REMARK       I    between atoms: C5_10  and  C6_32 
REMARK       I    between atoms: C2_11  and  N_20 
REMARK       I    between atoms: C6_12  and  C5_53 
REMARK       I    between atoms: S2_14  and  O6_33 
REMARK       I    between atoms: O3S_16  and  S1_51 
REMARK       I    between atoms: S_17  and  O2_44 
REMARK       I    between atoms: N_20  and  S1_58 
REMARK       I    between atoms: O4_24  and  C4_38 
REMARK       I    between atoms: S_25  and  O2_64 
REMARK       I    between atoms: O2S_27  and  S1_51 
REMARK       I    between atoms: C4_28  and  O4_73 
REMARK       I    between atoms: C3_30  and  O3_62 
REMARK       I    between atoms: O6_33  and  C6_63 
REMARK       I    between atoms: O3_35  and  C3_55 
REMARK       I    between atoms: O4_36  and  C1_84 
REMARK       I    between atoms: O4_37  and  C4_54 
REMARK       I    between atoms: C3_39  and  O3_48 
REMARK       I    between atoms: C5_42  and  C6_63 
REMARK       I    between atoms: O2_44  and  C2_61 
REMARK       I    between atoms: O6_45  and  C6_77 
REMARK       I    between atoms: O6_45  and  S2_82 
REMARK       I    between atoms: C5_49  and  C6_76 
REMARK       I    between atoms: S1_51  and  N_68 
REMARK       I    between atoms: S1_51  and  O1S_81 
REMARK       I    between atoms: O2S_52  and  S1_58 
REMARK       I    between atoms: C2_57  and  O2_64 
REMARK       I    between atoms: S1_58  and  O3S_75 
REMARK       I    between atoms: O3_66  and  C3_67 
REMARK       I    between atoms: O2_69  and  C2_79 
REMARK       I    between atoms: O2_69  and  S_72 
REMARK       I    between atoms: C5_70  and  C6_77 
REMARK       I    between atoms: C1_71  and  O4_73 
ROOT
ATOM      1  O2S IDS d 303     137.691  13.258  81.787  0.00  0.00    -0.572 OA
ATOM      2  C6  IDS d 303     130.935  15.519  80.446  0.00  0.00     0.206 C 
ATOM      3  O1S IDS d 303     136.684  11.842  80.147  0.00  0.00    -0.572 OA
ATOM      4  O3S IDS d 303     137.866  13.809  79.453  0.00  0.00    -0.572 OA
ATOM      5  O4  IDS d 303     133.486  15.233  82.172  0.00  0.00    -0.348 OA
ATOM      6  O61 IDS d 303     130.261  16.515  80.615  0.00  0.00    -0.646 OA
ATOM      7  C4  IDS d 303     133.362  16.166  81.088  0.00  0.00     0.103 C 
ATOM      8  C3  IDS d 303     134.800  16.239  80.499  0.00  0.00     0.094 C 
ATOM      9  O62 IDS d 303     130.411  14.441  80.633  0.00  0.00    -0.646 OA
ATOM     10  O3  IDS d 303     134.868  17.357  79.631  0.00  0.00    -0.390 OA
ATOM     11  C5  IDS d 303     132.395  15.621  80.008  0.00  0.00     0.152 C 
ATOM     12  O2  IDS d 303     135.753  14.020  80.613  0.00  0.00    -0.244 OA
ATOM     13  C1  IDS d 303     134.089  14.284  78.894  0.00  0.00     0.161 C 
ATOM     14  S   IDS d 303     137.077  13.183  80.483  0.00  0.00     0.252 S 
ATOM     15  C2  IDS d 303     135.220  14.971  79.704  0.00  0.00     0.134 C 
ATOM     16  O5  IDS d 303     132.851  14.326  79.594  0.00  0.00    -0.340 OA
ATOM     17  H   IDS d 303     132.978  17.114  81.406  0.00  0.00     0.092 H 
ATOM     18  H   IDS d 303     135.473  16.319  81.326  0.00  0.00     0.091 H 
ATOM     19  H   IDS d 303     134.242  17.238  78.900  0.00  0.00     0.210 HD
ATOM     20  H   IDS d 303     132.411  16.331  79.209  0.00  0.00     0.104 H 
ATOM     21  H   IDS d 303     134.321  13.248  78.761  0.00  0.00     0.133 H 
ATOM     22  H   IDS d 303     135.935  15.311  78.984  0.00  0.00     0.097 H 
ATOM     23  C2  SGN d 304     134.123  14.833  84.507  0.00  0.00     0.081 C 
ATOM     24  C1  SGN d 304     133.365  15.729  83.488  0.00  0.00     0.150 C 
ATOM     25  O3  SGN d 304     134.122  12.652  85.546  0.00  0.00    -0.391 OA
ATOM     26  O3S SGN d 304     137.537  15.217  85.365  0.00  0.00    -0.296 OA
ATOM     27  O5S SGN d 304     129.209  17.032  87.446  0.00  0.00    -0.572 OA
ATOM     28  O2S SGN d 304     135.941  16.982  85.078  0.00  0.00    -0.296 OA
ATOM     29  O4S SGN d 304     127.926  15.140  86.733  0.00  0.00    -0.572 OA
ATOM     30  O4  SGN d 304     131.566  12.358  85.433  0.00  0.00    -0.348 OA
ATOM     31  O6  SGN d 304     129.823  15.907  85.449  0.00  0.00    -0.254 OA
ATOM     32  S1  SGN d 304     136.622  15.866  84.473  0.00  0.00     0.156 S 
ATOM     33  C4  SGN d 304     131.976  13.696  85.103  0.00  0.00     0.095 C 
ATOM     34  O6S SGN d 304     127.812  17.204  85.523  0.00  0.00    -0.572 OA
ATOM     35  N   SGN d 304     135.522  14.714  84.063  0.00  0.00    -0.210 NA
ATOM     36  C5  SGN d 304     131.265  14.601  84.044  0.00  0.00     0.091 C 
ATOM     37  C3  SGN d 304     133.428  13.460  84.610  0.00  0.00     0.083 C 
ATOM     38  C6  SGN d 304     129.816  14.979  84.383  0.00  0.00     0.067 C 
ATOM     39  O5  SGN d 304     131.989  15.844  83.852  0.00  0.00    -0.349 OA
ATOM     40  O1S SGN d 304     137.240  16.230  83.228  0.00  0.00    -0.296 OA
ATOM     41  S2  SGN d 304     128.613  16.339  86.337  0.00  0.00     0.251 S 
ATOM     42  H   SGN d 304     134.110  15.266  85.485  0.00  0.00     0.076 H 
ATOM     43  H   SGN d 304     133.814  16.700  83.513  0.00  0.00     0.131 H 
ATOM     44  H   SGN d 304     135.029  12.506  85.236  0.00  0.00     0.210 HD
ATOM     45  H   SGN d 304     137.078  14.990  86.189  0.00  0.00     0.231 HD
ATOM     46  H   SGN d 304     135.537  16.700  85.913  0.00  0.00     0.231 HD
ATOM     47  H   SGN d 304     131.752  14.271  85.977  0.00  0.00     0.091 H 
ATOM     48  H   SGN d 304     135.505  14.675  83.044  0.00  0.00     0.140 HD
ATOM     49  H   SGN d 304     131.252  13.997  83.161  0.00  0.00     0.090 H 
ATOM     50  H   SGN d 304     133.424  12.967  83.661  0.00  0.00     0.089 H 
ATOM     51  H   SGN d 304     129.349  15.419  83.527  0.00  0.00     0.080 H 
ATOM     52  H   SGN d 304     129.270  14.104  84.668  0.00  0.00     0.080 H 
ATOM     53  H   SGN d 304     137.909  16.913  83.387  0.00  0.00     0.231 HD
ATOM     54  O62 IDS d 301     135.671  11.605  73.017  0.00  0.00    -0.646 OA
ATOM     55  O1  IDS d 301     135.321  12.754  68.142  0.00  0.00    -0.368 OA
ATOM     56  C4  IDS d 301     133.737  13.801  71.764  0.00  0.00     0.103 C 
ATOM     57  C5  IDS d 301     134.422  12.505  71.186  0.00  0.00     0.152 C 
ATOM     58  O61 IDS d 301     134.169  10.399  72.261  0.00  0.00    -0.646 OA
ATOM     59  S   IDS d 301     133.118  15.730  67.156  0.00  0.00     0.252 S 
ATOM     60  C3  IDS d 301     133.777  14.955  70.713  0.00  0.00     0.094 C 
ATOM     61  C1  IDS d 301     135.371  13.620  69.241  0.00  0.00     0.158 C 
ATOM     62  C6  IDS d 301     134.780  11.443  72.218  0.00  0.00     0.206 C 
ATOM     63  O5  IDS d 301     135.604  12.893  70.452  0.00  0.00    -0.340 OA
ATOM     64  O4  IDS d 301     133.373  14.477  72.978  0.00  0.00    -0.348 OA
ATOM     65  O3S IDS d 301     133.913  16.538  66.265  0.00  0.00    -0.572 OA
ATOM     66  O1S IDS d 301     132.794  14.449  66.588  0.00  0.00    -0.572 OA
ATOM     67  C2  IDS d 301     134.023  14.400  69.296  0.00  0.00     0.134 C 
ATOM     68  O3  IDS d 301     132.540  15.652  70.731  0.00  0.00    -0.390 OA
ATOM     69  O2  IDS d 301     134.061  15.479  68.381  0.00  0.00    -0.244 OA
ATOM     70  O2S IDS d 301     131.972  16.427  67.678  0.00  0.00    -0.572 OA
ATOM     71  H   IDS d 301     135.162  13.266  67.333  0.00  0.00     0.212 HD
ATOM     72  H   IDS d 301     133.275  12.938  72.196  0.00  0.00     0.092 H 
ATOM     73  H   IDS d 301     133.693  12.043  70.555  0.00  0.00     0.104 H 
ATOM     74  H   IDS d 301     134.579  15.617  70.967  0.00  0.00     0.091 H 
ATOM     75  H   IDS d 301     136.183  14.309  69.134  0.00  0.00     0.133 H 
ATOM     76  H   IDS d 301     133.232  13.728  69.040  0.00  0.00     0.097 H 
ATOM     77  H   IDS d 301     131.822  15.042  70.500  0.00  0.00     0.210 HD
ATOM     78  O1S SGN d 302     129.318  16.982  72.780  0.00  0.00    -0.296 OA
ATOM     79  C2  SGN d 302     131.712  14.780  74.777  0.00  0.00     0.081 C 
ATOM     80  S2  SGN d 302     134.076   9.637  77.002  0.00  0.00     0.251 S 
ATOM     81  N   SGN d 302     131.087  15.850  73.981  0.00  0.00    -0.210 NA
ATOM     82  C4  SGN d 302     133.287  14.197  76.625  0.00  0.00     0.095 C 
ATOM     83  O6  SGN d 302     133.824  11.161  76.762  0.00  0.00    -0.254 OA
ATOM     84  C5  SGN d 302     134.068  13.298  75.612  0.00  0.00     0.091 C 
ATOM     85  O4S SGN d 302     135.289   9.524  77.764  0.00  0.00    -0.572 OA
ATOM     86  O2S SGN d 302     129.357  14.618  72.689  0.00  0.00    -0.296 OA
ATOM     87  S1  SGN d 302     129.524  15.772  73.517  0.00  0.00     0.156 S 
ATOM     88  O5S SGN d 302     132.935   9.180  77.733  0.00  0.00    -0.572 OA
ATOM     89  O6S SGN d 302     134.173   9.057  75.694  0.00  0.00    -0.572 OA
ATOM     90  C6  SGN d 302     134.760  12.077  76.244  0.00  0.00     0.067 C 
ATOM     91  O3  SGN d 302     131.918  16.204  76.688  0.00  0.00    -0.391 OA
ATOM     92  C3  SGN d 302     132.656  15.356  75.825  0.00  0.00     0.083 C 
ATOM     93  O4  SGN d 302     134.002  14.894  77.641  0.00  0.00    -0.348 OA
ATOM     94  O3S SGN d 302     128.757  15.716  74.729  0.00  0.00    -0.296 OA
ATOM     95  C1  SGN d 302     132.477  13.819  73.832  0.00  0.00     0.150 C 
ATOM     96  O5  SGN d 302     133.166  12.810  74.580  0.00  0.00    -0.349 OA
ATOM     97  H   SGN d 302     129.859  16.966  71.974  0.00  0.00     0.231 HD
ATOM     98  H   SGN d 302     130.944  14.240  75.292  0.00  0.00     0.076 H 
ATOM     99  H   SGN d 302     131.636  15.930  73.125  0.00  0.00     0.140 HD
ATOM    100  H   SGN d 302     132.652  13.485  77.110  0.00  0.00     0.091 H 
ATOM    101  H   SGN d 302     134.833  13.930  75.214  0.00  0.00     0.090 H 
ATOM    102  H   SGN d 302     129.897  14.713  71.889  0.00  0.00     0.231 HD
ATOM    103  H   SGN d 302     135.349  11.587  75.498  0.00  0.00     0.080 H 
ATOM    104  H   SGN d 302     135.374  12.421  77.051  0.00  0.00     0.080 H 
ATOM    105  H   SGN d 302     131.527  16.927  76.174  0.00  0.00     0.210 HD
ATOM    106  H   SGN d 302     133.435  15.921  75.357  0.00  0.00     0.089 H 
ATOM    107  H   SGN d 302     128.911  16.522  75.246  0.00  0.00     0.231 HD
ATOM    108  H   SGN d 302     131.734  13.362  73.212  0.00  0.00     0.131 H 
ATOM    109  C1  IDS d 305     130.589  12.185  86.430  0.00  0.00     0.161 C 
ATOM    110  O1S IDS d 305     127.531  10.901  83.312  0.00  0.00    -0.572 OA
ATOM    111  S   IDS d 305     128.703  10.285  83.868  0.00  0.00     0.252 S 
ATOM    112  C4  IDS d 305     130.514  10.073  88.575  0.00  0.00    -0.005 C 
ATOM    113  O61 IDS d 305     133.579  10.942  89.763  0.00  0.00    -0.646 OA
ATOM    114  O3  IDS d 305     128.779   8.980  87.305  0.00  0.00    -0.393 OA
ATOM    115  O62 IDS d 305     132.044  12.170  90.427  0.00  0.00    -0.646 OA
ATOM    116  O2S IDS d 305     129.883  10.590  83.115  0.00  0.00    -0.572 OA
ATOM    117  O2  IDS d 305     128.858  10.945  85.279  0.00  0.00    -0.244 OA
ATOM    118  O5  IDS d 305     131.156  12.295  87.746  0.00  0.00    -0.343 OA
ATOM    119  C5  IDS d 305     131.685  11.081  88.324  0.00  0.00     0.127 C 
ATOM    120  C3  IDS d 305     129.375  10.243  87.530  0.00  0.00     0.069 C 
ATOM    121  C2  IDS d 305     129.927  10.800  86.201  0.00  0.00     0.132 C 
ATOM    122  C6  IDS d 305     132.480  11.420  89.581  0.00  0.00     0.203 C 
ATOM    123  O3S IDS d 305     128.531   8.883  84.109  0.00  0.00    -0.572 OA
ATOM    124  H   IDS d 305     129.851  12.957  86.364  0.00  0.00     0.133 H 
ATOM    125  H   IDS d 305     130.896   9.075  88.513  0.00  0.00     0.041 H 
ATOM    126  H   IDS d 305     130.108  10.268  89.546  0.00  0.00     0.041 H 
ATOM    127  H   IDS d 305     128.433   8.632  88.141  0.00  0.00     0.210 HD
ATOM    128  H   IDS d 305     132.366  10.600  87.654  0.00  0.00     0.100 H 
ATOM    129  H   IDS d 305     128.653  10.936  87.906  0.00  0.00     0.087 H 
ATOM    130  H   IDS d 305     130.660  10.121  85.816  0.00  0.00     0.097 H 
ENDROOT
TORSDOF 39
ENDMDL
MODEL 41
REMARK VINA RESULT:      -5.5      2.396      3.281
REMARK  0 active torsions:
REMARK  status: ('A' for Active; 'I' for Inactive)
REMARK       I    between atoms: C2_2  and  N_68 
REMARK       I    between atoms: C1_3  and  O4_24 
REMARK       I    between atoms: O1S_5  and  S1_58 
REMARK       I    between atoms: O1_6  and  C1_31 
REMARK       I    between atoms: C4_7  and  O4_36 
REMARK       I    between atoms: C1_8  and  O4_37 
REMARK       I    between atoms: O3_9  and  C3_74 
REMARK       I    between atoms: C5_10  and  C6_32 
REMARK       I    between atoms: C2_11  and  N_20 
REMARK       I    between atoms: C6_12  and  C5_53 
REMARK       I    between atoms: S2_14  and  O6_33 
REMARK       I    between atoms: O3S_16  and  S1_51 
REMARK       I    between atoms: S_17  and  O2_44 
REMARK       I    between atoms: N_20  and  S1_58 
REMARK       I    between atoms: O4_24  and  C4_38 
REMARK       I    between atoms: S_25  and  O2_64 
REMARK       I    between atoms: O2S_27  and  S1_51 
REMARK       I    between atoms: C4_28  and  O4_73 
REMARK       I    between atoms: C3_30  and  O3_62 
REMARK       I    between atoms: O6_33  and  C6_63 
REMARK       I    between atoms: O3_35  and  C3_55 
REMARK       I    between atoms: O4_36  and  C1_84 
REMARK       I    between atoms: O4_37  and  C4_54 
REMARK       I    between atoms: C3_39  and  O3_48 
REMARK       I    between atoms: C5_42  and  C6_63 
REMARK       I    between atoms: O2_44  and  C2_61 
REMARK       I    between atoms: O6_45  and  C6_77 
REMARK       I    between atoms: O6_45  and  S2_82 
REMARK       I    between atoms: C5_49  and  C6_76 
REMARK       I    between atoms: S1_51  and  N_68 
REMARK       I    between atoms: S1_51  and  O1S_81 
REMARK       I    between atoms: O2S_52  and  S1_58 
REMARK       I    between atoms: C2_57  and  O2_64 
REMARK       I    between atoms: S1_58  and  O3S_75 
REMARK       I    between atoms: O3_66  and  C3_67 
REMARK       I    between atoms: O2_69  and  C2_79 
REMARK       I    between atoms: O2_69  and  S_72 
REMARK       I    between atoms: C5_70  and  C6_77 
REMARK       I    between atoms: C1_71  and  O4_73 
ROOT
ATOM      1  O2S IDS d 303     132.815   5.795  80.483  0.00  0.00    -0.572 OA
ATOM      2  C6  IDS d 303     133.913  12.358  77.606  0.00  0.00     0.206 C 
ATOM      3  O1S IDS d 303     135.157   6.258  80.420  0.00  0.00    -0.572 OA
ATOM      4  O3S IDS d 303     133.867   6.915  82.332  0.00  0.00    -0.572 OA
ATOM      5  O4  IDS d 303     132.309   9.754  78.075  0.00  0.00    -0.348 OA
ATOM      6  O61 IDS d 303     133.277  13.366  77.377  0.00  0.00    -0.646 OA
ATOM      7  C4  IDS d 303     132.370  10.831  79.023  0.00  0.00     0.103 C 
ATOM      8  C3  IDS d 303     132.300  10.111  80.401  0.00  0.00     0.094 C 
ATOM      9  O62 IDS d 303     134.710  11.987  76.770  0.00  0.00    -0.646 OA
ATOM     10  O3  IDS d 303     132.035  11.084  81.396  0.00  0.00    -0.390 OA
ATOM     11  C5  IDS d 303     133.719  11.582  78.908  0.00  0.00     0.152 C 
ATOM     12  O2  IDS d 303     133.554   8.053  80.219  0.00  0.00    -0.244 OA
ATOM     13  C1  IDS d 303     134.925  10.028  80.333  0.00  0.00     0.161 C 
ATOM     14  S   IDS d 303     133.872   6.677  80.911  0.00  0.00     0.252 S 
ATOM     15  C2  IDS d 303     133.601   9.354  80.783  0.00  0.00     0.134 C 
ATOM     16  O5  IDS d 303     134.787  10.636  79.054  0.00  0.00    -0.340 OA
ATOM     17  H   IDS d 303     131.592  11.551  78.873  0.00  0.00     0.092 H 
ATOM     18  H   IDS d 303     131.526   9.375  80.330  0.00  0.00     0.091 H 
ATOM     19  H   IDS d 303     132.762  11.726  81.422  0.00  0.00     0.210 HD
ATOM     20  H   IDS d 303     133.718  12.315  79.687  0.00  0.00     0.104 H 
ATOM     21  H   IDS d 303     135.688   9.286  80.229  0.00  0.00     0.133 H 
ATOM     22  H   IDS d 303     133.623   9.348  81.853  0.00  0.00     0.097 H 
ATOM     23  C2  SGN d 304     130.925   8.165  76.820  0.00  0.00     0.081 C 
ATOM     24  C1  SGN d 304     131.144   9.630  77.288  0.00  0.00     0.150 C 
ATOM     25  O3  SGN d 304     131.821   6.430  75.399  0.00  0.00    -0.391 OA
ATOM     26  O3S SGN d 304     129.159   5.713  78.666  0.00  0.00    -0.296 OA
ATOM     27  O5S SGN d 304     128.818  11.761  72.320  0.00  0.00    -0.572 OA
ATOM     28  O2S SGN d 304     128.518   8.004  78.380  0.00  0.00    -0.296 OA
ATOM     29  O4S SGN d 304     130.984  11.765  71.298  0.00  0.00    -0.572 OA
ATOM     30  O4  SGN d 304     132.808   8.057  73.664  0.00  0.00    -0.348 OA
ATOM     31  O6  SGN d 304     130.735  11.424  73.677  0.00  0.00    -0.254 OA
ATOM     32  S1  SGN d 304     129.518   7.086  78.863  0.00  0.00     0.156 S 
ATOM     33  C4  SGN d 304     131.949   8.720  74.606  0.00  0.00     0.095 C 
ATOM     34  O6S SGN d 304     130.312  13.575  72.716  0.00  0.00    -0.572 OA
ATOM     35  N   SGN d 304     130.909   7.300  78.011  0.00  0.00    -0.210 NA
ATOM     36  C5  SGN d 304     132.174  10.174  75.135  0.00  0.00     0.091 C 
ATOM     37  C3  SGN d 304     132.033   7.765  75.826  0.00  0.00     0.083 C 
ATOM     38  C6  SGN d 304     132.084  11.274  74.067  0.00  0.00     0.067 C 
ATOM     39  O5  SGN d 304     131.208  10.509  76.164  0.00  0.00    -0.349 OA
ATOM     40  O1S SGN d 304     129.885   7.365  80.223  0.00  0.00    -0.296 OA
ATOM     41  S2  SGN d 304     130.189  12.178  72.422  0.00  0.00     0.251 S 
ATOM     42  H   SGN d 304     129.991   8.060  76.308  0.00  0.00     0.076 H 
ATOM     43  H   SGN d 304     130.308   9.906  77.898  0.00  0.00     0.131 H 
ATOM     44  H   SGN d 304     131.875   5.834  76.163  0.00  0.00     0.210 HD
ATOM     45  H   SGN d 304     128.920   5.571  77.737  0.00  0.00     0.231 HD
ATOM     46  H   SGN d 304     128.296   7.787  77.461  0.00  0.00     0.231 HD
ATOM     47  H   SGN d 304     131.038   8.888  74.070  0.00  0.00     0.091 H 
ATOM     48  H   SGN d 304     131.595   7.683  78.662  0.00  0.00     0.140 HD
ATOM     49  H   SGN d 304     133.177  10.156  75.509  0.00  0.00     0.090 H 
ATOM     50  H   SGN d 304     132.996   7.834  76.287  0.00  0.00     0.089 H 
ATOM     51  H   SGN d 304     132.447  12.197  74.470  0.00  0.00     0.080 H 
ATOM     52  H   SGN d 304     132.680  11.005  73.219  0.00  0.00     0.080 H 
ATOM     53  H   SGN d 304     129.109   7.260  80.795  0.00  0.00     0.231 HD
ATOM     54  O62 IDS d 301     140.175   9.575  84.388  0.00  0.00    -0.646 OA
ATOM     55  O1  IDS d 301     142.573  12.408  87.769  0.00  0.00    -0.368 OA
ATOM     56  C4  IDS d 301     139.938  12.738  84.660  0.00  0.00     0.103 C 
ATOM     57  C5  IDS d 301     141.047  11.697  85.067  0.00  0.00     0.152 C 
ATOM     58  O61 IDS d 301     141.938  10.166  83.478  0.00  0.00    -0.646 OA
ATOM     59  S   IDS d 301     141.678  16.130  87.946  0.00  0.00     0.252 S 
ATOM     60  C3  IDS d 301     139.773  13.823  85.770  0.00  0.00     0.094 C 
ATOM     61  C1  IDS d 301     141.234  12.478  87.365  0.00  0.00     0.158 C 
ATOM     62  C6  IDS d 301     141.049  10.400  84.266  0.00  0.00     0.206 C 
ATOM     63  O5  IDS d 301     140.915  11.402  86.475  0.00  0.00    -0.340 OA
ATOM     64  O4  IDS d 301     138.775  12.932  83.838  0.00  0.00    -0.348 OA
ATOM     65  O3S IDS d 301     141.452  16.421  89.340  0.00  0.00    -0.572 OA
ATOM     66  O1S IDS d 301     143.049  15.790  87.676  0.00  0.00    -0.572 OA
ATOM     67  C2  IDS d 301     141.010  13.863  86.688  0.00  0.00     0.134 C 
ATOM     68  O3  IDS d 301     139.602  15.095  85.163  0.00  0.00    -0.390 OA
ATOM     69  O2  IDS d 301     140.813  14.852  87.681  0.00  0.00    -0.244 OA
ATOM     70  O2S IDS d 301     141.160  17.145  87.066  0.00  0.00    -0.572 OA
ATOM     71  H   IDS d 301     142.768  13.144  88.371  0.00  0.00     0.212 HD
ATOM     72  H   IDS d 301     140.405  12.361  83.774  0.00  0.00     0.092 H 
ATOM     73  H   IDS d 301     141.984  12.162  84.841  0.00  0.00     0.104 H 
ATOM     74  H   IDS d 301     138.915  13.576  86.360  0.00  0.00     0.091 H 
ATOM     75  H   IDS d 301     140.585  12.380  88.210  0.00  0.00     0.133 H 
ATOM     76  H   IDS d 301     141.874  14.097  86.102  0.00  0.00     0.097 H 
ATOM     77  H   IDS d 301     140.385  15.307  84.631  0.00  0.00     0.210 HD
ATOM     78  O1S SGN d 302     138.223  17.338  82.095  0.00  0.00    -0.296 OA
ATOM     79  C2  SGN d 302     137.862  13.566  81.635  0.00  0.00     0.081 C 
ATOM     80  S2  SGN d 302     139.470   7.928  80.019  0.00  0.00     0.251 S 
ATOM     81  N   SGN d 302     137.777  14.960  82.103  0.00  0.00    -0.210 NA
ATOM     82  C4  SGN d 302     136.662  11.407  81.270  0.00  0.00     0.095 C 
ATOM     83  O6  SGN d 302     138.601   9.127  80.520  0.00  0.00    -0.254 OA
ATOM     84  C5  SGN d 302     137.740  10.711  82.162  0.00  0.00     0.091 C 
ATOM     85  O4S SGN d 302     138.729   6.727  80.288  0.00  0.00    -0.572 OA
ATOM     86  O2S SGN d 302     139.965  15.901  81.388  0.00  0.00    -0.296 OA
ATOM     87  S1  SGN d 302     138.561  16.170  81.338  0.00  0.00     0.156 S 
ATOM     88  O5S SGN d 302     139.643   8.152  78.617  0.00  0.00    -0.572 OA
ATOM     89  O6S SGN d 302     140.697   8.013  80.756  0.00  0.00    -0.572 OA
ATOM     90  C6  SGN d 302     138.019   9.242  81.797  0.00  0.00     0.067 C 
ATOM     91  O3  SGN d 302     135.560  13.554  80.984  0.00  0.00    -0.391 OA
ATOM     92  C3  SGN d 302     136.518  12.861  81.767  0.00  0.00     0.083 C 
ATOM     93  O4  SGN d 302     135.315  10.946  81.309  0.00  0.00    -0.348 OA
ATOM     94  O3S SGN d 302     138.036  16.195  80.003  0.00  0.00    -0.296 OA
ATOM     95  C1  SGN d 302     138.946  12.817  82.452  0.00  0.00     0.150 C 
ATOM     96  O5  SGN d 302     139.000  11.435  82.079  0.00  0.00    -0.349 OA
ATOM     97  H   SGN d 302     138.603  17.267  82.985  0.00  0.00     0.231 HD
ATOM     98  H   SGN d 302     138.130  13.565  80.599  0.00  0.00     0.076 H 
ATOM     99  H   SGN d 302     138.118  14.962  83.065  0.00  0.00     0.140 HD
ATOM    100  H   SGN d 302     137.036  11.221  80.285  0.00  0.00     0.091 H 
ATOM    101  H   SGN d 302     137.332  10.723  83.151  0.00  0.00     0.090 H 
ATOM    102  H   SGN d 302     140.261  15.896  82.312  0.00  0.00     0.231 HD
ATOM    103  H   SGN d 302     138.687   8.825  82.522  0.00  0.00     0.080 H 
ATOM    104  H   SGN d 302     137.087   8.716  81.789  0.00  0.00     0.080 H 
ATOM    105  H   SGN d 302     135.479  14.465  81.306  0.00  0.00     0.210 HD
ATOM    106  H   SGN d 302     136.198  12.851  82.788  0.00  0.00     0.089 H 
ATOM    107  H   SGN d 302     137.085  16.382  80.034  0.00  0.00     0.231 HD
ATOM    108  H   SGN d 302     139.875  13.290  82.212  0.00  0.00     0.131 H 
ATOM    109  C1  IDS d 305     132.562   8.238  72.291  0.00  0.00     0.161 C 
ATOM    110  O1S IDS d 305     136.323  10.771  71.879  0.00  0.00    -0.572 OA
ATOM    111  S   IDS d 305     136.085   9.370  72.089  0.00  0.00     0.252 S 
ATOM    112  C4  IDS d 305     132.722   6.167  70.111  0.00  0.00    -0.005 C 
ATOM    113  O61 IDS d 305     130.494   4.124  71.667  0.00  0.00    -0.646 OA
ATOM    114  O3  IDS d 305     134.797   7.188  69.424  0.00  0.00    -0.393 OA
ATOM    115  O62 IDS d 305     129.611   5.677  70.611  0.00  0.00    -0.646 OA
ATOM    116  O2S IDS d 305     136.024   9.035  73.480  0.00  0.00    -0.572 OA
ATOM    117  O2  IDS d 305     134.665   9.121  71.478  0.00  0.00    -0.244 OA
ATOM    118  O5  IDS d 305     131.484   7.405  71.836  0.00  0.00    -0.343 OA
ATOM    119  C5  IDS d 305     131.838   6.073  71.399  0.00  0.00     0.127 C 
ATOM    120  C3  IDS d 305     133.583   7.462  70.098  0.00  0.00     0.069 C 
ATOM    121  C2  IDS d 305     133.884   7.937  71.535  0.00  0.00     0.132 C 
ATOM    122  C6  IDS d 305     130.570   5.245  71.213  0.00  0.00     0.203 C 
ATOM    123  O3S IDS d 305     136.982   8.538  71.343  0.00  0.00    -0.572 OA
ATOM    124  H   IDS d 305     132.255   9.246  72.100  0.00  0.00     0.133 H 
ATOM    125  H   IDS d 305     133.371   5.318  70.073  0.00  0.00     0.041 H 
ATOM    126  H   IDS d 305     132.072   6.191  69.261  0.00  0.00     0.041 H 
ATOM    127  H   IDS d 305     134.605   6.889  68.522  0.00  0.00     0.210 HD
ATOM    128  H   IDS d 305     132.425   5.569  72.138  0.00  0.00     0.100 H 
ATOM    129  H   IDS d 305     133.044   8.239  69.598  0.00  0.00     0.087 H 
ATOM    130  H   IDS d 305     134.415   7.166  72.053  0.00  0.00     0.097 H 
ENDROOT
TORSDOF 39
ENDMDL
MODEL 42
REMARK VINA RESULT:      -5.4      3.470     14.192
REMARK  0 active torsions:
REMARK  status: ('A' for Active; 'I' for Inactive)
REMARK       I    between atoms: C2_2  and  N_68 
REMARK       I    between atoms: C1_3  and  O4_24 
REMARK       I    between atoms: O1S_5  and  S1_58 
REMARK       I    between atoms: O1_6  and  C1_31 
REMARK       I    between atoms: C4_7  and  O4_36 
REMARK       I    between atoms: C1_8  and  O4_37 
REMARK       I    between atoms: O3_9  and  C3_74 
REMARK       I    between atoms: C5_10  and  C6_32 
REMARK       I    between atoms: C2_11  and  N_20 
REMARK       I    between atoms: C6_12  and  C5_53 
REMARK       I    between atoms: S2_14  and  O6_33 
REMARK       I    between atoms: O3S_16  and  S1_51 
REMARK       I    between atoms: S_17  and  O2_44 
REMARK       I    between atoms: N_20  and  S1_58 
REMARK       I    between atoms: O4_24  and  C4_38 
REMARK       I    between atoms: S_25  and  O2_64 
REMARK       I    between atoms: O2S_27  and  S1_51 
REMARK       I    between atoms: C4_28  and  O4_73 
REMARK       I    between atoms: C3_30  and  O3_62 
REMARK       I    between atoms: O6_33  and  C6_63 
REMARK       I    between atoms: O3_35  and  C3_55 
REMARK       I    between atoms: O4_36  and  C1_84 
REMARK       I    between atoms: O4_37  and  C4_54 
REMARK       I    between atoms: C3_39  and  O3_48 
REMARK       I    between atoms: C5_42  and  C6_63 
REMARK       I    between atoms: O2_44  and  C2_61 
REMARK       I    between atoms: O6_45  and  C6_77 
REMARK       I    between atoms: O6_45  and  S2_82 
REMARK       I    between atoms: C5_49  and  C6_76 
REMARK       I    between atoms: S1_51  and  N_68 
REMARK       I    between atoms: S1_51  and  O1S_81 
REMARK       I    between atoms: O2S_52  and  S1_58 
REMARK       I    between atoms: C2_57  and  O2_64 
REMARK       I    between atoms: S1_58  and  O3S_75 
REMARK       I    between atoms: O3_66  and  C3_67 
REMARK       I    between atoms: O2_69  and  C2_79 
REMARK       I    between atoms: O2_69  and  S_72 
REMARK       I    between atoms: C5_70  and  C6_77 
REMARK       I    between atoms: C1_71  and  O4_73 
ROOT
ATOM      1  O2S IDS d 303     133.688  15.431  73.968  0.00  0.00    -0.572 OA
ATOM      2  C6  IDS d 303     132.039   9.223  77.330  0.00  0.00     0.206 C 
ATOM      3  O1S IDS d 303     134.812  13.617  72.895  0.00  0.00    -0.572 OA
ATOM      4  O3S IDS d 303     132.608  14.237  72.182  0.00  0.00    -0.572 OA
ATOM      5  O4  IDS d 303     132.388  12.292  77.160  0.00  0.00    -0.348 OA
ATOM      6  O61 IDS d 303     131.199   8.803  78.099  0.00  0.00    -0.646 OA
ATOM      7  C4  IDS d 303     131.257  11.591  76.620  0.00  0.00     0.103 C 
ATOM      8  C3  IDS d 303     130.876  12.422  75.361  0.00  0.00     0.094 C 
ATOM      9  O62 IDS d 303     133.189   8.873  77.498  0.00  0.00    -0.646 OA
ATOM     10  O3  IDS d 303     129.591  12.008  74.929  0.00  0.00    -0.390 OA
ATOM     11  C5  IDS d 303     131.661  10.161  76.184  0.00  0.00     0.152 C 
ATOM     12  O2  IDS d 303     132.928  13.196  74.344  0.00  0.00    -0.244 OA
ATOM     13  C1  IDS d 303     132.492  10.852  74.009  0.00  0.00     0.161 C 
ATOM     14  S   IDS d 303     133.543  14.173  73.277  0.00  0.00     0.252 S 
ATOM     15  C2  IDS d 303     131.870  12.264  74.178  0.00  0.00     0.134 C 
ATOM     16  O5  IDS d 303     132.763  10.252  75.270  0.00  0.00    -0.340 OA
ATOM     17  H   IDS d 303     130.461  11.492  77.329  0.00  0.00     0.092 H 
ATOM     18  H   IDS d 303     130.901  13.452  75.648  0.00  0.00     0.091 H 
ATOM     19  H   IDS d 303     129.620  11.071  74.682  0.00  0.00     0.210 HD
ATOM     20  H   IDS d 303     130.793   9.732  75.730  0.00  0.00     0.104 H 
ATOM     21  H   IDS d 303     133.434  10.933  73.509  0.00  0.00     0.133 H 
ATOM     22  H   IDS d 303     131.291  12.439  73.295  0.00  0.00     0.097 H 
ATOM     23  C2  SGN d 304     133.221  14.153  78.524  0.00  0.00     0.081 C 
ATOM     24  C1  SGN d 304     132.220  12.972  78.385  0.00  0.00     0.150 C 
ATOM     25  O3  SGN d 304     135.563  14.687  78.782  0.00  0.00    -0.391 OA
ATOM     26  O3S SGN d 304     132.620  17.441  77.358  0.00  0.00    -0.296 OA
ATOM     27  O5S SGN d 304     132.367  11.925  84.175  0.00  0.00    -0.572 OA
ATOM     28  O2S SGN d 304     131.047  16.030  78.489  0.00  0.00    -0.296 OA
ATOM     29  O4S SGN d 304     134.195  10.409  83.862  0.00  0.00    -0.572 OA
ATOM     30  O4  SGN d 304     136.139  12.532  80.069  0.00  0.00    -0.348 OA
ATOM     31  O6  SGN d 304     132.929  11.232  81.976  0.00  0.00    -0.254 OA
ATOM     32  S1  SGN d 304     131.905  16.199  77.343  0.00  0.00     0.156 S 
ATOM     33  C4  SGN d 304     134.721  12.716  79.919  0.00  0.00     0.095 C 
ATOM     34  O6S SGN d 304     131.942   9.677  83.506  0.00  0.00    -0.572 OA
ATOM     35  N   SGN d 304     133.063  15.030  77.353  0.00  0.00    -0.210 NA
ATOM     36  C5  SGN d 304     133.696  11.550  79.725  0.00  0.00     0.091 C 
ATOM     37  C3  SGN d 304     134.658  13.605  78.649  0.00  0.00     0.083 C 
ATOM     38  C6  SGN d 304     133.586  10.580  80.909  0.00  0.00     0.067 C 
ATOM     39  O5  SGN d 304     132.362  12.067  79.480  0.00  0.00    -0.349 OA
ATOM     40  O1S SGN d 304     131.197  15.991  76.111  0.00  0.00    -0.296 OA
ATOM     41  S2  SGN d 304     132.862  10.775  83.469  0.00  0.00     0.251 S 
ATOM     42  H   SGN d 304     133.024  14.722  79.408  0.00  0.00     0.076 H 
ATOM     43  H   SGN d 304     131.231  13.382  78.399  0.00  0.00     0.131 H 
ATOM     44  H   SGN d 304     135.522  15.242  77.987  0.00  0.00     0.210 HD
ATOM     45  H   SGN d 304     133.081  17.539  78.205  0.00  0.00     0.231 HD
ATOM     46  H   SGN d 304     131.558  16.177  79.300  0.00  0.00     0.231 HD
ATOM     47  H   SGN d 304     134.389  13.058  80.877  0.00  0.00     0.091 H 
ATOM     48  H   SGN d 304     132.873  14.424  76.555  0.00  0.00     0.140 HD
ATOM     49  H   SGN d 304     134.083  11.010  78.886  0.00  0.00     0.090 H 
ATOM     50  H   SGN d 304     134.920  13.036  77.783  0.00  0.00     0.089 H 
ATOM     51  H   SGN d 304     133.026   9.716  80.616  0.00  0.00     0.080 H 
ATOM     52  H   SGN d 304     134.564  10.273  81.218  0.00  0.00     0.080 H 
ATOM     53  H   SGN d 304     130.488  16.649  76.030  0.00  0.00     0.231 HD
ATOM     54  O62 IDS d 301     133.561   8.650  67.827  0.00  0.00    -0.646 OA
ATOM     55  O1  IDS d 301     131.397   5.572  64.502  0.00  0.00    -0.368 OA
ATOM     56  C4  IDS d 301     131.397   6.415  68.504  0.00  0.00     0.103 C 
ATOM     57  C5  IDS d 301     132.434   6.598  67.333  0.00  0.00     0.152 C 
ATOM     58  O61 IDS d 301     134.743   6.952  67.780  0.00  0.00    -0.646 OA
ATOM     59  S   IDS d 301     128.572   3.298  65.740  0.00  0.00     0.252 S 
ATOM     60  C3  IDS d 301     130.040   5.874  67.954  0.00  0.00     0.094 C 
ATOM     61  C1  IDS d 301     130.801   6.277  65.556  0.00  0.00     0.158 C 
ATOM     62  C6  IDS d 301     133.649   7.456  67.666  0.00  0.00     0.206 C 
ATOM     63  O5  IDS d 301     131.748   7.147  66.186  0.00  0.00    -0.340 OA
ATOM     64  O4  IDS d 301     131.062   6.844  69.833  0.00  0.00    -0.348 OA
ATOM     65  O3S IDS d 301     127.492   3.453  64.798  0.00  0.00    -0.572 OA
ATOM     66  O1S IDS d 301     129.722   2.666  65.152  0.00  0.00    -0.572 OA
ATOM     67  C2  IDS d 301     130.226   5.236  66.563  0.00  0.00     0.134 C 
ATOM     68  O3  IDS d 301     129.525   4.899  68.847  0.00  0.00    -0.390 OA
ATOM     69  O2  IDS d 301     128.973   4.769  66.100  0.00  0.00    -0.244 OA
ATOM     70  O2S IDS d 301     128.158   2.689  66.977  0.00  0.00    -0.572 OA
ATOM     71  H   IDS d 301     130.740   4.989  64.090  0.00  0.00     0.212 HD
ATOM     72  H   IDS d 301     132.385   6.264  68.885  0.00  0.00     0.092 H 
ATOM     73  H   IDS d 301     132.829   5.624  67.134  0.00  0.00     0.104 H 
ATOM     74  H   IDS d 301     129.358   6.694  67.866  0.00  0.00     0.091 H 
ATOM     75  H   IDS d 301     130.011   6.897  65.187  0.00  0.00     0.133 H 
ATOM     76  H   IDS d 301     130.917   4.422  66.640  0.00  0.00     0.097 H 
ATOM     77  H   IDS d 301     130.151   4.162  68.918  0.00  0.00     0.210 HD
ATOM     78  O1S SGN d 302     129.100   3.505  72.619  0.00  0.00    -0.296 OA
ATOM     79  C2  SGN d 302     131.381   6.545  72.262  0.00  0.00     0.081 C 
ATOM     80  S2  SGN d 302     136.558   9.602  71.349  0.00  0.00     0.251 S 
ATOM     81  N   SGN d 302     130.245   5.607  72.267  0.00  0.00    -0.210 NA
ATOM     82  C4  SGN d 302     132.165   8.881  72.666  0.00  0.00     0.095 C 
ATOM     83  O6  SGN d 302     135.063   9.305  71.694  0.00  0.00    -0.254 OA
ATOM     84  C5  SGN d 302     132.709   8.902  71.201  0.00  0.00     0.091 C 
ATOM     85  O4S SGN d 302     136.688  11.028  71.229  0.00  0.00    -0.572 OA
ATOM     86  O2S SGN d 302     131.359   3.411  71.922  0.00  0.00    -0.296 OA
ATOM     87  S1  SGN d 302     130.410   4.063  72.771  0.00  0.00     0.156 S 
ATOM     88  O5S SGN d 302     137.306   9.084  72.452  0.00  0.00    -0.572 OA
ATOM     89  O6S SGN d 302     136.812   8.905  70.122  0.00  0.00    -0.572 OA
ATOM     90  C6  SGN d 302     133.945   9.794  70.991  0.00  0.00     0.067 C 
ATOM     91  O3  SGN d 302     130.409   7.865  74.005  0.00  0.00    -0.391 OA
ATOM     92  C3  SGN d 302     130.943   7.939  72.693  0.00  0.00     0.083 C 
ATOM     93  O4  SGN d 302     131.631  10.074  73.233  0.00  0.00    -0.348 OA
ATOM     94  O3S SGN d 302     130.832   4.140  74.140  0.00  0.00    -0.296 OA
ATOM     95  C1  SGN d 302     132.002   6.590  70.843  0.00  0.00     0.150 C 
ATOM     96  O5  SGN d 302     133.059   7.554  70.780  0.00  0.00    -0.349 OA
ATOM     97  H   SGN d 302     128.867   3.477  71.677  0.00  0.00     0.231 HD
ATOM     98  H   SGN d 302     132.114   6.202  72.963  0.00  0.00     0.076 H 
ATOM     99  H   SGN d 302     129.906   5.560  71.305  0.00  0.00     0.140 HD
ATOM    100  H   SGN d 302     133.041   8.624  73.224  0.00  0.00     0.091 H 
ATOM    101  H   SGN d 302     131.913   9.313  70.616  0.00  0.00     0.090 H 
ATOM    102  H   SGN d 302     131.021   3.390  71.013  0.00  0.00     0.231 HD
ATOM    103  H   SGN d 302     134.177   9.826  69.947  0.00  0.00     0.080 H 
ATOM    104  H   SGN d 302     133.718  10.772  71.362  0.00  0.00     0.080 H 
ATOM    105  H   SGN d 302     129.643   7.270  74.009  0.00  0.00     0.210 HD
ATOM    106  H   SGN d 302     130.195   8.318  72.030  0.00  0.00     0.089 H 
ATOM    107  H   SGN d 302     130.151   4.590  74.663  0.00  0.00     0.231 HD
ATOM    108  H   SGN d 302     132.396   5.612  70.662  0.00  0.00     0.131 H 
ATOM    109  C1  IDS d 305     136.652  12.311  81.359  0.00  0.00     0.161 C 
ATOM    110  O1S IDS d 305     137.570   7.973  80.325  0.00  0.00    -0.572 OA
ATOM    111  S   IDS d 305     138.145   9.231  79.939  0.00  0.00     0.252 S 
ATOM    112  C4  IDS d 305     139.185  13.429  82.542  0.00  0.00    -0.005 C 
ATOM    113  O61 IDS d 305     138.233  16.639  81.955  0.00  0.00    -0.646 OA
ATOM    114  O3  IDS d 305     140.171  11.246  82.253  0.00  0.00    -0.393 OA
ATOM    115  O62 IDS d 305     137.386  15.813  83.659  0.00  0.00    -0.646 OA
ATOM    116  O2S IDS d 305     137.534   9.763  78.758  0.00  0.00    -0.572 OA
ATOM    117  O2  IDS d 305     137.806  10.195  81.124  0.00  0.00    -0.244 OA
ATOM    118  O5  IDS d 305     136.771  13.538  82.096  0.00  0.00    -0.343 OA
ATOM    119  C5  IDS d 305     138.009  14.267  81.939  0.00  0.00     0.127 C 
ATOM    120  C3  IDS d 305     138.927  11.901  82.413  0.00  0.00     0.069 C 
ATOM    121  C2  IDS d 305     138.021  11.596  81.202  0.00  0.00     0.132 C 
ATOM    122  C6  IDS d 305     137.866  15.654  82.558  0.00  0.00     0.203 C 
ATOM    123  O3S IDS d 305     139.576   9.188  79.867  0.00  0.00    -0.572 OA
ATOM    124  H   IDS d 305     135.982  11.695  81.923  0.00  0.00     0.133 H 
ATOM    125  H   IDS d 305     140.088  13.673  82.022  0.00  0.00     0.041 H 
ATOM    126  H   IDS d 305     139.266  13.667  83.582  0.00  0.00     0.041 H 
ATOM    127  H   IDS d 305     140.738  11.439  83.015  0.00  0.00     0.210 HD
ATOM    128  H   IDS d 305     138.239  14.418  80.905  0.00  0.00     0.100 H 
ATOM    129  H   IDS d 305     138.431  11.552  83.295  0.00  0.00     0.087 H 
ATOM    130  H   IDS d 305     138.499  11.948  80.312  0.00  0.00     0.097 H 
ENDROOT
TORSDOF 39
ENDMDL
MODEL 43
REMARK VINA RESULT:      -5.3      4.021      6.638
REMARK  0 active torsions:
REMARK  status: ('A' for Active; 'I' for Inactive)
REMARK       I    between atoms: C2_2  and  N_68 
REMARK       I    between atoms: C1_3  and  O4_24 
REMARK       I    between atoms: O1S_5  and  S1_58 
REMARK       I    between atoms: O1_6  and  C1_31 
REMARK       I    between atoms: C4_7  and  O4_36 
REMARK       I    between atoms: C1_8  and  O4_37 
REMARK       I    between atoms: O3_9  and  C3_74 
REMARK       I    between atoms: C5_10  and  C6_32 
REMARK       I    between atoms: C2_11  and  N_20 
REMARK       I    between atoms: C6_12  and  C5_53 
REMARK       I    between atoms: S2_14  and  O6_33 
REMARK       I    between atoms: O3S_16  and  S1_51 
REMARK       I    between atoms: S_17  and  O2_44 
REMARK       I    between atoms: N_20  and  S1_58 
REMARK       I    between atoms: O4_24  and  C4_38 
REMARK       I    between atoms: S_25  and  O2_64 
REMARK       I    between atoms: O2S_27  and  S1_51 
REMARK       I    between atoms: C4_28  and  O4_73 
REMARK       I    between atoms: C3_30  and  O3_62 
REMARK       I    between atoms: O6_33  and  C6_63 
REMARK       I    between atoms: O3_35  and  C3_55 
REMARK       I    between atoms: O4_36  and  C1_84 
REMARK       I    between atoms: O4_37  and  C4_54 
REMARK       I    between atoms: C3_39  and  O3_48 
REMARK       I    between atoms: C5_42  and  C6_63 
REMARK       I    between atoms: O2_44  and  C2_61 
REMARK       I    between atoms: O6_45  and  C6_77 
REMARK       I    between atoms: O6_45  and  S2_82 
REMARK       I    between atoms: C5_49  and  C6_76 
REMARK       I    between atoms: S1_51  and  N_68 
REMARK       I    between atoms: S1_51  and  O1S_81 
REMARK       I    between atoms: O2S_52  and  S1_58 
REMARK       I    between atoms: C2_57  and  O2_64 
REMARK       I    between atoms: S1_58  and  O3S_75 
REMARK       I    between atoms: O3_66  and  C3_67 
REMARK       I    between atoms: O2_69  and  C2_79 
REMARK       I    between atoms: O2_69  and  S_72 
REMARK       I    between atoms: C5_70  and  C6_77 
REMARK       I    between atoms: C1_71  and  O4_73 
ROOT
ATOM      1  O2S IDS d 303     129.980  15.652  76.969  0.00  0.00    -0.572 OA
ATOM      2  C6  IDS d 303     135.602  11.219  75.828  0.00  0.00     0.206 C 
ATOM      3  O1S IDS d 303     129.555  13.540  78.002  0.00  0.00    -0.572 OA
ATOM      4  O3S IDS d 303     130.694  15.256  79.231  0.00  0.00    -0.572 OA
ATOM      5  O4  IDS d 303     133.777  13.630  75.174  0.00  0.00    -0.348 OA
ATOM      6  O61 IDS d 303     136.766  11.297  75.490  0.00  0.00    -0.646 OA
ATOM      7  C4  IDS d 303     134.785  13.652  76.196  0.00  0.00     0.103 C 
ATOM      8  C3  IDS d 303     134.183  14.583  77.286  0.00  0.00     0.094 C 
ATOM      9  O62 IDS d 303     134.941  10.305  75.380  0.00  0.00    -0.646 OA
ATOM     10  O3  IDS d 303     135.215  14.929  78.194  0.00  0.00    -0.390 OA
ATOM     11  C5  IDS d 303     134.989  12.237  76.789  0.00  0.00     0.152 C 
ATOM     12  O2  IDS d 303     131.804  14.162  77.379  0.00  0.00    -0.244 OA
ATOM     13  C1  IDS d 303     133.146  12.421  78.360  0.00  0.00     0.161 C 
ATOM     14  S   IDS d 303     130.429  14.681  77.937  0.00  0.00     0.252 S 
ATOM     15  C2  IDS d 303     133.014  13.943  78.086  0.00  0.00     0.134 C 
ATOM     16  O5  IDS d 303     133.724  11.744  77.250  0.00  0.00    -0.340 OA
ATOM     17  H   IDS d 303     135.735  13.980  75.826  0.00  0.00     0.092 H 
ATOM     18  H   IDS d 303     133.778  15.435  76.781  0.00  0.00     0.091 H 
ATOM     19  H   IDS d 303     135.548  14.127  78.625  0.00  0.00     0.210 HD
ATOM     20  H   IDS d 303     135.695  12.348  77.585  0.00  0.00     0.104 H 
ATOM     21  H   IDS d 303     132.174  11.996  78.495  0.00  0.00     0.133 H 
ATOM     22  H   IDS d 303     133.033  14.418  79.045  0.00  0.00     0.097 H 
ATOM     23  C2  SGN d 304     132.766  14.729  73.228  0.00  0.00     0.081 C 
ATOM     24  C1  SGN d 304     134.063  14.270  73.948  0.00  0.00     0.150 C 
ATOM     25  O3  SGN d 304     130.781  13.925  72.110  0.00  0.00    -0.391 OA
ATOM     26  O3S SGN d 304     131.182  17.853  73.747  0.00  0.00    -0.296 OA
ATOM     27  O5S SGN d 304     136.746  13.189  68.823  0.00  0.00    -0.572 OA
ATOM     28  O2S SGN d 304     133.540  17.478  73.540  0.00  0.00    -0.296 OA
ATOM     29  O4S SGN d 304     135.929  10.938  68.861  0.00  0.00    -0.572 OA
ATOM     30  O4  SGN d 304     131.884  11.770  71.230  0.00  0.00    -0.348 OA
ATOM     31  O6  SGN d 304     135.774  12.347  70.817  0.00  0.00    -0.254 OA
ATOM     32  S1  SGN d 304     132.336  17.186  74.275  0.00  0.00     0.156 S 
ATOM     33  C4  SGN d 304     132.843  12.686  71.787  0.00  0.00     0.095 C 
ATOM     34  O6S SGN d 304     137.902  11.530  70.085  0.00  0.00    -0.572 OA
ATOM     35  N   SGN d 304     132.001  15.580  74.155  0.00  0.00    -0.210 NA
ATOM     36  C5  SGN d 304     134.130  12.252  72.563  0.00  0.00     0.091 C 
ATOM     37  C3  SGN d 304     131.959  13.497  72.771  0.00  0.00     0.083 C 
ATOM     38  C6  SGN d 304     135.154  11.467  71.731  0.00  0.00     0.067 C 
ATOM     39  O5  SGN d 304     134.825  13.406  73.103  0.00  0.00    -0.349 OA
ATOM     40  O1S SGN d 304     132.502  17.413  75.683  0.00  0.00    -0.296 OA
ATOM     41  S2  SGN d 304     136.637  11.967  69.572  0.00  0.00     0.251 S 
ATOM     42  H   SGN d 304     132.993  15.298  72.351  0.00  0.00     0.076 H 
ATOM     43  H   SGN d 304     134.643  15.144  74.164  0.00  0.00     0.131 H 
ATOM     44  H   SGN d 304     130.230  14.432  72.727  0.00  0.00     0.210 HD
ATOM     45  H   SGN d 304     131.110  17.672  72.798  0.00  0.00     0.231 HD
ATOM     46  H   SGN d 304     133.391  17.313  72.596  0.00  0.00     0.231 HD
ATOM     47  H   SGN d 304     133.315  13.133  70.937  0.00  0.00     0.091 H 
ATOM     48  H   SGN d 304     132.127  15.184  75.088  0.00  0.00     0.140 HD
ATOM     49  H   SGN d 304     133.758  11.606  73.330  0.00  0.00     0.090 H 
ATOM     50  H   SGN d 304     131.687  12.893  73.611  0.00  0.00     0.089 H 
ATOM     51  H   SGN d 304     135.893  11.042  72.378  0.00  0.00     0.080 H 
ATOM     52  H   SGN d 304     134.661  10.679  71.200  0.00  0.00     0.080 H 
ATOM     53  H   SGN d 304     132.704  18.349  75.838  0.00  0.00     0.231 HD
ATOM     54  O62 IDS d 301     130.932  10.113  84.189  0.00  0.00    -0.646 OA
ATOM     55  O1  IDS d 301     132.795   8.736  88.643  0.00  0.00    -0.368 OA
ATOM     56  C4  IDS d 301     133.970   9.367  84.778  0.00  0.00     0.103 C 
ATOM     57  C5  IDS d 301     132.609   8.992  85.475  0.00  0.00     0.152 C 
ATOM     58  O61 IDS d 301     130.812   8.048  84.235  0.00  0.00    -0.646 OA
ATOM     59  S   IDS d 301     136.590   8.299  88.941  0.00  0.00     0.252 S 
ATOM     60  C3  IDS d 301     135.073   9.646  85.847  0.00  0.00     0.094 C 
ATOM     61  C1  IDS d 301     133.336   9.628  87.710  0.00  0.00     0.158 C 
ATOM     62  C6  IDS d 301     131.377   9.061  84.580  0.00  0.00     0.206 C 
ATOM     63  O5  IDS d 301     132.425   9.845  86.626  0.00  0.00    -0.340 OA
ATOM     64  O4  IDS d 301     134.550   9.882  83.568  0.00  0.00    -0.348 OA
ATOM     65  O3S IDS d 301     136.985   9.026  90.121  0.00  0.00    -0.572 OA
ATOM     66  O1S IDS d 301     135.766   7.162  89.250  0.00  0.00    -0.572 OA
ATOM     67  C2  IDS d 301     134.686   9.035  87.208  0.00  0.00     0.134 C 
ATOM     68  O3  IDS d 301     136.301   9.080  85.415  0.00  0.00    -0.390 OA
ATOM     69  O2  IDS d 301     135.708   9.320  88.146  0.00  0.00    -0.244 OA
ATOM     70  O2S IDS d 301     137.698   7.980  88.077  0.00  0.00    -0.572 OA
ATOM     71  H   IDS d 301     133.427   8.603  89.368  0.00  0.00     0.212 HD
ATOM     72  H   IDS d 301     133.422   8.704  84.142  0.00  0.00     0.092 H 
ATOM     73  H   IDS d 301     132.693   7.962  85.750  0.00  0.00     0.104 H 
ATOM     74  H   IDS d 301     135.174  10.705  85.962  0.00  0.00     0.091 H 
ATOM     75  H   IDS d 301     133.507  10.582  88.164  0.00  0.00     0.133 H 
ATOM     76  H   IDS d 301     134.572   7.978  87.098  0.00  0.00     0.097 H 
ATOM     77  H   IDS d 301     136.197   8.121  85.314  0.00  0.00     0.210 HD
ATOM     78  O1S SGN d 302     138.799   8.052  82.406  0.00  0.00    -0.296 OA
ATOM     79  C2  SGN d 302     135.407   9.410  81.303  0.00  0.00     0.081 C 
ATOM     80  S2  SGN d 302     129.525   9.246  79.766  0.00  0.00     0.251 S 
ATOM     81  N   SGN d 302     136.749   9.224  81.880  0.00  0.00    -0.210 NA
ATOM     82  C4  SGN d 302     133.824  10.957  80.147  0.00  0.00     0.095 C 
ATOM     83  O6  SGN d 302     130.972   9.787  80.003  0.00  0.00    -0.254 OA
ATOM     84  C5  SGN d 302     132.810  10.714  81.311  0.00  0.00     0.091 C 
ATOM     85  O4S SGN d 302     128.686  10.384  79.511  0.00  0.00    -0.572 OA
ATOM     86  O2S SGN d 302     136.806   6.780  82.334  0.00  0.00    -0.296 OA
ATOM     87  S1  SGN d 302     137.567   7.821  81.715  0.00  0.00     0.156 S 
ATOM     88  O5S SGN d 302     129.629   8.386  78.628  0.00  0.00    -0.572 OA
ATOM     89  O6S SGN d 302     129.179   8.546  80.969  0.00  0.00    -0.572 OA
ATOM     90  C6  SGN d 302     131.330  10.812  80.900  0.00  0.00     0.067 C 
ATOM     91  O3  SGN d 302     136.216  11.009  79.718  0.00  0.00    -0.391 OA
ATOM     92  C3  SGN d 302     135.245  10.813  80.733  0.00  0.00     0.083 C 
ATOM     93  O4  SGN d 302     133.888  12.238  79.528  0.00  0.00    -0.348 OA
ATOM     94  O3S SGN d 302     137.742   7.633  80.304  0.00  0.00    -0.296 OA
ATOM     95  C1  SGN d 302     134.339   9.145  82.395  0.00  0.00     0.150 C 
ATOM     96  O5  SGN d 302     133.022   9.396  81.890  0.00  0.00    -0.349 OA
ATOM     97  H   SGN d 302     138.622   8.172  83.353  0.00  0.00     0.231 HD
ATOM     98  H   SGN d 302     135.278   8.715  80.499  0.00  0.00     0.076 H 
ATOM     99  H   SGN d 302     136.656   9.385  82.884  0.00  0.00     0.140 HD
ATOM    100  H   SGN d 302     133.486  10.261  79.409  0.00  0.00     0.091 H 
ATOM    101  H   SGN d 302     133.000  11.498  82.013  0.00  0.00     0.090 H 
ATOM    102  H   SGN d 302     136.721   6.962  83.283  0.00  0.00     0.231 HD
ATOM    103  H   SGN d 302     130.720  10.735  81.776  0.00  0.00     0.080 H 
ATOM    104  H   SGN d 302     131.180  11.752  80.410  0.00  0.00     0.080 H 
ATOM    105  H   SGN d 302     137.103  10.916  80.098  0.00  0.00     0.210 HD
ATOM    106  H   SGN d 302     135.382  11.547  81.499  0.00  0.00     0.089 H 
ATOM    107  H   SGN d 302     138.263   8.367  79.942  0.00  0.00     0.231 HD
ATOM    108  H   SGN d 302     134.433   8.111  82.654  0.00  0.00     0.131 H 
ATOM    109  C1  IDS d 305     132.102  11.283  69.930  0.00  0.00     0.161 C 
ATOM    110  O1S IDS d 305     133.075   7.148  71.566  0.00  0.00    -0.572 OA
ATOM    111  S   IDS d 305     131.865   7.911  71.449  0.00  0.00     0.252 S 
ATOM    112  C4  IDS d 305     130.051  10.850  67.767  0.00  0.00    -0.005 C 
ATOM    113  O61 IDS d 305     129.008  14.084  67.886  0.00  0.00    -0.646 OA
ATOM    114  O3  IDS d 305     130.224   8.485  68.209  0.00  0.00    -0.393 OA
ATOM    115  O62 IDS d 305     130.743  13.803  66.784  0.00  0.00    -0.646 OA
ATOM    116  O2S IDS d 305     131.616   8.711  72.610  0.00  0.00    -0.572 OA
ATOM    117  O2  IDS d 305     132.132   8.883  70.251  0.00  0.00    -0.244 OA
ATOM    118  O5  IDS d 305     131.705  12.242  68.936  0.00  0.00    -0.343 OA
ATOM    119  C5  IDS d 305     130.324  12.199  68.512  0.00  0.00     0.127 C 
ATOM    120  C3  IDS d 305     130.941   9.699  68.317  0.00  0.00     0.069 C 
ATOM    121  C2  IDS d 305     131.317   9.950  69.792  0.00  0.00     0.132 C 
ATOM    122  C6  IDS d 305     130.010  13.436  67.675  0.00  0.00     0.203 C 
ATOM    123  O3S IDS d 305     130.740   7.112  71.060  0.00  0.00    -0.572 OA
ATOM    124  H   IDS d 305     133.145  11.109  69.769  0.00  0.00     0.133 H 
ATOM    125  H   IDS d 305     129.022  10.585  67.896  0.00  0.00     0.041 H 
ATOM    126  H   IDS d 305     130.285  10.987  66.732  0.00  0.00     0.041 H 
ATOM    127  H   IDS d 305     129.989   8.329  67.281  0.00  0.00     0.210 HD
ATOM    128  H   IDS d 305     129.663  12.225  69.353  0.00  0.00     0.100 H 
ATOM    129  H   IDS d 305     131.846   9.652  67.747  0.00  0.00     0.087 H 
ATOM    130  H   IDS d 305     130.421  10.011  70.374  0.00  0.00     0.097 H 
ENDROOT
TORSDOF 39
ENDMDL
MODEL 44
REMARK VINA RESULT:      -5.3      3.919     13.837
REMARK  0 active torsions:
REMARK  status: ('A' for Active; 'I' for Inactive)
REMARK       I    between atoms: C2_2  and  N_68 
REMARK       I    between atoms: C1_3  and  O4_24 
REMARK       I    between atoms: O1S_5  and  S1_58 
REMARK       I    between atoms: O1_6  and  C1_31 
REMARK       I    between atoms: C4_7  and  O4_36 
REMARK       I    between atoms: C1_8  and  O4_37 
REMARK       I    between atoms: O3_9  and  C3_74 
REMARK       I    between atoms: C5_10  and  C6_32 
REMARK       I    between atoms: C2_11  and  N_20 
REMARK       I    between atoms: C6_12  and  C5_53 
REMARK       I    between atoms: S2_14  and  O6_33 
REMARK       I    between atoms: O3S_16  and  S1_51 
REMARK       I    between atoms: S_17  and  O2_44 
REMARK       I    between atoms: N_20  and  S1_58 
REMARK       I    between atoms: O4_24  and  C4_38 
REMARK       I    between atoms: S_25  and  O2_64 
REMARK       I    between atoms: O2S_27  and  S1_51 
REMARK       I    between atoms: C4_28  and  O4_73 
REMARK       I    between atoms: C3_30  and  O3_62 
REMARK       I    between atoms: O6_33  and  C6_63 
REMARK       I    between atoms: O3_35  and  C3_55 
REMARK       I    between atoms: O4_36  and  C1_84 
REMARK       I    between atoms: O4_37  and  C4_54 
REMARK       I    between atoms: C3_39  and  O3_48 
REMARK       I    between atoms: C5_42  and  C6_63 
REMARK       I    between atoms: O2_44  and  C2_61 
REMARK       I    between atoms: O6_45  and  C6_77 
REMARK       I    between atoms: O6_45  and  S2_82 
REMARK       I    between atoms: C5_49  and  C6_76 
REMARK       I    between atoms: S1_51  and  N_68 
REMARK       I    between atoms: S1_51  and  O1S_81 
REMARK       I    between atoms: O2S_52  and  S1_58 
REMARK       I    between atoms: C2_57  and  O2_64 
REMARK       I    between atoms: S1_58  and  O3S_75 
REMARK       I    between atoms: O3_66  and  C3_67 
REMARK       I    between atoms: O2_69  and  C2_79 
REMARK       I    between atoms: O2_69  and  S_72 
REMARK       I    between atoms: C5_70  and  C6_77 
REMARK       I    between atoms: C1_71  and  O4_73 
ROOT
ATOM      1  O2S IDS d 303     129.584  12.968  81.709  0.00  0.00    -0.572 OA
ATOM      2  C6  IDS d 303     135.502  10.583  78.267  0.00  0.00     0.206 C 
ATOM      3  O1S IDS d 303     130.314  14.614  80.140  0.00  0.00    -0.572 OA
ATOM      4  O3S IDS d 303     128.781  12.907  79.444  0.00  0.00    -0.572 OA
ATOM      5  O4  IDS d 303     133.501  10.685  80.624  0.00  0.00    -0.348 OA
ATOM      6  O61 IDS d 303     136.079   9.532  78.075  0.00  0.00    -0.646 OA
ATOM      7  C4  IDS d 303     133.249   9.981  79.398  0.00  0.00     0.103 C 
ATOM      8  C3  IDS d 303     131.712  10.122  79.203  0.00  0.00     0.094 C 
ATOM      9  O62 IDS d 303     136.176  11.566  78.498  0.00  0.00    -0.646 OA
ATOM     10  O3  IDS d 303     131.306   9.206  78.201  0.00  0.00    -0.390 OA
ATOM     11  C5  IDS d 303     133.977  10.667  78.217  0.00  0.00     0.152 C 
ATOM     12  O2  IDS d 303     131.076  12.330  79.953  0.00  0.00    -0.244 OA
ATOM     13  C1  IDS d 303     132.227  12.307  77.839  0.00  0.00     0.161 C 
ATOM     14  S   IDS d 303     129.864  13.261  80.325  0.00  0.00     0.252 S 
ATOM     15  C2  IDS d 303     131.258  11.547  78.784  0.00  0.00     0.134 C 
ATOM     16  O5  IDS d 303     133.585  12.046  78.171  0.00  0.00    -0.340 OA
ATOM     17  H   IDS d 303     133.588   8.966  79.432  0.00  0.00     0.092 H 
ATOM     18  H   IDS d 303     131.257   9.921  80.151  0.00  0.00     0.091 H 
ATOM     19  H   IDS d 303     131.743   9.428  77.364  0.00  0.00     0.210 HD
ATOM     20  H   IDS d 303     133.685  10.133  77.337  0.00  0.00     0.104 H 
ATOM     21  H   IDS d 303     132.089  13.362  77.956  0.00  0.00     0.133 H 
ATOM     22  H   IDS d 303     130.354  11.406  78.228  0.00  0.00     0.097 H 
ATOM     23  C2  SGN d 304     133.505  10.651  83.077  0.00  0.00     0.081 C 
ATOM     24  C1  SGN d 304     133.883   9.929  81.753  0.00  0.00     0.150 C 
ATOM     25  O3  SGN d 304     134.010  12.575  84.447  0.00  0.00    -0.391 OA
ATOM     26  O3S SGN d 304     130.385  10.327  84.718  0.00  0.00    -0.296 OA
ATOM     27  O5S SGN d 304     138.704   7.592  84.188  0.00  0.00    -0.572 OA
ATOM     28  O2S SGN d 304     131.649   8.554  83.716  0.00  0.00    -0.296 OA
ATOM     29  O4S SGN d 304     139.982   9.501  83.510  0.00  0.00    -0.572 OA
ATOM     30  O4  SGN d 304     136.477  12.718  83.722  0.00  0.00    -0.348 OA
ATOM     31  O6  SGN d 304     137.753   9.132  82.653  0.00  0.00    -0.254 OA
ATOM     32  S1  SGN d 304     130.973   9.811  83.517  0.00  0.00     0.156 S 
ATOM     33  C4  SGN d 304     135.849  11.503  83.280  0.00  0.00     0.095 C 
ATOM     34  O6S SGN d 304     139.560   7.717  81.967  0.00  0.00    -0.572 OA
ATOM     35  N   SGN d 304     132.063  10.947  83.043  0.00  0.00    -0.210 NA
ATOM     36  C5  SGN d 304     136.171  10.784  81.929  0.00  0.00     0.091 C 
ATOM     37  C3  SGN d 304     134.357  11.927  83.235  0.00  0.00     0.083 C 
ATOM     38  C6  SGN d 304     137.605  10.251  81.804  0.00  0.00     0.067 C 
ATOM     39  O5  SGN d 304     135.284   9.654  81.717  0.00  0.00    -0.349 OA
ATOM     40  O1S SGN d 304     130.032   9.744  82.434  0.00  0.00    -0.296 OA
ATOM     41  S2  SGN d 304     139.087   8.453  83.103  0.00  0.00     0.251 S 
ATOM     42  H   SGN d 304     133.708  10.031  83.925  0.00  0.00     0.076 H 
ATOM     43  H   SGN d 304     133.346   9.004  81.723  0.00  0.00     0.131 H 
ATOM     44  H   SGN d 304     133.077  12.839  84.416  0.00  0.00     0.210 HD
ATOM     45  H   SGN d 304     131.054  10.354  85.420  0.00  0.00     0.231 HD
ATOM     46  H   SGN d 304     132.274   8.637  84.452  0.00  0.00     0.231 HD
ATOM     47  H   SGN d 304     136.213  10.751  83.948  0.00  0.00     0.091 H 
ATOM     48  H   SGN d 304     131.835  11.188  82.079  0.00  0.00     0.140 HD
ATOM     49  H   SGN d 304     136.036  11.550  81.195  0.00  0.00     0.090 H 
ATOM     50  H   SGN d 304     134.185  12.598  82.420  0.00  0.00     0.089 H 
ATOM     51  H   SGN d 304     137.795   9.962  80.792  0.00  0.00     0.080 H 
ATOM     52  H   SGN d 304     138.301  11.014  82.086  0.00  0.00     0.080 H 
ATOM     53  H   SGN d 304     129.348   9.088  82.639  0.00  0.00     0.231 HD
ATOM     54  O62 IDS d 301     129.571  16.204  73.151  0.00  0.00    -0.646 OA
ATOM     55  O1  IDS d 301     128.583  16.033  68.231  0.00  0.00    -0.368 OA
ATOM     56  C4  IDS d 301     130.876  14.182  71.067  0.00  0.00     0.103 C 
ATOM     57  C5  IDS d 301     130.223  15.608  70.928  0.00  0.00     0.152 C 
ATOM     58  O61 IDS d 301     130.970  17.437  72.253  0.00  0.00    -0.646 OA
ATOM     59  S   IDS d 301     130.122  13.176  66.193  0.00  0.00     0.252 S 
ATOM     60  C3  IDS d 301     130.448  13.266  69.877  0.00  0.00     0.094 C 
ATOM     61  C1  IDS d 301     128.705  14.969  69.134  0.00  0.00     0.158 C 
ATOM     62  C6  IDS d 301     130.252  16.464  72.188  0.00  0.00     0.206 C 
ATOM     63  O5  IDS d 301     128.860  15.454  70.473  0.00  0.00    -0.340 OA
ATOM     64  O4  IDS d 301     131.446  13.254  72.004  0.00  0.00    -0.348 OA
ATOM     65  O3S IDS d 301     129.046  12.616  65.414  0.00  0.00    -0.572 OA
ATOM     66  O1S IDS d 301     130.442  14.521  65.796  0.00  0.00    -0.572 OA
ATOM     67  C2  IDS d 301     129.927  14.107  68.696  0.00  0.00     0.134 C 
ATOM     68  O3  IDS d 301     131.564  12.501  69.448  0.00  0.00    -0.390 OA
ATOM     69  O2  IDS d 301     129.543  13.238  67.647  0.00  0.00    -0.244 OA
ATOM     70  O2S IDS d 301     131.274  12.315  66.265  0.00  0.00    -0.572 OA
ATOM     71  H   IDS d 301     128.480  15.683  67.332  0.00  0.00     0.212 HD
ATOM     72  H   IDS d 301     131.525  14.908  71.509  0.00  0.00     0.092 H 
ATOM     73  H   IDS d 301     130.823  16.139  70.219  0.00  0.00     0.104 H 
ATOM     74  H   IDS d 301     129.662  12.620  70.212  0.00  0.00     0.091 H 
ATOM     75  H   IDS d 301     127.819  14.370  69.125  0.00  0.00     0.133 H 
ATOM     76  H   IDS d 301     130.703  14.764  68.364  0.00  0.00     0.097 H 
ATOM     77  H   IDS d 301     132.268  13.096  69.148  0.00  0.00     0.210 HD
ATOM     78  O1S SGN d 302     135.015  10.580  70.311  0.00  0.00    -0.296 OA
ATOM     79  C2  SGN d 302     133.451  12.490  73.223  0.00  0.00     0.081 C 
ATOM     80  S2  SGN d 302     132.307  17.227  76.861  0.00  0.00     0.251 S 
ATOM     81  N   SGN d 302     133.736  11.562  72.115  0.00  0.00    -0.210 NA
ATOM     82  C4  SGN d 302     132.454  12.793  75.492  0.00  0.00     0.095 C 
ATOM     83  O6  SGN d 302     132.317  15.769  76.299  0.00  0.00    -0.254 OA
ATOM     84  C5  SGN d 302     131.556  13.926  74.894  0.00  0.00     0.091 C 
ATOM     85  O4S SGN d 302     131.339  17.265  77.921  0.00  0.00    -0.572 OA
ATOM     86  O2S SGN d 302     135.226  12.912  70.653  0.00  0.00    -0.296 OA
ATOM     87  S1  SGN d 302     135.136  11.629  71.279  0.00  0.00     0.156 S 
ATOM     88  O5S SGN d 302     133.637  17.454  77.336  0.00  0.00    -0.572 OA
ATOM     89  O6S SGN d 302     131.960  18.062  75.748  0.00  0.00    -0.572 OA
ATOM     90  C6  SGN d 302     131.184  15.038  75.891  0.00  0.00     0.067 C 
ATOM     91  O3  SGN d 302     133.558  10.729  74.839  0.00  0.00    -0.391 OA
ATOM     92  C3  SGN d 302     132.732  11.779  74.362  0.00  0.00     0.083 C 
ATOM     93  O4  SGN d 302     131.934  11.956  76.520  0.00  0.00    -0.348 OA
ATOM     94  O3S SGN d 302     136.177  11.392  72.237  0.00  0.00    -0.296 OA
ATOM     95  C1  SGN d 302     132.593  13.668  72.696  0.00  0.00     0.150 C 
ATOM     96  O5  SGN d 302     132.228  14.550  73.764  0.00  0.00    -0.349 OA
ATOM     97  H   SGN d 302     134.299  10.792  69.692  0.00  0.00     0.231 HD
ATOM     98  H   SGN d 302     134.378  12.865  73.606  0.00  0.00     0.076 H 
ATOM     99  H   SGN d 302     132.988  11.691  71.432  0.00  0.00     0.140 HD
ATOM    100  H   SGN d 302     133.265  13.351  75.911  0.00  0.00     0.091 H 
ATOM    101  H   SGN d 302     130.650  13.438  74.606  0.00  0.00     0.090 H 
ATOM    102  H   SGN d 302     134.499  13.015  70.018  0.00  0.00     0.231 HD
ATOM    103  H   SGN d 302     130.491  15.705  75.423  0.00  0.00     0.080 H 
ATOM    104  H   SGN d 302     130.752  14.581  76.756  0.00  0.00     0.080 H 
ATOM    105  H   SGN d 302     133.726  10.099  74.121  0.00  0.00     0.210 HD
ATOM    106  H   SGN d 302     131.804  11.371  74.023  0.00  0.00     0.089 H 
ATOM    107  H   SGN d 302     136.063  10.511  72.626  0.00  0.00     0.231 HD
ATOM    108  H   SGN d 302     133.209  14.190  71.994  0.00  0.00     0.131 H 
ATOM    109  C1  IDS d 305     137.681  12.624  84.442  0.00  0.00     0.161 C 
ATOM    110  O1S IDS d 305     140.009  14.303  80.908  0.00  0.00    -0.572 OA
ATOM    111  S   IDS d 305     139.087  14.871  81.852  0.00  0.00     0.252 S 
ATOM    112  C4  IDS d 305     138.520  14.256  86.830  0.00  0.00    -0.005 C 
ATOM    113  O61 IDS d 305     135.761  13.369  88.608  0.00  0.00    -0.646 OA
ATOM    114  O3  IDS d 305     140.005  15.465  85.363  0.00  0.00    -0.393 OA
ATOM    115  O62 IDS d 305     137.261  11.935  88.618  0.00  0.00    -0.646 OA
ATOM    116  O2S IDS d 305     137.732  14.800  81.393  0.00  0.00    -0.572 OA
ATOM    117  O2  IDS d 305     139.209  13.954  83.115  0.00  0.00    -0.244 OA
ATOM    118  O5  IDS d 305     137.445  12.291  85.819  0.00  0.00    -0.343 OA
ATOM    119  C5  IDS d 305     137.216  13.397  86.721  0.00  0.00     0.127 C 
ATOM    120  C3  IDS d 305     139.341  14.224  85.510  0.00  0.00     0.069 C 
ATOM    121  C2  IDS d 305     138.421  13.981  84.295  0.00  0.00     0.132 C 
ATOM    122  C6  IDS d 305     136.719  12.866  88.063  0.00  0.00     0.203 C 
ATOM    123  O3S IDS d 305     139.472  16.182  82.283  0.00  0.00    -0.572 OA
ATOM    124  H   IDS d 305     138.287  11.834  84.049  0.00  0.00     0.133 H 
ATOM    125  H   IDS d 305     138.251  15.268  87.048  0.00  0.00     0.041 H 
ATOM    126  H   IDS d 305     139.127  13.844  87.610  0.00  0.00     0.041 H 
ATOM    127  H   IDS d 305     140.582  15.616  86.127  0.00  0.00     0.210 HD
ATOM    128  H   IDS d 305     136.451  14.046  86.349  0.00  0.00     0.100 H 
ATOM    129  H   IDS d 305     140.050  13.424  85.555  0.00  0.00     0.087 H 
ATOM    130  H   IDS d 305     137.699  14.769  84.242  0.00  0.00     0.097 H 
ENDROOT
TORSDOF 39
ENDMDL
MODEL 45
REMARK VINA RESULT:      -5.3      4.052     14.260
REMARK  0 active torsions:
REMARK  status: ('A' for Active; 'I' for Inactive)
REMARK       I    between atoms: C2_2  and  N_68 
REMARK       I    between atoms: C1_3  and  O4_24 
REMARK       I    between atoms: O1S_5  and  S1_58 
REMARK       I    between atoms: O1_6  and  C1_31 
REMARK       I    between atoms: C4_7  and  O4_36 
REMARK       I    between atoms: C1_8  and  O4_37 
REMARK       I    between atoms: O3_9  and  C3_74 
REMARK       I    between atoms: C5_10  and  C6_32 
REMARK       I    between atoms: C2_11  and  N_20 
REMARK       I    between atoms: C6_12  and  C5_53 
REMARK       I    between atoms: S2_14  and  O6_33 
REMARK       I    between atoms: O3S_16  and  S1_51 
REMARK       I    between atoms: S_17  and  O2_44 
REMARK       I    between atoms: N_20  and  S1_58 
REMARK       I    between atoms: O4_24  and  C4_38 
REMARK       I    between atoms: S_25  and  O2_64 
REMARK       I    between atoms: O2S_27  and  S1_51 
REMARK       I    between atoms: C4_28  and  O4_73 
REMARK       I    between atoms: C3_30  and  O3_62 
REMARK       I    between atoms: O6_33  and  C6_63 
REMARK       I    between atoms: O3_35  and  C3_55 
REMARK       I    between atoms: O4_36  and  C1_84 
REMARK       I    between atoms: O4_37  and  C4_54 
REMARK       I    between atoms: C3_39  and  O3_48 
REMARK       I    between atoms: C5_42  and  C6_63 
REMARK       I    between atoms: O2_44  and  C2_61 
REMARK       I    between atoms: O6_45  and  C6_77 
REMARK       I    between atoms: O6_45  and  S2_82 
REMARK       I    between atoms: C5_49  and  C6_76 
REMARK       I    between atoms: S1_51  and  N_68 
REMARK       I    between atoms: S1_51  and  O1S_81 
REMARK       I    between atoms: O2S_52  and  S1_58 
REMARK       I    between atoms: C2_57  and  O2_64 
REMARK       I    between atoms: S1_58  and  O3S_75 
REMARK       I    between atoms: O3_66  and  C3_67 
REMARK       I    between atoms: O2_69  and  C2_79 
REMARK       I    between atoms: O2_69  and  S_72 
REMARK       I    between atoms: C5_70  and  C6_77 
REMARK       I    between atoms: C1_71  and  O4_73 
ROOT
ATOM      1  O2S IDS d 303     138.234   8.477  81.177  0.00  0.00    -0.572 OA
ATOM      2  C6  IDS d 303     135.420  15.129  81.797  0.00  0.00     0.206 C 
ATOM      3  O1S IDS d 303     135.957   8.452  80.456  0.00  0.00    -0.572 OA
ATOM      4  O3S IDS d 303     137.696   8.943  78.880  0.00  0.00    -0.572 OA
ATOM      5  O4  IDS d 303     137.415  12.871  82.499  0.00  0.00    -0.348 OA
ATOM      6  O61 IDS d 303     135.811  16.272  81.922  0.00  0.00    -0.646 OA
ATOM      7  C4  IDS d 303     137.523  13.689  81.324  0.00  0.00     0.103 C 
ATOM      8  C3  IDS d 303     138.126  12.726  80.261  0.00  0.00     0.094 C 
ATOM      9  O62 IDS d 303     134.452  14.787  82.444  0.00  0.00    -0.646 OA
ATOM     10  O3  IDS d 303     138.568  13.502  79.160  0.00  0.00    -0.390 OA
ATOM     11  C5  IDS d 303     136.123  14.154  80.854  0.00  0.00     0.152 C 
ATOM     12  O2  IDS d 303     137.161  10.539  80.619  0.00  0.00    -0.244 OA
ATOM     13  C1  IDS d 303     135.654  12.122  79.610  0.00  0.00     0.161 C 
ATOM     14  S   IDS d 303     137.265   9.014  80.253  0.00  0.00     0.252 S 
ATOM     15  C2  IDS d 303     137.128  11.655  79.742  0.00  0.00     0.134 C 
ATOM     16  O5  IDS d 303     135.292  13.000  80.669  0.00  0.00    -0.340 OA
ATOM     17  H   IDS d 303     138.110  14.569  81.490  0.00  0.00     0.092 H 
ATOM     18  H   IDS d 303     138.925  12.197  80.736  0.00  0.00     0.091 H 
ATOM     19  H   IDS d 303     137.810  13.961  78.764  0.00  0.00     0.210 HD
ATOM     20  H   IDS d 303     136.279  14.692  79.942  0.00  0.00     0.104 H 
ATOM     21  H   IDS d 303     135.002  11.277  79.687  0.00  0.00     0.133 H 
ATOM     22  H   IDS d 303     137.453  11.420  78.751  0.00  0.00     0.097 H 
ATOM     23  C2  SGN d 304     138.517  11.901  84.464  0.00  0.00     0.081 C 
ATOM     24  C1  SGN d 304     138.271  13.158  83.584  0.00  0.00     0.150 C 
ATOM     25  O3  SGN d 304     137.446  10.357  85.981  0.00  0.00    -0.391 OA
ATOM     26  O3S SGN d 304     141.087   9.532  83.900  0.00  0.00    -0.296 OA
ATOM     27  O5S SGN d 304     138.574  16.717  88.262  0.00  0.00    -0.572 OA
ATOM     28  O2S SGN d 304     141.298  11.914  83.741  0.00  0.00    -0.296 OA
ATOM     29  O4S SGN d 304     136.214  16.490  88.598  0.00  0.00    -0.572 OA
ATOM     30  O4  SGN d 304     135.749  12.074  86.879  0.00  0.00    -0.348 OA
ATOM     31  O6  SGN d 304     137.257  15.715  86.562  0.00  0.00    -0.254 OA
ATOM     32  S1  SGN d 304     140.635  10.730  83.257  0.00  0.00     0.156 S 
ATOM     33  C4  SGN d 304     136.772  12.686  86.075  0.00  0.00     0.095 C 
ATOM     34  O6S SGN d 304     137.064  18.061  87.001  0.00  0.00    -0.572 OA
ATOM     35  N   SGN d 304     139.029  10.827  83.597  0.00  0.00    -0.210 NA
ATOM     36  C5  SGN d 304     136.540  13.919  85.141  0.00  0.00     0.091 C 
ATOM     37  C3  SGN d 304     137.210  11.499  85.177  0.00  0.00     0.083 C 
ATOM     38  C6  SGN d 304     136.137  15.212  85.862  0.00  0.00     0.067 C 
ATOM     39  O5  SGN d 304     137.735  14.221  84.373  0.00  0.00    -0.349 OA
ATOM     40  O1S SGN d 304     140.692  10.635  81.825  0.00  0.00    -0.296 OA
ATOM     41  S2  SGN d 304     137.267  16.812  87.674  0.00  0.00     0.251 S 
ATOM     42  H   SGN d 304     139.242  12.100  85.226  0.00  0.00     0.076 H 
ATOM     43  H   SGN d 304     139.215  13.465  83.184  0.00  0.00     0.131 H 
ATOM     44  H   SGN d 304     137.719   9.616  85.417  0.00  0.00     0.210 HD
ATOM     45  H   SGN d 304     141.031   9.641  84.862  0.00  0.00     0.231 HD
ATOM     46  H   SGN d 304     141.239  11.944  84.708  0.00  0.00     0.231 HD
ATOM     47  H   SGN d 304     137.431  13.147  86.781  0.00  0.00     0.091 H 
ATOM     48  H   SGN d 304     138.545  10.915  82.703  0.00  0.00     0.140 HD
ATOM     49  H   SGN d 304     135.723  13.616  84.520  0.00  0.00     0.090 H 
ATOM     50  H   SGN d 304     136.447  11.271  84.463  0.00  0.00     0.089 H 
ATOM     51  H   SGN d 304     135.807  15.936  85.146  0.00  0.00     0.080 H 
ATOM     52  H   SGN d 304     135.341  15.011  86.549  0.00  0.00     0.080 H 
ATOM     53  H   SGN d 304     141.618  10.573  81.541  0.00  0.00     0.231 HD
ATOM     54  O62 IDS d 301     132.096   9.759  74.514  0.00  0.00    -0.646 OA
ATOM     55  O1  IDS d 301     130.565  11.264  69.975  0.00  0.00    -0.368 OA
ATOM     56  C4  IDS d 301     131.992  12.774  73.498  0.00  0.00     0.103 C 
ATOM     57  C5  IDS d 301     131.219  11.465  73.085  0.00  0.00     0.152 C 
ATOM     58  O61 IDS d 301     130.073  10.153  74.704  0.00  0.00    -0.646 OA
ATOM     59  S   IDS d 301     130.974  14.967  69.083  0.00  0.00     0.252 S 
ATOM     60  C3  IDS d 301     132.362  13.612  72.233  0.00  0.00     0.094 C 
ATOM     61  C1  IDS d 301     131.681  11.690  70.705  0.00  0.00     0.158 C 
ATOM     62  C6  IDS d 301     131.129  10.393  74.165  0.00  0.00     0.206 C 
ATOM     63  O5  IDS d 301     131.835  10.915  71.900  0.00  0.00    -0.340 OA
ATOM     64  O4  IDS d 301     132.792  13.371  74.530  0.00  0.00    -0.348 OA
ATOM     65  O3S IDS d 301     131.598  14.999  67.784  0.00  0.00    -0.572 OA
ATOM     66  O1S IDS d 301     129.646  14.418  69.038  0.00  0.00    -0.572 OA
ATOM     67  C2  IDS d 301     131.492  13.203  71.029  0.00  0.00     0.134 C 
ATOM     68  O3  IDS d 301     132.160  14.990  72.506  0.00  0.00    -0.390 OA
ATOM     69  O2  IDS d 301     131.867  13.979  69.906  0.00  0.00    -0.244 OA
ATOM     70  O2S IDS d 301     131.045  16.229  69.774  0.00  0.00    -0.572 OA
ATOM     71  H   IDS d 301     130.480  11.801  69.172  0.00  0.00     0.212 HD
ATOM     72  H   IDS d 301     131.318  12.503  74.283  0.00  0.00     0.092 H 
ATOM     73  H   IDS d 301     130.207  11.764  72.908  0.00  0.00     0.104 H 
ATOM     74  H   IDS d 301     133.389  13.428  71.994  0.00  0.00     0.091 H 
ATOM     75  H   IDS d 301     132.575  11.552  70.133  0.00  0.00     0.133 H 
ATOM     76  H   IDS d 301     130.463  13.372  71.266  0.00  0.00     0.097 H 
ATOM     77  H   IDS d 301     131.228  15.144  72.722  0.00  0.00     0.210 HD
ATOM     78  O1S SGN d 302     132.172  18.062  75.135  0.00  0.00    -0.296 OA
ATOM     79  C2  SGN d 302     132.856  14.627  76.653  0.00  0.00     0.081 C 
ATOM     80  S2  SGN d 302     131.565   9.247  79.178  0.00  0.00     0.251 S 
ATOM     81  N   SGN d 302     132.904  15.879  75.878  0.00  0.00    -0.210 NA
ATOM     82  C4  SGN d 302     134.146  12.886  77.895  0.00  0.00     0.095 C 
ATOM     83  O6  SGN d 302     132.385  10.466  78.644  0.00  0.00    -0.254 OA
ATOM     84  C5  SGN d 302     133.514  11.812  76.952  0.00  0.00     0.091 C 
ATOM     85  O4S SGN d 302     132.504   8.195  79.453  0.00  0.00    -0.572 OA
ATOM     86  O2S SGN d 302     130.500  16.479  75.678  0.00  0.00    -0.296 OA
ATOM     87  S1  SGN d 302     131.765  17.035  76.047  0.00  0.00     0.156 S 
ATOM     88  O5S SGN d 302     130.922   9.720  80.365  0.00  0.00    -0.572 OA
ATOM     89  O6S SGN d 302     130.641   8.921  78.131  0.00  0.00    -0.572 OA
ATOM     90  C6  SGN d 302     133.327  10.427  77.598  0.00  0.00     0.067 C 
ATOM     91  O3  SGN d 302     134.807  15.225  77.903  0.00  0.00    -0.391 OA
ATOM     92  C3  SGN d 302     134.251  14.202  77.094  0.00  0.00     0.083 C 
ATOM     93  O4  SGN d 302     135.482  12.714  78.358  0.00  0.00    -0.348 OA
ATOM     94  O3S SGN d 302     131.824  17.447  77.420  0.00  0.00    -0.296 OA
ATOM     95  C1  SGN d 302     132.201  13.516  75.793  0.00  0.00     0.150 C 
ATOM     96  O5  SGN d 302     132.211  12.263  76.486  0.00  0.00    -0.349 OA
ATOM     97  H   SGN d 302     132.113  17.729  74.226  0.00  0.00     0.231 HD
ATOM     98  H   SGN d 302     132.271  14.789  77.535  0.00  0.00     0.076 H 
ATOM     99  H   SGN d 302     132.895  15.608  74.894  0.00  0.00     0.140 HD
ATOM    100  H   SGN d 302     133.503  12.839  78.749  0.00  0.00     0.091 H 
ATOM    101  H   SGN d 302     134.213  11.700  76.151  0.00  0.00     0.090 H 
ATOM    102  H   SGN d 302     130.520  16.219  74.744  0.00  0.00     0.231 HD
ATOM    103  H   SGN d 302     132.988   9.739  76.851  0.00  0.00     0.080 H 
ATOM    104  H   SGN d 302     134.267  10.118  78.005  0.00  0.00     0.080 H 
ATOM    105  H   SGN d 302     134.867  16.045  77.389  0.00  0.00     0.210 HD
ATOM    106  H   SGN d 302     134.881  14.043  76.244  0.00  0.00     0.089 H 
ATOM    107  H   SGN d 302     132.702  17.814  77.609  0.00  0.00     0.231 HD
ATOM    108  H   SGN d 302     131.191  13.828  75.630  0.00  0.00     0.131 H 
ATOM    109  C1  IDS d 305     135.514  12.586  88.167  0.00  0.00     0.161 C 
ATOM    110  O1S IDS d 305     131.525  14.321  86.827  0.00  0.00    -0.572 OA
ATOM    111  S   IDS d 305     131.998  12.987  87.068  0.00  0.00     0.252 S 
ATOM    112  C4  IDS d 305     134.934  11.032  90.680  0.00  0.00    -0.005 C 
ATOM    113  O61 IDS d 305     137.791   9.210  90.405  0.00  0.00    -0.646 OA
ATOM    114  O3  IDS d 305     132.633  11.726  90.463  0.00  0.00    -0.393 OA
ATOM    115  O62 IDS d 305     138.076  11.097  91.219  0.00  0.00    -0.646 OA
ATOM    116  O2S IDS d 305     132.546  12.387  85.889  0.00  0.00    -0.572 OA
ATOM    117  O2  IDS d 305     133.166  13.168  88.095  0.00  0.00    -0.244 OA
ATOM    118  O5  IDS d 305     136.488  12.107  89.109  0.00  0.00    -0.343 OA
ATOM    119  C5  IDS d 305     136.189  10.853  89.763  0.00  0.00     0.127 C 
ATOM    120  C3  IDS d 305     133.952  12.095  90.109  0.00  0.00     0.069 C 
ATOM    121  C2  IDS d 305     134.071  12.186  88.574  0.00  0.00     0.132 C 
ATOM    122  C6  IDS d 305     137.426  10.361  90.508  0.00  0.00     0.203 C 
ATOM    123  O3S IDS d 305     131.025  12.164  87.724  0.00  0.00    -0.572 OA
ATOM    124  H   IDS d 305     135.610  13.652  88.164  0.00  0.00     0.133 H 
ATOM    125  H   IDS d 305     134.424  10.094  90.756  0.00  0.00     0.041 H 
ATOM    126  H   IDS d 305     135.266  11.367  91.640  0.00  0.00     0.041 H 
ATOM    127  H   IDS d 305     132.561  11.669  91.429  0.00  0.00     0.210 HD
ATOM    128  H   IDS d 305     135.943  10.095  89.049  0.00  0.00     0.100 H 
ATOM    129  H   IDS d 305     134.195  13.053  90.518  0.00  0.00     0.087 H 
ATOM    130  H   IDS d 305     133.840  11.230  88.149  0.00  0.00     0.097 H 
ENDROOT
TORSDOF 39
ENDMDL
MODEL 46
REMARK VINA RESULT:      -5.3      4.309      5.697
REMARK  0 active torsions:
REMARK  status: ('A' for Active; 'I' for Inactive)
REMARK       I    between atoms: C2_2  and  N_68 
REMARK       I    between atoms: C1_3  and  O4_24 
REMARK       I    between atoms: O1S_5  and  S1_58 
REMARK       I    between atoms: O1_6  and  C1_31 
REMARK       I    between atoms: C4_7  and  O4_36 
REMARK       I    between atoms: C1_8  and  O4_37 
REMARK       I    between atoms: O3_9  and  C3_74 
REMARK       I    between atoms: C5_10  and  C6_32 
REMARK       I    between atoms: C2_11  and  N_20 
REMARK       I    between atoms: C6_12  and  C5_53 
REMARK       I    between atoms: S2_14  and  O6_33 
REMARK       I    between atoms: O3S_16  and  S1_51 
REMARK       I    between atoms: S_17  and  O2_44 
REMARK       I    between atoms: N_20  and  S1_58 
REMARK       I    between atoms: O4_24  and  C4_38 
REMARK       I    between atoms: S_25  and  O2_64 
REMARK       I    between atoms: O2S_27  and  S1_51 
REMARK       I    between atoms: C4_28  and  O4_73 
REMARK       I    between atoms: C3_30  and  O3_62 
REMARK       I    between atoms: O6_33  and  C6_63 
REMARK       I    between atoms: O3_35  and  C3_55 
REMARK       I    between atoms: O4_36  and  C1_84 
REMARK       I    between atoms: O4_37  and  C4_54 
REMARK       I    between atoms: C3_39  and  O3_48 
REMARK       I    between atoms: C5_42  and  C6_63 
REMARK       I    between atoms: O2_44  and  C2_61 
REMARK       I    between atoms: O6_45  and  C6_77 
REMARK       I    between atoms: O6_45  and  S2_82 
REMARK       I    between atoms: C5_49  and  C6_76 
REMARK       I    between atoms: S1_51  and  N_68 
REMARK       I    between atoms: S1_51  and  O1S_81 
REMARK       I    between atoms: O2S_52  and  S1_58 
REMARK       I    between atoms: C2_57  and  O2_64 
REMARK       I    between atoms: S1_58  and  O3S_75 
REMARK       I    between atoms: O3_66  and  C3_67 
REMARK       I    between atoms: O2_69  and  C2_79 
REMARK       I    between atoms: O2_69  and  S_72 
REMARK       I    between atoms: C5_70  and  C6_77 
REMARK       I    between atoms: C1_71  and  O4_73 
ROOT
ATOM      1  O2S IDS d 303     129.610   6.669  71.880  0.00  0.00    -0.572 OA
ATOM      2  C6  IDS d 303     135.457  10.807  72.996  0.00  0.00     0.206 C 
ATOM      3  O1S IDS d 303     130.627   6.072  73.957  0.00  0.00    -0.572 OA
ATOM      4  O3S IDS d 303     128.968   7.802  73.901  0.00  0.00    -0.572 OA
ATOM      5  O4  IDS d 303     133.317   9.423  71.243  0.00  0.00    -0.348 OA
ATOM      6  O61 IDS d 303     135.926  11.847  72.581  0.00  0.00    -0.646 OA
ATOM      7  C4  IDS d 303     133.076  10.627  71.987  0.00  0.00     0.103 C 
ATOM      8  C3  IDS d 303     131.582  10.509  72.403  0.00  0.00     0.094 C 
ATOM      9  O62 IDS d 303     136.217   9.883  73.200  0.00  0.00    -0.646 OA
ATOM     10  O3  IDS d 303     131.150  11.776  72.868  0.00  0.00    -0.390 OA
ATOM     11  C5  IDS d 303     133.958  10.667  73.259  0.00  0.00     0.152 C 
ATOM     12  O2  IDS d 303     131.143   8.186  72.911  0.00  0.00    -0.244 OA
ATOM     13  C1  IDS d 303     132.431   9.330  74.592  0.00  0.00     0.161 C 
ATOM     14  S   IDS d 303     130.018   7.123  73.187  0.00  0.00     0.252 S 
ATOM     15  C2  IDS d 303     131.320   9.457  73.517  0.00  0.00     0.134 C 
ATOM     16  O5  IDS d 303     133.725   9.473  74.019  0.00  0.00    -0.340 OA
ATOM     17  H   IDS d 303     133.297  11.508  71.421  0.00  0.00     0.092 H 
ATOM     18  H   IDS d 303     131.042  10.182  71.540  0.00  0.00     0.091 H 
ATOM     19  H   IDS d 303     131.667  12.027  73.649  0.00  0.00     0.210 HD
ATOM     20  H   IDS d 303     133.672  11.549  73.791  0.00  0.00     0.104 H 
ATOM     21  H   IDS d 303     132.403   8.351  75.023  0.00  0.00     0.133 H 
ATOM     22  H   IDS d 303     130.448   9.802  74.033  0.00  0.00     0.097 H 
ATOM     23  C2  SGN d 304     133.143   8.230  69.107  0.00  0.00     0.081 C 
ATOM     24  C1  SGN d 304     133.532   9.536  69.853  0.00  0.00     0.150 C 
ATOM     25  O3  SGN d 304     133.760   5.914  68.806  0.00  0.00    -0.391 OA
ATOM     26  O3S SGN d 304     129.898   7.502  67.893  0.00  0.00    -0.296 OA
ATOM     27  O5S SGN d 304     137.880  10.637  66.042  0.00  0.00    -0.572 OA
ATOM     28  O2S SGN d 304     131.026   9.612  67.744  0.00  0.00    -0.296 OA
ATOM     29  O4S SGN d 304     139.406   9.402  67.414  0.00  0.00    -0.572 OA
ATOM     30  O4  SGN d 304     136.273   6.302  69.215  0.00  0.00    -0.348 OA
ATOM     31  O6  SGN d 304     137.217  10.013  68.233  0.00  0.00    -0.254 OA
ATOM     32  S1  SGN d 304     130.509   8.583  68.610  0.00  0.00     0.156 S 
ATOM     33  C4  SGN d 304     135.546   7.534  69.075  0.00  0.00     0.095 C 
ATOM     34  O6S SGN d 304     138.899  11.688  67.922  0.00  0.00    -0.572 OA
ATOM     35  N   SGN d 304     131.749   7.903  69.448  0.00  0.00    -0.210 NA
ATOM     36  C5  SGN d 304     135.882   8.849  69.853  0.00  0.00     0.091 C 
ATOM     37  C3  SGN d 304     134.117   7.099  69.496  0.00  0.00     0.083 C 
ATOM     38  C6  SGN d 304     137.254   9.459  69.532  0.00  0.00     0.067 C 
ATOM     39  O5  SGN d 304     134.893   9.877  69.586  0.00  0.00    -0.349 OA
ATOM     40  O1S SGN d 304     129.645   9.123  69.623  0.00  0.00    -0.296 OA
ATOM     41  S2  SGN d 304     138.431  10.457  67.357  0.00  0.00     0.251 S 
ATOM     42  H   SGN d 304     133.216   8.356  68.047  0.00  0.00     0.076 H 
ATOM     43  H   SGN d 304     132.900  10.319  69.488  0.00  0.00     0.131 H 
ATOM     44  H   SGN d 304     132.866   5.643  69.071  0.00  0.00     0.210 HD
ATOM     45  H   SGN d 304     130.514   7.170  67.222  0.00  0.00     0.231 HD
ATOM     46  H   SGN d 304     131.603   9.211  67.075  0.00  0.00     0.231 HD
ATOM     47  H   SGN d 304     135.776   7.873  68.087  0.00  0.00     0.091 H 
ATOM     48  H   SGN d 304     131.618   8.161  70.427  0.00  0.00     0.140 HD
ATOM     49  H   SGN d 304     135.885   8.544  70.878  0.00  0.00     0.090 H 
ATOM     50  H   SGN d 304     134.079   6.914  70.548  0.00  0.00     0.089 H 
ATOM     51  H   SGN d 304     137.482  10.225  70.243  0.00  0.00     0.080 H 
ATOM     52  H   SGN d 304     138.008   8.701  69.582  0.00  0.00     0.080 H 
ATOM     53  H   SGN d 304     128.880   9.547  69.204  0.00  0.00     0.231 HD
ATOM     54  O62 IDS d 301     130.563   8.135  80.861  0.00  0.00    -0.646 OA
ATOM     55  O1  IDS d 301     129.914  10.675  85.143  0.00  0.00    -0.368 OA
ATOM     56  C4  IDS d 301     131.781  11.002  81.519  0.00  0.00     0.103 C 
ATOM     57  C5  IDS d 301     131.301   9.798  82.414  0.00  0.00     0.152 C 
ATOM     58  O61 IDS d 301     132.150   7.601  82.077  0.00  0.00    -0.646 OA
ATOM     59  S   IDS d 301     131.268  14.255  85.326  0.00  0.00     0.252 S 
ATOM     60  C3  IDS d 301     131.340  12.361  82.148  0.00  0.00     0.094 C 
ATOM     61  C1  IDS d 301     129.853  11.152  83.828  0.00  0.00     0.158 C 
ATOM     62  C6  IDS d 301     131.335   8.431  81.741  0.00  0.00     0.206 C 
ATOM     63  O5  IDS d 301     129.966  10.075  82.890  0.00  0.00    -0.340 OA
ATOM     64  O4  IDS d 301     132.176  11.372  80.188  0.00  0.00    -0.348 OA
ATOM     65  O3S IDS d 301     130.195  15.062  85.850  0.00  0.00    -0.572 OA
ATOM     66  O1S IDS d 301     131.762  13.309  86.290  0.00  0.00    -0.572 OA
ATOM     67  C2  IDS d 301     131.000  12.190  83.642  0.00  0.00     0.134 C 
ATOM     68  O3  IDS d 301     132.391  13.305  82.015  0.00  0.00    -0.390 OA
ATOM     69  O2  IDS d 301     130.598  13.442  84.167  0.00  0.00    -0.244 OA
ATOM     70  O2S IDS d 301     132.310  15.034  84.708  0.00  0.00    -0.572 OA
ATOM     71  H   IDS d 301     129.837  11.419  85.761  0.00  0.00     0.212 HD
ATOM     72  H   IDS d 301     132.473  10.193  81.417  0.00  0.00     0.092 H 
ATOM     73  H   IDS d 301     132.005   9.728  83.216  0.00  0.00     0.104 H 
ATOM     74  H   IDS d 301     130.466  12.704  81.635  0.00  0.00     0.091 H 
ATOM     75  H   IDS d 301     128.909  11.621  83.646  0.00  0.00     0.133 H 
ATOM     76  H   IDS d 301     131.866  11.835  84.160  0.00  0.00     0.097 H 
ATOM     77  H   IDS d 301     133.177  12.982  82.483  0.00  0.00     0.210 HD
ATOM     78  O1S SGN d 302     135.539  14.745  79.926  0.00  0.00    -0.296 OA
ATOM     79  C2  SGN d 302     133.993  11.547  78.528  0.00  0.00     0.081 C 
ATOM     80  S2  SGN d 302     133.125   5.568  77.838  0.00  0.00     0.251 S 
ATOM     81  N   SGN d 302     134.251  12.919  78.997  0.00  0.00    -0.210 NA
ATOM     82  C4  SGN d 302     132.877  10.093  76.832  0.00  0.00     0.095 C 
ATOM     83  O6  SGN d 302     133.013   7.110  77.608  0.00  0.00    -0.254 OA
ATOM     84  C5  SGN d 302     132.155   9.357  78.007  0.00  0.00     0.091 C 
ATOM     85  O4S SGN d 302     132.094   4.948  77.052  0.00  0.00    -0.572 OA
ATOM     86  O2S SGN d 302     135.982  12.571  80.748  0.00  0.00    -0.296 OA
ATOM     87  S1  SGN d 302     135.706  13.363  79.589  0.00  0.00     0.156 S 
ATOM     88  O5S SGN d 302     134.435   5.216  77.383  0.00  0.00    -0.572 OA
ATOM     89  O6S SGN d 302     132.952   5.379  79.249  0.00  0.00    -0.572 OA
ATOM     90  C6  SGN d 302     131.839   7.876  77.734  0.00  0.00     0.067 C 
ATOM     91  O3  SGN d 302     133.789  12.271  76.257  0.00  0.00    -0.391 OA
ATOM     92  C3  SGN d 302     133.121  11.550  77.278  0.00  0.00     0.083 C 
ATOM     93  O4  SGN d 302     132.196  10.273  75.594  0.00  0.00    -0.348 OA
ATOM     94  O3S SGN d 302     136.644  13.154  78.524  0.00  0.00    -0.296 OA
ATOM     95  C1  SGN d 302     133.310  10.738  79.660  0.00  0.00     0.150 C 
ATOM     96  O5  SGN d 302     132.970   9.421  79.211  0.00  0.00    -0.349 OA
ATOM     97  H   SGN d 302     134.897  14.827  80.649  0.00  0.00     0.231 HD
ATOM     98  H   SGN d 302     134.926  11.088  78.272  0.00  0.00     0.076 H 
ATOM     99  H   SGN d 302     133.573  13.103  79.737  0.00  0.00     0.140 HD
ATOM    100  H   SGN d 302     133.713   9.451  76.648  0.00  0.00     0.091 H 
ATOM    101  H   SGN d 302     131.223   9.868  78.124  0.00  0.00     0.090 H 
ATOM    102  H   SGN d 302     135.318  12.754  81.431  0.00  0.00     0.231 HD
ATOM    103  H   SGN d 302     131.258   7.490  78.546  0.00  0.00     0.080 H 
ATOM    104  H   SGN d 302     131.298   7.814  76.813  0.00  0.00     0.080 H 
ATOM    105  H   SGN d 302     133.937  13.184  76.549  0.00  0.00     0.210 HD
ATOM    106  H   SGN d 302     132.179  12.016  77.480  0.00  0.00     0.089 H 
ATOM    107  H   SGN d 302     136.406  13.715  77.770  0.00  0.00     0.231 HD
ATOM    108  H   SGN d 302     134.028  10.674  80.451  0.00  0.00     0.131 H 
ATOM    109  C1  IDS d 305     137.404   6.097  68.407  0.00  0.00     0.161 C 
ATOM    110  O1S IDS d 305     140.149   6.547  72.011  0.00  0.00    -0.572 OA
ATOM    111  S   IDS d 305     139.231   5.531  71.581  0.00  0.00     0.252 S 
ATOM    112  C4  IDS d 305     138.247   3.547  67.044  0.00  0.00    -0.005 C 
ATOM    113  O61 IDS d 305     135.288   3.260  65.396  0.00  0.00    -0.646 OA
ATOM    114  O3  IDS d 305     139.957   3.322  68.731  0.00  0.00    -0.393 OA
ATOM    115  O62 IDS d 305     136.616   4.585  64.509  0.00  0.00    -0.646 OA
ATOM    116  O2S IDS d 305     137.913   5.738  72.101  0.00  0.00    -0.572 OA
ATOM    117  O2  IDS d 305     139.160   5.702  70.026  0.00  0.00    -0.244 OA
ATOM    118  O5  IDS d 305     137.036   5.684  67.081  0.00  0.00    -0.343 OA
ATOM    119  C5  IDS d 305     136.867   4.264  66.870  0.00  0.00     0.127 C 
ATOM    120  C3  IDS d 305     139.152   4.282  68.074  0.00  0.00     0.069 C 
ATOM    121  C2  IDS d 305     138.299   5.041  69.112  0.00  0.00     0.132 C 
ATOM    122  C6  IDS d 305     136.221   4.025  65.508  0.00  0.00     0.203 C 
ATOM    123  O3S IDS d 305     139.727   4.205  71.805  0.00  0.00    -0.572 OA
ATOM    124  H   IDS d 305     137.946   7.012  68.288  0.00  0.00     0.133 H 
ATOM    125  H   IDS d 305     138.077   2.546  67.384  0.00  0.00     0.041 H 
ATOM    126  H   IDS d 305     138.748   3.551  66.098  0.00  0.00     0.041 H 
ATOM    127  H   IDS d 305     140.492   2.846  68.077  0.00  0.00     0.210 HD
ATOM    128  H   IDS d 305     136.207   3.842  67.598  0.00  0.00     0.100 H 
ATOM    129  H   IDS d 305     139.762   4.995  67.560  0.00  0.00     0.087 H 
ATOM    130  H   IDS d 305     137.674   4.343  69.628  0.00  0.00     0.097 H 
ENDROOT
TORSDOF 39
ENDMDL
MODEL 47
REMARK VINA RESULT:      -5.2      4.679      7.462
REMARK  0 active torsions:
REMARK  status: ('A' for Active; 'I' for Inactive)
REMARK       I    between atoms: C2_2  and  N_68 
REMARK       I    between atoms: C1_3  and  O4_24 
REMARK       I    between atoms: O1S_5  and  S1_58 
REMARK       I    between atoms: O1_6  and  C1_31 
REMARK       I    between atoms: C4_7  and  O4_36 
REMARK       I    between atoms: C1_8  and  O4_37 
REMARK       I    between atoms: O3_9  and  C3_74 
REMARK       I    between atoms: C5_10  and  C6_32 
REMARK       I    between atoms: C2_11  and  N_20 
REMARK       I    between atoms: C6_12  and  C5_53 
REMARK       I    between atoms: S2_14  and  O6_33 
REMARK       I    between atoms: O3S_16  and  S1_51 
REMARK       I    between atoms: S_17  and  O2_44 
REMARK       I    between atoms: N_20  and  S1_58 
REMARK       I    between atoms: O4_24  and  C4_38 
REMARK       I    between atoms: S_25  and  O2_64 
REMARK       I    between atoms: O2S_27  and  S1_51 
REMARK       I    between atoms: C4_28  and  O4_73 
REMARK       I    between atoms: C3_30  and  O3_62 
REMARK       I    between atoms: O6_33  and  C6_63 
REMARK       I    between atoms: O3_35  and  C3_55 
REMARK       I    between atoms: O4_36  and  C1_84 
REMARK       I    between atoms: O4_37  and  C4_54 
REMARK       I    between atoms: C3_39  and  O3_48 
REMARK       I    between atoms: C5_42  and  C6_63 
REMARK       I    between atoms: O2_44  and  C2_61 
REMARK       I    between atoms: O6_45  and  C6_77 
REMARK       I    between atoms: O6_45  and  S2_82 
REMARK       I    between atoms: C5_49  and  C6_76 
REMARK       I    between atoms: S1_51  and  N_68 
REMARK       I    between atoms: S1_51  and  O1S_81 
REMARK       I    between atoms: O2S_52  and  S1_58 
REMARK       I    between atoms: C2_57  and  O2_64 
REMARK       I    between atoms: S1_58  and  O3S_75 
REMARK       I    between atoms: O3_66  and  C3_67 
REMARK       I    between atoms: O2_69  and  C2_79 
REMARK       I    between atoms: O2_69  and  S_72 
REMARK       I    between atoms: C5_70  and  C6_77 
REMARK       I    between atoms: C1_71  and  O4_73 
ROOT
ATOM      1  O2S IDS d 303     130.811  15.091  78.888  0.00  0.00    -0.572 OA
ATOM      2  C6  IDS d 303     135.440  10.796  75.327  0.00  0.00     0.206 C 
ATOM      3  O1S IDS d 303     130.369  12.809  79.439  0.00  0.00    -0.572 OA
ATOM      4  O3S IDS d 303     131.958  14.057  80.730  0.00  0.00    -0.572 OA
ATOM      5  O4  IDS d 303     133.829  13.401  75.763  0.00  0.00    -0.348 OA
ATOM      6  O61 IDS d 303     136.499  10.891  74.741  0.00  0.00    -0.646 OA
ATOM      7  C4  IDS d 303     135.035  13.085  76.475  0.00  0.00     0.103 C 
ATOM      8  C3  IDS d 303     134.812  13.722  77.876  0.00  0.00     0.094 C 
ATOM      9  O62 IDS d 303     134.587  10.079  74.846  0.00  0.00    -0.646 OA
ATOM     10  O3  IDS d 303     136.055  13.747  78.555  0.00  0.00    -0.390 OA
ATOM     11  C5  IDS d 303     135.189  11.552  76.631  0.00  0.00     0.152 C 
ATOM     12  O2  IDS d 303     132.480  13.437  78.450  0.00  0.00    -0.244 OA
ATOM     13  C1  IDS d 303     133.781  11.418  78.605  0.00  0.00     0.161 C 
ATOM     14  S   IDS d 303     131.340  13.870  79.442  0.00  0.00     0.252 S 
ATOM     15  C2  IDS d 303     133.782  12.963  78.758  0.00  0.00     0.134 C 
ATOM     16  O5  IDS d 303     134.008  11.031  77.255  0.00  0.00    -0.340 OA
ATOM     17  H   IDS d 303     135.911  13.442  75.973  0.00  0.00     0.092 H 
ATOM     18  H   IDS d 303     134.413  14.702  77.714  0.00  0.00     0.091 H 
ATOM     19  H   IDS d 303     136.374  12.839  78.678  0.00  0.00     0.210 HD
ATOM     20  H   IDS d 303     136.063  11.401  77.228  0.00  0.00     0.104 H 
ATOM     21  H   IDS d 303     132.819  11.032  78.868  0.00  0.00     0.133 H 
ATOM     22  H   IDS d 303     134.073  13.159  79.768  0.00  0.00     0.097 H 
ATOM     23  C2  SGN d 304     132.552  15.044  74.463  0.00  0.00     0.081 C 
ATOM     24  C1  SGN d 304     133.911  14.328  74.702  0.00  0.00     0.150 C 
ATOM     25  O3  SGN d 304     130.284  14.693  73.711  0.00  0.00    -0.391 OA
ATOM     26  O3S SGN d 304     131.525  18.002  76.115  0.00  0.00    -0.296 OA
ATOM     27  O5S SGN d 304     135.223  14.508  68.968  0.00  0.00    -0.572 OA
ATOM     28  O2S SGN d 304     133.712  17.554  75.242  0.00  0.00    -0.296 OA
ATOM     29  O4S SGN d 304     134.163  12.385  68.650  0.00  0.00    -0.572 OA
ATOM     30  O4  SGN d 304     130.886  12.792  72.081  0.00  0.00    -0.348 OA
ATOM     31  O6  SGN d 304     134.625  13.221  70.869  0.00  0.00    -0.254 OA
ATOM     32  S1  SGN d 304     132.675  17.148  76.157  0.00  0.00     0.156 S 
ATOM     33  C4  SGN d 304     132.050  13.463  72.590  0.00  0.00     0.095 C 
ATOM     34  O6S SGN d 304     136.417  12.504  69.453  0.00  0.00    -0.572 OA
ATOM     35  N   SGN d 304     132.126  15.657  75.732  0.00  0.00    -0.210 NA
ATOM     36  C5  SGN d 304     133.414  12.759  72.889  0.00  0.00     0.091 C 
ATOM     37  C3  SGN d 304     131.517  14.031  73.932  0.00  0.00     0.083 C 
ATOM     38  C6  SGN d 304     134.121  12.166  71.662  0.00  0.00     0.067 C 
ATOM     39  O5  SGN d 304     134.350  13.680  73.508  0.00  0.00    -0.349 OA
ATOM     40  O1S SGN d 304     133.179  16.977  77.491  0.00  0.00    -0.296 OA
ATOM     41  S2  SGN d 304     135.134  13.139  69.395  0.00  0.00     0.251 S 
ATOM     42  H   SGN d 304     132.646  15.813  73.726  0.00  0.00     0.076 H 
ATOM     43  H   SGN d 304     134.627  15.075  74.976  0.00  0.00     0.131 H 
ATOM     44  H   SGN d 304     129.952  15.047  74.551  0.00  0.00     0.210 HD
ATOM     45  H   SGN d 304     131.220  18.089  75.199  0.00  0.00     0.231 HD
ATOM     46  H   SGN d 304     133.336  17.659  74.354  0.00  0.00     0.231 HD
ATOM     47  H   SGN d 304     132.372  14.093  71.787  0.00  0.00     0.091 H 
ATOM     48  H   SGN d 304     132.407  15.018  76.476  0.00  0.00     0.140 HD
ATOM     49  H   SGN d 304     133.146  11.954  73.540  0.00  0.00     0.090 H 
ATOM     50  H   SGN d 304     131.367  13.241  74.636  0.00  0.00     0.089 H 
ATOM     51  H   SGN d 304     134.927  11.539  71.980  0.00  0.00     0.080 H 
ATOM     52  H   SGN d 304     133.428  11.583  71.092  0.00  0.00     0.080 H 
ATOM     53  H   SGN d 304     133.525  17.822  77.818  0.00  0.00     0.231 HD
ATOM     54  O62 IDS d 301     132.659   7.763  84.045  0.00  0.00    -0.646 OA
ATOM     55  O1  IDS d 301     135.286   5.125  87.414  0.00  0.00    -0.368 OA
ATOM     56  C4  IDS d 301     135.635   6.702  83.657  0.00  0.00     0.103 C 
ATOM     57  C5  IDS d 301     134.428   6.237  84.556  0.00  0.00     0.152 C 
ATOM     58  O61 IDS d 301     132.297   5.773  83.607  0.00  0.00    -0.646 OA
ATOM     59  S   IDS d 301     138.966   4.393  86.641  0.00  0.00     0.252 S 
ATOM     60  C3  IDS d 301     136.975   6.615  84.453  0.00  0.00     0.094 C 
ATOM     61  C1  IDS d 301     135.710   6.201  86.625  0.00  0.00     0.158 C 
ATOM     62  C6  IDS d 301     133.046   6.619  84.041  0.00  0.00     0.206 C 
ATOM     63  O5  IDS d 301     134.614   6.757  85.890  0.00  0.00    -0.340 OA
ATOM     64  O4  IDS d 301     135.989   7.488  82.507  0.00  0.00    -0.348 OA
ATOM     65  O3S IDS d 301     139.703   4.749  87.828  0.00  0.00    -0.572 OA
ATOM     66  O1S IDS d 301     138.098   3.267  86.855  0.00  0.00    -0.572 OA
ATOM     67  C2  IDS d 301     136.830   5.684  85.673  0.00  0.00     0.134 C 
ATOM     68  O3  IDS d 301     137.995   6.112  83.603  0.00  0.00    -0.390 OA
ATOM     69  O2  IDS d 301     138.063   5.642  86.368  0.00  0.00    -0.244 OA
ATOM     70  O2S IDS d 301     139.804   4.252  85.478  0.00  0.00    -0.572 OA
ATOM     71  H   IDS d 301     136.042   4.763  87.902  0.00  0.00     0.212 HD
ATOM     72  H   IDS d 301     134.881   6.270  83.034  0.00  0.00     0.092 H 
ATOM     73  H   IDS d 301     134.443   5.167  84.538  0.00  0.00     0.104 H 
ATOM     74  H   IDS d 301     137.230   7.596  84.797  0.00  0.00     0.091 H 
ATOM     75  H   IDS d 301     136.095   6.985  87.243  0.00  0.00     0.133 H 
ATOM     76  H   IDS d 301     136.563   4.704  85.337  0.00  0.00     0.097 H 
ATOM     77  H   IDS d 301     137.753   5.224  83.298  0.00  0.00     0.210 HD
ATOM     78  O1S SGN d 302     139.610   5.784  79.911  0.00  0.00    -0.296 OA
ATOM     79  C2  SGN d 302     136.251   7.593  80.056  0.00  0.00     0.081 C 
ATOM     80  S2  SGN d 302     130.201   8.208  80.038  0.00  0.00     0.251 S 
ATOM     81  N   SGN d 302     137.656   7.177  80.217  0.00  0.00    -0.210 NA
ATOM     82  C4  SGN d 302     134.655   9.488  79.749  0.00  0.00     0.095 C 
ATOM     83  O6  SGN d 302     131.721   8.576  80.033  0.00  0.00    -0.254 OA
ATOM     84  C5  SGN d 302     133.905   9.002  81.031  0.00  0.00     0.091 C 
ATOM     85  O4S SGN d 302     129.474   9.422  80.288  0.00  0.00    -0.572 OA
ATOM     86  O2S SGN d 302     137.508   4.702  80.024  0.00  0.00    -0.296 OA
ATOM     87  S1  SGN d 302     138.235   5.823  79.513  0.00  0.00     0.156 S 
ATOM     88  O5S SGN d 302     129.940   7.682  78.734  0.00  0.00    -0.572 OA
ATOM     89  O6S SGN d 302     130.049   7.233  81.077  0.00  0.00    -0.572 OA
ATOM     90  C6  SGN d 302     132.394   9.297  81.038  0.00  0.00     0.067 C 
ATOM     91  O3  SGN d 302     136.878   9.507  78.766  0.00  0.00    -0.391 OA
ATOM     92  C3  SGN d 302     136.142   9.105  79.909  0.00  0.00     0.083 C 
ATOM     93  O4  SGN d 302     134.737  10.882  79.470  0.00  0.00    -0.348 OA
ATOM     94  O3S SGN d 302     138.065   6.012  78.101  0.00  0.00    -0.296 OA
ATOM     95  C1  SGN d 302     135.430   7.109  81.278  0.00  0.00     0.150 C 
ATOM     96  O5  SGN d 302     134.076   7.566  81.195  0.00  0.00    -0.349 OA
ATOM     97  H   SGN d 302     139.665   5.654  80.871  0.00  0.00     0.231 HD
ATOM     98  H   SGN d 302     135.861   7.149  79.163  0.00  0.00     0.076 H 
ATOM     99  H   SGN d 302     137.810   7.066  81.220  0.00  0.00     0.140 HD
ATOM    100  H   SGN d 302     134.076   9.038  78.969  0.00  0.00     0.091 H 
ATOM    101  H   SGN d 302     134.343   9.555  81.835  0.00  0.00     0.090 H 
ATOM    102  H   SGN d 302     137.661   4.626  80.979  0.00  0.00     0.231 HD
ATOM    103  H   SGN d 302     131.991   9.025  81.991  0.00  0.00     0.080 H 
ATOM    104  H   SGN d 302     132.257  10.342  80.849  0.00  0.00     0.080 H 
ATOM    105  H   SGN d 302     137.809   9.262  78.878  0.00  0.00     0.210 HD
ATOM    106  H   SGN d 302     136.537   9.595  80.773  0.00  0.00     0.089 H 
ATOM    107  H   SGN d 302     138.579   6.783  77.814  0.00  0.00     0.231 HD
ATOM    108  H   SGN d 302     135.452   6.040  81.243  0.00  0.00     0.131 H 
ATOM    109  C1  IDS d 305     130.744  12.661  70.688  0.00  0.00     0.161 C 
ATOM    110  O1S IDS d 305     131.538   8.187  70.957  0.00  0.00    -0.572 OA
ATOM    111  S   IDS d 305     130.437   9.026  71.337  0.00  0.00     0.252 S 
ATOM    112  C4  IDS d 305     128.224  12.954  69.065  0.00  0.00    -0.005 C 
ATOM    113  O61 IDS d 305     127.644  16.093  70.235  0.00  0.00    -0.646 OA
ATOM    114  O3  IDS d 305     128.196  10.551  68.851  0.00  0.00    -0.393 OA
ATOM    115  O62 IDS d 305     129.040  16.015  68.702  0.00  0.00    -0.646 OA
ATOM    116  O2S IDS d 305     130.556   9.497  72.684  0.00  0.00    -0.572 OA
ATOM    117  O2  IDS d 305     130.547  10.267  70.389  0.00  0.00    -0.244 OA
ATOM    118  O5  IDS d 305     130.258  13.875  70.092  0.00  0.00    -0.343 OA
ATOM    119  C5  IDS d 305     128.822  14.033  70.029  0.00  0.00     0.127 C 
ATOM    120  C3  IDS d 305     129.065  11.645  69.074  0.00  0.00     0.069 C 
ATOM    121  C2  IDS d 305     129.789  11.466  70.425  0.00  0.00     0.132 C 
ATOM    122  C6  IDS d 305     128.485  15.466  69.628  0.00  0.00     0.203 C 
ATOM    123  O3S IDS d 305     129.163   8.431  71.054  0.00  0.00    -0.572 OA
ATOM    124  H   IDS d 305     131.696  12.474  70.235  0.00  0.00     0.133 H 
ATOM    125  H   IDS d 305     127.226  12.727  69.376  0.00  0.00     0.041 H 
ATOM    126  H   IDS d 305     128.236  13.350  68.072  0.00  0.00     0.041 H 
ATOM    127  H   IDS d 305     127.742  10.666  68.002  0.00  0.00     0.210 HD
ATOM    128  H   IDS d 305     128.374  13.871  70.987  0.00  0.00     0.100 H 
ATOM    129  H   IDS d 305     129.806  11.698  68.305  0.00  0.00     0.087 H 
ATOM    130  H   IDS d 305     129.061  11.421  71.208  0.00  0.00     0.097 H 
ENDROOT
TORSDOF 39
ENDMDL
MODEL 48
REMARK VINA RESULT:      -5.2      4.516      6.108
REMARK  0 active torsions:
REMARK  status: ('A' for Active; 'I' for Inactive)
REMARK       I    between atoms: C2_2  and  N_68 
REMARK       I    between atoms: C1_3  and  O4_24 
REMARK       I    between atoms: O1S_5  and  S1_58 
REMARK       I    between atoms: O1_6  and  C1_31 
REMARK       I    between atoms: C4_7  and  O4_36 
REMARK       I    between atoms: C1_8  and  O4_37 
REMARK       I    between atoms: O3_9  and  C3_74 
REMARK       I    between atoms: C5_10  and  C6_32 
REMARK       I    between atoms: C2_11  and  N_20 
REMARK       I    between atoms: C6_12  and  C5_53 
REMARK       I    between atoms: S2_14  and  O6_33 
REMARK       I    between atoms: O3S_16  and  S1_51 
REMARK       I    between atoms: S_17  and  O2_44 
REMARK       I    between atoms: N_20  and  S1_58 
REMARK       I    between atoms: O4_24  and  C4_38 
REMARK       I    between atoms: S_25  and  O2_64 
REMARK       I    between atoms: O2S_27  and  S1_51 
REMARK       I    between atoms: C4_28  and  O4_73 
REMARK       I    between atoms: C3_30  and  O3_62 
REMARK       I    between atoms: O6_33  and  C6_63 
REMARK       I    between atoms: O3_35  and  C3_55 
REMARK       I    between atoms: O4_36  and  C1_84 
REMARK       I    between atoms: O4_37  and  C4_54 
REMARK       I    between atoms: C3_39  and  O3_48 
REMARK       I    between atoms: C5_42  and  C6_63 
REMARK       I    between atoms: O2_44  and  C2_61 
REMARK       I    between atoms: O6_45  and  C6_77 
REMARK       I    between atoms: O6_45  and  S2_82 
REMARK       I    between atoms: C5_49  and  C6_76 
REMARK       I    between atoms: S1_51  and  N_68 
REMARK       I    between atoms: S1_51  and  O1S_81 
REMARK       I    between atoms: O2S_52  and  S1_58 
REMARK       I    between atoms: C2_57  and  O2_64 
REMARK       I    between atoms: S1_58  and  O3S_75 
REMARK       I    between atoms: O3_66  and  C3_67 
REMARK       I    between atoms: O2_69  and  C2_79 
REMARK       I    between atoms: O2_69  and  S_72 
REMARK       I    between atoms: C5_70  and  C6_77 
REMARK       I    between atoms: C1_71  and  O4_73 
ROOT
ATOM      1  O2S IDS d 303     131.068   4.320  72.121  0.00  0.00    -0.572 OA
ATOM      2  C6  IDS d 303     134.214  10.240  74.882  0.00  0.00     0.206 C 
ATOM      3  O1S IDS d 303     132.679   3.677  73.763  0.00  0.00    -0.572 OA
ATOM      4  O3S IDS d 303     130.419   4.128  74.428  0.00  0.00    -0.572 OA
ATOM      5  O4  IDS d 303     132.701   8.648  72.703  0.00  0.00    -0.348 OA
ATOM      6  O61 IDS d 303     134.007  11.435  74.939  0.00  0.00    -0.646 OA
ATOM      7  C4  IDS d 303     132.072   9.177  73.881  0.00  0.00     0.103 C 
ATOM      8  C3  IDS d 303     130.963   8.135  74.205  0.00  0.00     0.094 C 
ATOM      9  O62 IDS d 303     135.353   9.870  74.684  0.00  0.00    -0.646 OA
ATOM     10  O3  IDS d 303     130.080   8.708  75.154  0.00  0.00    -0.390 OA
ATOM     11  C5  IDS d 303     133.078   9.233  75.056  0.00  0.00     0.152 C 
ATOM     12  O2  IDS d 303     131.845   5.942  73.696  0.00  0.00    -0.244 OA
ATOM     13  C1  IDS d 303     132.742   6.917  75.706  0.00  0.00     0.161 C 
ATOM     14  S   IDS d 303     131.480   4.426  73.499  0.00  0.00     0.252 S 
ATOM     15  C2  IDS d 303     131.504   6.796  74.777  0.00  0.00     0.134 C 
ATOM     16  O5  IDS d 303     133.635   7.926  75.249  0.00  0.00    -0.340 OA
ATOM     17  H   IDS d 303     131.701  10.170  73.734  0.00  0.00     0.092 H 
ATOM     18  H   IDS d 303     130.476   7.899  73.282  0.00  0.00     0.091 H 
ATOM     19  H   IDS d 303     130.566   8.903  75.970  0.00  0.00     0.210 HD
ATOM     20  H   IDS d 303     132.522   9.566  75.908  0.00  0.00     0.104 H 
ATOM     21  H   IDS d 303     133.294   6.001  75.689  0.00  0.00     0.133 H 
ATOM     22  H   IDS d 303     130.715   6.408  75.387  0.00  0.00     0.097 H 
ATOM     23  C2  SGN d 304     132.666   8.396  70.264  0.00  0.00     0.081 C 
ATOM     24  C1  SGN d 304     132.518   9.341  71.488  0.00  0.00     0.150 C 
ATOM     25  O3  SGN d 304     134.255   7.061  69.027  0.00  0.00    -0.391 OA
ATOM     26  O3S SGN d 304     130.018   6.521  68.845  0.00  0.00    -0.296 OA
ATOM     27  O5S SGN d 304     134.798  13.870  68.499  0.00  0.00    -0.572 OA
ATOM     28  O2S SGN d 304     129.901   8.795  69.593  0.00  0.00    -0.296 OA
ATOM     29  O4S SGN d 304     136.993  13.261  69.236  0.00  0.00    -0.572 OA
ATOM     30  O4  SGN d 304     136.273   8.566  69.569  0.00  0.00    -0.348 OA
ATOM     31  O6  SGN d 304     135.030  12.261  70.228  0.00  0.00    -0.254 OA
ATOM     32  S1  SGN d 304     130.162   7.423  69.950  0.00  0.00     0.156 S 
ATOM     33  C4  SGN d 304     135.025   9.168  69.954  0.00  0.00     0.095 C 
ATOM     34  O6S SGN d 304     135.558  14.558  70.650  0.00  0.00    -0.572 OA
ATOM     35  N   SGN d 304     131.727   7.274  70.433  0.00  0.00    -0.210 NA
ATOM     36  C5  SGN d 304     134.835  10.080  71.210  0.00  0.00     0.091 C 
ATOM     37  C3  SGN d 304     134.128   7.917  70.149  0.00  0.00     0.083 C 
ATOM     38  C6  SGN d 304     135.621  11.399  71.178  0.00  0.00     0.067 C 
ATOM     39  O5  SGN d 304     133.438  10.429  71.392  0.00  0.00    -0.349 OA
ATOM     40  O1S SGN d 304     129.394   7.014  71.092  0.00  0.00    -0.296 OA
ATOM     41  S2  SGN d 304     135.642  13.564  69.621  0.00  0.00     0.251 S 
ATOM     42  H   SGN d 304     132.430   8.905  69.353  0.00  0.00     0.076 H 
ATOM     43  H   SGN d 304     131.520   9.729  71.480  0.00  0.00     0.131 H 
ATOM     44  H   SGN d 304     133.693   6.280  69.151  0.00  0.00     0.210 HD
ATOM     45  H   SGN d 304     130.552   6.835  68.100  0.00  0.00     0.231 HD
ATOM     46  H   SGN d 304     130.435   9.035  68.821  0.00  0.00     0.231 HD
ATOM     47  H   SGN d 304     134.834   9.900  69.197  0.00  0.00     0.091 H 
ATOM     48  H   SGN d 304     131.707   7.056  71.429  0.00  0.00     0.140 HD
ATOM     49  H   SGN d 304     135.215   9.486  72.014  0.00  0.00     0.090 H 
ATOM     50  H   SGN d 304     134.419   7.384  71.029  0.00  0.00     0.089 H 
ATOM     51  H   SGN d 304     135.595  11.856  72.144  0.00  0.00     0.080 H 
ATOM     52  H   SGN d 304     136.640  11.207  70.909  0.00  0.00     0.080 H 
ATOM     53  H   SGN d 304     128.449   7.074  70.885  0.00  0.00     0.231 HD
ATOM     54  O62 IDS d 301     133.144   2.783  80.898  0.00  0.00    -0.646 OA
ATOM     55  O1  IDS d 301     132.300   2.865  85.847  0.00  0.00    -0.368 OA
ATOM     56  C4  IDS d 301     132.909   5.399  82.696  0.00  0.00     0.103 C 
ATOM     57  C5  IDS d 301     133.294   3.904  83.006  0.00  0.00     0.152 C 
ATOM     58  O61 IDS d 301     135.012   2.799  81.787  0.00  0.00    -0.646 OA
ATOM     59  S   IDS d 301     131.726   6.269  87.511  0.00  0.00     0.252 S 
ATOM     60  C3  IDS d 301     132.011   5.980  83.833  0.00  0.00     0.094 C 
ATOM     61  C1  IDS d 301     131.723   3.662  84.850  0.00  0.00     0.158 C 
ATOM     62  C6  IDS d 301     133.844   3.114  81.825  0.00  0.00     0.206 C 
ATOM     63  O5  IDS d 301     132.138   3.229  83.550  0.00  0.00    -0.340 OA
ATOM     64  O4  IDS d 301     132.767   6.366  81.642  0.00  0.00    -0.348 OA
ATOM     65  O3S IDS d 301     130.542   6.123  88.320  0.00  0.00    -0.572 OA
ATOM     66  O1S IDS d 301     132.820   5.470  87.995  0.00  0.00    -0.572 OA
ATOM     67  C2  IDS d 301     132.140   5.139  85.119  0.00  0.00     0.134 C 
ATOM     68  O3  IDS d 301     132.405   7.315  84.109  0.00  0.00    -0.390 OA
ATOM     69  O2  IDS d 301     131.303   5.695  86.116  0.00  0.00    -0.244 OA
ATOM     70  O2S IDS d 301     132.085   7.644  87.278  0.00  0.00    -0.572 OA
ATOM     71  H   IDS d 301     132.007   3.174  86.719  0.00  0.00     0.212 HD
ATOM     72  H   IDS d 301     133.867   5.189  82.269  0.00  0.00     0.092 H 
ATOM     73  H   IDS d 301     134.100   3.947  83.709  0.00  0.00     0.104 H 
ATOM     74  H   IDS d 301     130.992   5.954  83.507  0.00  0.00     0.091 H 
ATOM     75  H   IDS d 301     130.657   3.576  84.877  0.00  0.00     0.133 H 
ATOM     76  H   IDS d 301     133.158   5.150  85.444  0.00  0.00     0.097 H 
ATOM     77  H   IDS d 301     133.328   7.326  84.403  0.00  0.00     0.210 HD
ATOM     78  O1S SGN d 302     133.888  10.850  82.822  0.00  0.00    -0.296 OA
ATOM     79  C2  SGN d 302     133.843   8.064  80.213  0.00  0.00     0.081 C 
ATOM     80  S2  SGN d 302     135.892   3.265  77.089  0.00  0.00     0.251 S 
ATOM     81  N   SGN d 302     133.492   9.087  81.213  0.00  0.00    -0.210 NA
ATOM     82  C4  SGN d 302     133.240   6.950  78.061  0.00  0.00     0.095 C 
ATOM     83  O6  SGN d 302     134.990   4.466  77.523  0.00  0.00    -0.254 OA
ATOM     84  C5  SGN d 302     133.253   5.583  78.820  0.00  0.00     0.091 C 
ATOM     85  O4S SGN d 302     135.153   2.513  76.113  0.00  0.00    -0.572 OA
ATOM     86  O2S SGN d 302     135.510   9.134  82.665  0.00  0.00    -0.296 OA
ATOM     87  S1  SGN d 302     134.632  10.001  81.941  0.00  0.00     0.156 S 
ATOM     88  O5S SGN d 302     137.067   3.862  76.534  0.00  0.00    -0.572 OA
ATOM     89  O6S SGN d 302     136.151   2.530  78.292  0.00  0.00    -0.572 OA
ATOM     90  C6  SGN d 302     133.653   4.375  77.953  0.00  0.00     0.067 C 
ATOM     91  O3  SGN d 302     132.813   9.311  78.450  0.00  0.00    -0.391 OA
ATOM     92  C3  SGN d 302     132.830   8.039  79.075  0.00  0.00     0.083 C 
ATOM     93  O4  SGN d 302     132.303   7.158  77.009  0.00  0.00    -0.348 OA
ATOM     94  O3S SGN d 302     135.288  10.722  80.889  0.00  0.00    -0.296 OA
ATOM     95  C1  SGN d 302     133.916   6.678  80.902  0.00  0.00     0.150 C 
ATOM     96  O5  SGN d 302     134.175   5.645  79.944  0.00  0.00    -0.349 OA
ATOM     97  H   SGN d 302     133.467  10.311  83.511  0.00  0.00     0.231 HD
ATOM     98  H   SGN d 302     134.798   8.306  79.793  0.00  0.00     0.076 H 
ATOM     99  H   SGN d 302     132.994   8.601  81.959  0.00  0.00     0.140 HD
ATOM    100  H   SGN d 302     134.218   6.973  77.630  0.00  0.00     0.091 H 
ATOM    101  H   SGN d 302     132.243   5.431  79.135  0.00  0.00     0.090 H 
ATOM    102  H   SGN d 302     135.011   8.675  83.360  0.00  0.00     0.231 HD
ATOM    103  H   SGN d 302     133.532   3.481  78.528  0.00  0.00     0.080 H 
ATOM    104  H   SGN d 302     133.023   4.362  77.088  0.00  0.00     0.080 H 
ATOM    105  H   SGN d 302     132.555   9.985  79.096  0.00  0.00     0.210 HD
ATOM    106  H   SGN d 302     131.853   7.817  79.450  0.00  0.00     0.089 H 
ATOM    107  H   SGN d 302     134.645  11.290  80.437  0.00  0.00     0.231 HD
ATOM    108  H   SGN d 302     134.727   6.736  81.597  0.00  0.00     0.131 H 
ATOM    109  C1  IDS d 305     137.148   9.304  68.753  0.00  0.00     0.161 C 
ATOM    110  O1S IDS d 305     140.039   9.853  72.227  0.00  0.00    -0.572 OA
ATOM    111  S   IDS d 305     139.668   8.733  71.408  0.00  0.00     0.252 S 
ATOM    112  C4  IDS d 305     138.807   8.288  66.454  0.00  0.00    -0.005 C 
ATOM    113  O61 IDS d 305     136.088   7.058  64.826  0.00  0.00    -0.646 OA
ATOM    114  O3  IDS d 305     140.732   8.441  67.900  0.00  0.00    -0.393 OA
ATOM    115  O62 IDS d 305     136.360   9.100  64.578  0.00  0.00    -0.646 OA
ATOM    116  O2S IDS d 305     138.571   7.999  71.963  0.00  0.00    -0.572 OA
ATOM    117  O2  IDS d 305     139.180   9.375  70.067  0.00  0.00    -0.244 OA
ATOM    118  O5  IDS d 305     136.746   9.259  67.375  0.00  0.00    -0.343 OA
ATOM    119  C5  IDS d 305     137.253   8.156  66.590  0.00  0.00     0.127 C 
ATOM    120  C3  IDS d 305     139.437   8.974  67.700  0.00  0.00     0.069 C 
ATOM    121  C2  IDS d 305     138.576   8.729  68.957  0.00  0.00     0.132 C 
ATOM    122  C6  IDS d 305     136.524   8.105  65.251  0.00  0.00     0.203 C 
ATOM    123  O3S IDS d 305     140.787   7.906  71.062  0.00  0.00    -0.572 OA
ATOM    124  H   IDS d 305     137.129  10.338  69.029  0.00  0.00     0.133 H 
ATOM    125  H   IDS d 305     139.230   7.311  66.345  0.00  0.00     0.041 H 
ATOM    126  H   IDS d 305     139.017   8.894  65.598  0.00  0.00     0.041 H 
ATOM    127  H   IDS d 305     141.271   8.595  67.109  0.00  0.00     0.210 HD
ATOM    128  H   IDS d 305     137.066   7.220  67.074  0.00  0.00     0.100 H 
ATOM    129  H   IDS d 305     139.488  10.029  67.533  0.00  0.00     0.087 H 
ATOM    130  H   IDS d 305     138.506   7.676  69.133  0.00  0.00     0.097 H 
ENDROOT
TORSDOF 39
ENDMDL
MODEL 49
REMARK VINA RESULT:      -5.2      3.663     13.580
REMARK  0 active torsions:
REMARK  status: ('A' for Active; 'I' for Inactive)
REMARK       I    between atoms: C2_2  and  N_68 
REMARK       I    between atoms: C1_3  and  O4_24 
REMARK       I    between atoms: O1S_5  and  S1_58 
REMARK       I    between atoms: O1_6  and  C1_31 
REMARK       I    between atoms: C4_7  and  O4_36 
REMARK       I    between atoms: C1_8  and  O4_37 
REMARK       I    between atoms: O3_9  and  C3_74 
REMARK       I    between atoms: C5_10  and  C6_32 
REMARK       I    between atoms: C2_11  and  N_20 
REMARK       I    between atoms: C6_12  and  C5_53 
REMARK       I    between atoms: S2_14  and  O6_33 
REMARK       I    between atoms: O3S_16  and  S1_51 
REMARK       I    between atoms: S_17  and  O2_44 
REMARK       I    between atoms: N_20  and  S1_58 
REMARK       I    between atoms: O4_24  and  C4_38 
REMARK       I    between atoms: S_25  and  O2_64 
REMARK       I    between atoms: O2S_27  and  S1_51 
REMARK       I    between atoms: C4_28  and  O4_73 
REMARK       I    between atoms: C3_30  and  O3_62 
REMARK       I    between atoms: O6_33  and  C6_63 
REMARK       I    between atoms: O3_35  and  C3_55 
REMARK       I    between atoms: O4_36  and  C1_84 
REMARK       I    between atoms: O4_37  and  C4_54 
REMARK       I    between atoms: C3_39  and  O3_48 
REMARK       I    between atoms: C5_42  and  C6_63 
REMARK       I    between atoms: O2_44  and  C2_61 
REMARK       I    between atoms: O6_45  and  C6_77 
REMARK       I    between atoms: O6_45  and  S2_82 
REMARK       I    between atoms: C5_49  and  C6_76 
REMARK       I    between atoms: S1_51  and  N_68 
REMARK       I    between atoms: S1_51  and  O1S_81 
REMARK       I    between atoms: O2S_52  and  S1_58 
REMARK       I    between atoms: C2_57  and  O2_64 
REMARK       I    between atoms: S1_58  and  O3S_75 
REMARK       I    between atoms: O3_66  and  C3_67 
REMARK       I    between atoms: O2_69  and  C2_79 
REMARK       I    between atoms: O2_69  and  S_72 
REMARK       I    between atoms: C5_70  and  C6_77 
REMARK       I    between atoms: C1_71  and  O4_73 
ROOT
ATOM      1  O2S IDS d 303     131.332  10.917  81.362  0.00  0.00    -0.572 OA
ATOM      2  C6  IDS d 303     135.964   6.149  78.468  0.00  0.00     0.206 C 
ATOM      3  O1S IDS d 303     132.564  11.965  79.604  0.00  0.00    -0.572 OA
ATOM      4  O3S IDS d 303     130.515  10.825  79.102  0.00  0.00    -0.572 OA
ATOM      5  O4  IDS d 303     134.172   7.276  80.725  0.00  0.00    -0.348 OA
ATOM      6  O61 IDS d 303     136.129   4.946  78.441  0.00  0.00    -0.646 OA
ATOM      7  C4  IDS d 303     133.665   6.541  79.601  0.00  0.00     0.103 C 
ATOM      8  C3  IDS d 303     132.272   7.184  79.340  0.00  0.00     0.094 C 
ATOM      9  O62 IDS d 303     136.944   6.854  78.582  0.00  0.00    -0.646 OA
ATOM     10  O3  IDS d 303     131.550   6.338  78.462  0.00  0.00    -0.390 OA
ATOM     11  C5  IDS d 303     134.565   6.755  78.359  0.00  0.00     0.152 C 
ATOM     12  O2  IDS d 303     132.470   9.557  79.758  0.00  0.00    -0.244 OA
ATOM     13  C1  IDS d 303     133.497   8.835  77.704  0.00  0.00     0.161 C 
ATOM     14  S   IDS d 303     131.670  10.896  79.960  0.00  0.00     0.252 S 
ATOM     15  C2  IDS d 303     132.341   8.604  78.714  0.00  0.00     0.134 C 
ATOM     16  O5  IDS d 303     134.682   8.162  78.112  0.00  0.00    -0.340 OA
ATOM     17  H   IDS d 303     133.625   5.487  79.785  0.00  0.00     0.092 H 
ATOM     18  H   IDS d 303     131.795   7.291  80.292  0.00  0.00     0.091 H 
ATOM     19  H   IDS d 303     132.022   6.273  77.617  0.00  0.00     0.210 HD
ATOM     20  H   IDS d 303     134.086   6.240  77.553  0.00  0.00     0.104 H 
ATOM     21  H   IDS d 303     133.741   9.876  77.671  0.00  0.00     0.133 H 
ATOM     22  H   IDS d 303     131.435   8.712  78.155  0.00  0.00     0.097 H 
ATOM     23  C2  SGN d 304     134.213   7.587  83.158  0.00  0.00     0.081 C 
ATOM     24  C1  SGN d 304     134.286   6.601  81.959  0.00  0.00     0.150 C 
ATOM     25  O3  SGN d 304     135.389   9.382  84.264  0.00  0.00    -0.391 OA
ATOM     26  O3S SGN d 304     131.211   8.612  84.730  0.00  0.00    -0.296 OA
ATOM     27  O5S SGN d 304     138.023   3.085  84.843  0.00  0.00    -0.572 OA
ATOM     28  O2S SGN d 304     131.750   6.387  84.022  0.00  0.00    -0.296 OA
ATOM     29  O4S SGN d 304     139.877   4.309  83.948  0.00  0.00    -0.572 OA
ATOM     30  O4  SGN d 304     137.734   8.547  83.604  0.00  0.00    -0.348 OA
ATOM     31  O6  SGN d 304     137.645   4.629  83.081  0.00  0.00    -0.254 OA
ATOM     32  S1  SGN d 304     131.556   7.760  83.631  0.00  0.00     0.156 S 
ATOM     33  C4  SGN d 304     136.709   7.581  83.314  0.00  0.00     0.095 C 
ATOM     34  O6S SGN d 304     138.824   2.589  82.654  0.00  0.00    -0.572 OA
ATOM     35  N   SGN d 304     132.967   8.362  83.039  0.00  0.00    -0.210 NA
ATOM     36  C5  SGN d 304     136.731   6.613  82.087  0.00  0.00     0.091 C 
ATOM     37  C3  SGN d 304     135.462   8.491  83.165  0.00  0.00     0.083 C 
ATOM     38  C6  SGN d 304     137.884   5.598  82.082  0.00  0.00     0.067 C 
ATOM     39  O5  SGN d 304     135.500   5.849  82.005  0.00  0.00    -0.349 OA
ATOM     40  O1S SGN d 304     130.630   7.877  82.538  0.00  0.00    -0.296 OA
ATOM     41  S2  SGN d 304     138.662   3.595  83.662  0.00  0.00     0.251 S 
ATOM     42  H   SGN d 304     134.201   7.060  84.089  0.00  0.00     0.076 H 
ATOM     43  H   SGN d 304     133.458   5.928  82.040  0.00  0.00     0.131 H 
ATOM     44  H   SGN d 304     134.609   9.951  84.169  0.00  0.00     0.210 HD
ATOM     45  H   SGN d 304     131.860   8.501  85.442  0.00  0.00     0.231 HD
ATOM     46  H   SGN d 304     132.378   6.347  84.759  0.00  0.00     0.231 HD
ATOM     47  H   SGN d 304     136.798   6.851  84.092  0.00  0.00     0.091 H 
ATOM     48  H   SGN d 304     132.819   8.530  82.044  0.00  0.00     0.140 HD
ATOM     49  H   SGN d 304     136.860   7.267  81.250  0.00  0.00     0.090 H 
ATOM     50  H   SGN d 304     135.521   9.059  82.260  0.00  0.00     0.089 H 
ATOM     51  H   SGN d 304     137.939   5.122  81.125  0.00  0.00     0.080 H 
ATOM     52  H   SGN d 304     138.809   6.100  82.276  0.00  0.00     0.080 H 
ATOM     53  H   SGN d 304     129.763   7.539  82.811  0.00  0.00     0.231 HD
ATOM     54  O62 IDS d 301     132.292  12.718  72.443  0.00  0.00    -0.646 OA
ATOM     55  O1  IDS d 301     131.211  12.217  67.565  0.00  0.00    -0.368 OA
ATOM     56  C4  IDS d 301     132.760  10.096  70.700  0.00  0.00     0.103 C 
ATOM     57  C5  IDS d 301     132.649  11.626  70.344  0.00  0.00     0.152 C 
ATOM     58  O61 IDS d 301     134.018  13.242  71.427  0.00  0.00    -0.646 OA
ATOM     59  S   IDS d 301     131.606   8.746  65.990  0.00  0.00     0.252 S 
ATOM     60  C3  IDS d 301     132.014   9.231  69.635  0.00  0.00     0.094 C 
ATOM     61  C1  IDS d 301     130.969  11.316  68.610  0.00  0.00     0.158 C 
ATOM     62  C6  IDS d 301     133.002  12.585  71.475  0.00  0.00     0.206 C 
ATOM     63  O5  IDS d 301     131.310  11.898  69.873  0.00  0.00    -0.340 OA
ATOM     64  O4  IDS d 301     132.985   9.168  71.773  0.00  0.00    -0.348 OA
ATOM     65  O3S IDS d 301     130.387   8.497  65.262  0.00  0.00    -0.572 OA
ATOM     66  O1S IDS d 301     132.370   9.823  65.421  0.00  0.00    -0.572 OA
ATOM     67  C2  IDS d 301     131.800  10.028  68.333  0.00  0.00     0.134 C 
ATOM     68  O3  IDS d 301     132.780   8.071  69.350  0.00  0.00    -0.390 OA
ATOM     69  O2  IDS d 301     131.114   9.210  67.403  0.00  0.00    -0.244 OA
ATOM     70  O2S IDS d 301     132.382   7.555  66.216  0.00  0.00    -0.572 OA
ATOM     71  H   IDS d 301     130.974  11.804  66.720  0.00  0.00     0.212 HD
ATOM     72  H   IDS d 301     133.632  10.602  71.057  0.00  0.00     0.092 H 
ATOM     73  H   IDS d 301     133.384  11.807  69.589  0.00  0.00     0.104 H 
ATOM     74  H   IDS d 301     131.058   8.957  70.031  0.00  0.00     0.091 H 
ATOM     75  H   IDS d 301     129.928  11.072  68.655  0.00  0.00     0.133 H 
ATOM     76  H   IDS d 301     132.751  10.317  67.938  0.00  0.00     0.097 H 
ATOM     77  H   IDS d 301     133.643   8.332  68.993  0.00  0.00     0.210 HD
ATOM     78  O1S SGN d 302     135.351   5.202  70.578  0.00  0.00    -0.296 OA
ATOM     79  C2  SGN d 302     134.617   7.927  73.148  0.00  0.00     0.081 C 
ATOM     80  S2  SGN d 302     135.285  13.224  76.059  0.00  0.00     0.251 S 
ATOM     81  N   SGN d 302     134.535   6.813  72.188  0.00  0.00    -0.210 NA
ATOM     82  C4  SGN d 302     133.834   8.876  75.321  0.00  0.00     0.095 C 
ATOM     83  O6  SGN d 302     134.770  11.792  75.705  0.00  0.00    -0.254 OA
ATOM     84  C5  SGN d 302     133.382  10.156  74.545  0.00  0.00     0.091 C 
ATOM     85  O4S SGN d 302     134.413  13.748  77.074  0.00  0.00    -0.572 OA
ATOM     86  O2S SGN d 302     136.376   7.334  70.601  0.00  0.00    -0.296 OA
ATOM     87  S1  SGN d 302     135.852   6.266  71.395  0.00  0.00     0.156 S 
ATOM     88  O5S SGN d 302     136.619  13.033  76.540  0.00  0.00    -0.572 OA
ATOM     89  O6S SGN d 302     135.232  13.963  74.832  0.00  0.00    -0.572 OA
ATOM     90  C6  SGN d 302     133.445  11.456  75.367  0.00  0.00     0.067 C 
ATOM     91  O3  SGN d 302     134.128   6.486  74.994  0.00  0.00    -0.391 OA
ATOM     92  C3  SGN d 302     133.716   7.681  74.352  0.00  0.00     0.083 C 
ATOM     93  O4  SGN d 302     133.073   8.428  76.438  0.00  0.00    -0.348 OA
ATOM     94  O3S SGN d 302     136.761   5.815  72.408  0.00  0.00    -0.296 OA
ATOM     95  C1  SGN d 302     134.218   9.246  72.437  0.00  0.00     0.150 C 
ATOM     96  O5  SGN d 302     134.208  10.340  73.361  0.00  0.00    -0.349 OA
ATOM     97  H   SGN d 302     134.744   5.563  69.913  0.00  0.00     0.231 HD
ATOM     98  H   SGN d 302     135.623   8.002  73.504  0.00  0.00     0.076 H 
ATOM     99  H   SGN d 302     133.867   7.099  71.471  0.00  0.00     0.140 HD
ATOM    100  H   SGN d 302     134.798   9.166  75.684  0.00  0.00     0.091 H 
ATOM    101  H   SGN d 302     132.356   9.982  74.298  0.00  0.00     0.090 H 
ATOM    102  H   SGN d 302     135.719   7.596  69.936  0.00  0.00     0.231 HD
ATOM    103  H   SGN d 302     133.021  12.252  74.790  0.00  0.00     0.080 H 
ATOM    104  H   SGN d 302     132.896  11.306  76.273  0.00  0.00     0.080 H 
ATOM    105  H   SGN d 302     134.050   5.744  74.375  0.00  0.00     0.210 HD
ATOM    106  H   SGN d 302     132.697   7.582  74.043  0.00  0.00     0.089 H 
ATOM    107  H   SGN d 302     136.352   5.094  72.911  0.00  0.00     0.231 HD
ATOM    108  H   SGN d 302     134.964   9.414  71.689  0.00  0.00     0.131 H 
ATOM    109  C1  IDS d 305     138.842   8.138  84.367  0.00  0.00     0.161 C 
ATOM    110  O1S IDS d 305     141.542   8.380  80.710  0.00  0.00    -0.572 OA
ATOM    111  S   IDS d 305     140.898   9.361  81.538  0.00  0.00     0.252 S 
ATOM    112  C4  IDS d 305     140.248   9.689  86.533  0.00  0.00    -0.005 C 
ATOM    113  O61 IDS d 305     137.389  10.086  88.329  0.00  0.00    -0.646 OA
ATOM    114  O3  IDS d 305     142.034  10.081  84.960  0.00  0.00    -0.393 OA
ATOM    115  O62 IDS d 305     138.288   8.233  88.584  0.00  0.00    -0.646 OA
ATOM    116  O2S IDS d 305     139.596   9.707  81.050  0.00  0.00    -0.572 OA
ATOM    117  O2  IDS d 305     140.713   8.646  82.918  0.00  0.00    -0.244 OA
ATOM    118  O5  IDS d 305     138.530   8.106  85.770  0.00  0.00    -0.343 OA
ATOM    119  C5  IDS d 305     138.723   9.336  86.503  0.00  0.00     0.127 C 
ATOM    120  C3  IDS d 305     140.979   9.186  85.256  0.00  0.00     0.069 C 
ATOM    121  C2  IDS d 305     140.009   9.114  84.058  0.00  0.00     0.132 C 
ATOM    122  C6  IDS d 305     138.098   9.207  87.888  0.00  0.00     0.203 C 
ATOM    123  O3S IDS d 305     141.728  10.500  81.796  0.00  0.00    -0.572 OA
ATOM    124  H   IDS d 305     139.123   7.139  84.107  0.00  0.00     0.133 H 
ATOM    125  H   IDS d 305     140.357  10.751  86.600  0.00  0.00     0.041 H 
ATOM    126  H   IDS d 305     140.686   9.204  87.380  0.00  0.00     0.041 H 
ATOM    127  H   IDS d 305     142.643  10.125  85.714  0.00  0.00     0.210 HD
ATOM    128  H   IDS d 305     138.229  10.153  86.021  0.00  0.00     0.100 H 
ATOM    129  H   IDS d 305     141.361   8.203  85.433  0.00  0.00     0.087 H 
ATOM    130  H   IDS d 305     139.610  10.090  83.874  0.00  0.00     0.097 H 
ENDROOT
TORSDOF 39
ENDMDL
MODEL 50
REMARK VINA RESULT:      -5.2      4.527     13.909
REMARK  0 active torsions:
REMARK  status: ('A' for Active; 'I' for Inactive)
REMARK       I    between atoms: C2_2  and  N_68 
REMARK       I    between atoms: C1_3  and  O4_24 
REMARK       I    between atoms: O1S_5  and  S1_58 
REMARK       I    between atoms: O1_6  and  C1_31 
REMARK       I    between atoms: C4_7  and  O4_36 
REMARK       I    between atoms: C1_8  and  O4_37 
REMARK       I    between atoms: O3_9  and  C3_74 
REMARK       I    between atoms: C5_10  and  C6_32 
REMARK       I    between atoms: C2_11  and  N_20 
REMARK       I    between atoms: C6_12  and  C5_53 
REMARK       I    between atoms: S2_14  and  O6_33 
REMARK       I    between atoms: O3S_16  and  S1_51 
REMARK       I    between atoms: S_17  and  O2_44 
REMARK       I    between atoms: N_20  and  S1_58 
REMARK       I    between atoms: O4_24  and  C4_38 
REMARK       I    between atoms: S_25  and  O2_64 
REMARK       I    between atoms: O2S_27  and  S1_51 
REMARK       I    between atoms: C4_28  and  O4_73 
REMARK       I    between atoms: C3_30  and  O3_62 
REMARK       I    between atoms: O6_33  and  C6_63 
REMARK       I    between atoms: O3_35  and  C3_55 
REMARK       I    between atoms: O4_36  and  C1_84 
REMARK       I    between atoms: O4_37  and  C4_54 
REMARK       I    between atoms: C3_39  and  O3_48 
REMARK       I    between atoms: C5_42  and  C6_63 
REMARK       I    between atoms: O2_44  and  C2_61 
REMARK       I    between atoms: O6_45  and  C6_77 
REMARK       I    between atoms: O6_45  and  S2_82 
REMARK       I    between atoms: C5_49  and  C6_76 
REMARK       I    between atoms: S1_51  and  N_68 
REMARK       I    between atoms: S1_51  and  O1S_81 
REMARK       I    between atoms: O2S_52  and  S1_58 
REMARK       I    between atoms: C2_57  and  O2_64 
REMARK       I    between atoms: S1_58  and  O3S_75 
REMARK       I    between atoms: O3_66  and  C3_67 
REMARK       I    between atoms: O2_69  and  C2_79 
REMARK       I    between atoms: O2_69  and  S_72 
REMARK       I    between atoms: C5_70  and  C6_77 
REMARK       I    between atoms: C1_71  and  O4_73 
ROOT
ATOM      1  O2S IDS d 303     136.698   6.430  80.897  0.00  0.00    -0.572 OA
ATOM      2  C6  IDS d 303     136.666  13.638  81.676  0.00  0.00     0.206 C 
ATOM      3  O1S IDS d 303     134.491   7.265  80.524  0.00  0.00    -0.572 OA
ATOM      4  O3S IDS d 303     136.028   7.108  78.690  0.00  0.00    -0.572 OA
ATOM      5  O4  IDS d 303     137.769  10.788  82.159  0.00  0.00    -0.348 OA
ATOM      6  O61 IDS d 303     137.465  14.552  81.698  0.00  0.00    -0.646 OA
ATOM      7  C4  IDS d 303     137.991  11.530  80.951  0.00  0.00     0.103 C 
ATOM      8  C3  IDS d 303     138.028  10.434  79.848  0.00  0.00     0.094 C 
ATOM      9  O62 IDS d 303     135.750  13.665  82.471  0.00  0.00    -0.646 OA
ATOM     10  O3  IDS d 303     138.552  11.013  78.665  0.00  0.00    -0.390 OA
ATOM     11  C5  IDS d 303     136.808  12.490  80.677  0.00  0.00     0.152 C 
ATOM     12  O2  IDS d 303     136.390   8.754  80.427  0.00  0.00    -0.244 OA
ATOM     13  C1  IDS d 303     135.439  10.802  79.594  0.00  0.00     0.161 C 
ATOM     14  S   IDS d 303     135.867   7.306  80.108  0.00  0.00     0.252 S 
ATOM     15  C2  IDS d 303     136.638   9.819  79.524  0.00  0.00     0.134 C 
ATOM     16  O5  IDS d 303     135.592  11.730  80.661  0.00  0.00    -0.340 OA
ATOM     17  H   IDS d 303     138.879  12.127  80.996  0.00  0.00     0.092 H 
ATOM     18  H   IDS d 303     138.637   9.637  80.219  0.00  0.00     0.091 H 
ATOM     19  H   IDS d 303     137.967  11.728  78.369  0.00  0.00     0.210 HD
ATOM     20  H   IDS d 303     137.011  12.950  79.732  0.00  0.00     0.104 H 
ATOM     21  H   IDS d 303     134.541  10.258  79.798  0.00  0.00     0.133 H 
ATOM     22  H   IDS d 303     136.699   9.500  78.504  0.00  0.00     0.097 H 
ATOM     23  C2  SGN d 304     138.719   9.439  83.974  0.00  0.00     0.081 C 
ATOM     24  C1  SGN d 304     138.823  10.715  83.094  0.00  0.00     0.150 C 
ATOM     25  O3  SGN d 304     137.397   8.371  85.691  0.00  0.00    -0.391 OA
ATOM     26  O3S SGN d 304     140.116   6.298  83.126  0.00  0.00    -0.296 OA
ATOM     27  O5S SGN d 304     141.124  13.814  87.538  0.00  0.00    -0.572 OA
ATOM     28  O2S SGN d 304     141.164   8.436  82.847  0.00  0.00    -0.296 OA
ATOM     29  O4S SGN d 304     138.927  14.471  88.228  0.00  0.00    -0.572 OA
ATOM     30  O4  SGN d 304     136.611  10.576  86.764  0.00  0.00    -0.348 OA
ATOM     31  O6  SGN d 304     139.289  13.406  86.090  0.00  0.00    -0.254 OA
ATOM     32  S1  SGN d 304     140.046   7.591  82.512  0.00  0.00     0.156 S 
ATOM     33  C4  SGN d 304     137.653  10.782  85.796  0.00  0.00     0.095 C 
ATOM     34  O6S SGN d 304     140.044  15.647  86.464  0.00  0.00    -0.572 OA
ATOM     35  N   SGN d 304     138.660   8.269  83.083  0.00  0.00    -0.210 NA
ATOM     36  C5  SGN d 304     137.753  12.032  84.860  0.00  0.00     0.091 C 
ATOM     37  C3  SGN d 304     137.480   9.536  84.888  0.00  0.00     0.083 C 
ATOM     38  C6  SGN d 304     137.971  13.368  85.584  0.00  0.00     0.067 C 
ATOM     39  O5  SGN d 304     138.844  11.885  83.913  0.00  0.00    -0.349 OA
ATOM     40  O1S SGN d 304     139.846   7.510  81.092  0.00  0.00    -0.296 OA
ATOM     41  S2  SGN d 304     139.871  14.398  87.146  0.00  0.00     0.251 S 
ATOM     42  H   SGN d 304     139.573   9.340  84.612  0.00  0.00     0.076 H 
ATOM     43  H   SGN d 304     139.741  10.659  82.547  0.00  0.00     0.131 H 
ATOM     44  H   SGN d 304     137.289   7.593  85.121  0.00  0.00     0.210 HD
ATOM     45  H   SGN d 304     140.251   6.401  84.081  0.00  0.00     0.231 HD
ATOM     46  H   SGN d 304     141.268   8.466  83.811  0.00  0.00     0.231 HD
ATOM     47  H   SGN d 304     138.534  10.952  86.378  0.00  0.00     0.091 H 
ATOM     48  H   SGN d 304     138.114   8.548  82.268  0.00  0.00     0.140 HD
ATOM     49  H   SGN d 304     136.799  12.066  84.379  0.00  0.00     0.090 H 
ATOM     50  H   SGN d 304     136.588   9.621  84.304  0.00  0.00     0.089 H 
ATOM     51  H   SGN d 304     137.826  14.176  84.898  0.00  0.00     0.080 H 
ATOM     52  H   SGN d 304     137.271  13.462  86.388  0.00  0.00     0.080 H 
ATOM     53  H   SGN d 304     140.629   7.116  80.677  0.00  0.00     0.231 HD
ATOM     54  O62 IDS d 301     130.531  10.027  75.175  0.00  0.00    -0.646 OA
ATOM     55  O1  IDS d 301     128.995  12.082  70.859  0.00  0.00    -0.368 OA
ATOM     56  C4  IDS d 301     131.395  12.886  74.072  0.00  0.00     0.103 C 
ATOM     57  C5  IDS d 301     130.140  11.965  73.828  0.00  0.00     0.152 C 
ATOM     58  O61 IDS d 301     128.850  11.139  75.648  0.00  0.00    -0.646 OA
ATOM     59  S   IDS d 301     130.601  15.388  69.777  0.00  0.00     0.252 S 
ATOM     60  C3  IDS d 301     131.851  13.552  72.736  0.00  0.00     0.094 C 
ATOM     61  C1  IDS d 301     130.287  12.050  71.399  0.00  0.00     0.158 C 
ATOM     62  C6  IDS d 301     129.826  10.982  74.948  0.00  0.00     0.206 C 
ATOM     63  O5  IDS d 301     130.322  11.250  72.586  0.00  0.00    -0.340 OA
ATOM     64  O4  IDS d 301     132.505  13.123  74.951  0.00  0.00    -0.348 OA
ATOM     65  O3S IDS d 301     130.987  15.213  68.399  0.00  0.00    -0.572 OA
ATOM     66  O1S IDS d 301     129.174  15.371  69.950  0.00  0.00    -0.572 OA
ATOM     67  C2  IDS d 301     130.720  13.519  71.690  0.00  0.00     0.134 C 
ATOM     68  O3  IDS d 301     132.216  14.901  72.983  0.00  0.00    -0.390 OA
ATOM     69  O2  IDS d 301     131.180  14.123  70.495  0.00  0.00    -0.244 OA
ATOM     70  O2S IDS d 301     131.236  16.520  70.401  0.00  0.00    -0.572 OA
ATOM     71  H   IDS d 301     128.993  12.629  70.057  0.00  0.00     0.212 HD
ATOM     72  H   IDS d 301     130.796  12.869  74.958  0.00  0.00     0.092 H 
ATOM     73  H   IDS d 301     129.296  12.621  73.792  0.00  0.00     0.104 H 
ATOM     74  H   IDS d 301     132.689  13.006  72.353  0.00  0.00     0.091 H 
ATOM     75  H   IDS d 301     130.968  11.603  70.706  0.00  0.00     0.133 H 
ATOM     76  H   IDS d 301     129.875  14.052  72.070  0.00  0.00     0.097 H 
ATOM     77  H   IDS d 301     131.450  15.385  73.329  0.00  0.00     0.210 HD
ATOM     78  O1S SGN d 302     133.759  17.697  75.463  0.00  0.00    -0.296 OA
ATOM     79  C2  SGN d 302     133.349  14.223  76.992  0.00  0.00     0.081 C 
ATOM     80  S2  SGN d 302     130.563   9.655  79.882  0.00  0.00     0.251 S 
ATOM     81  N   SGN d 302     133.738  15.384  76.171  0.00  0.00    -0.210 NA
ATOM     82  C4  SGN d 302     134.079  12.104  78.094  0.00  0.00     0.095 C 
ATOM     83  O6  SGN d 302     131.683  10.494  79.186  0.00  0.00    -0.254 OA
ATOM     84  C5  SGN d 302     132.959  11.360  77.296  0.00  0.00     0.091 C 
ATOM     85  O4S SGN d 302     131.077   8.325  80.054  0.00  0.00    -0.572 OA
ATOM     86  O2S SGN d 302     131.724  16.835  76.308  0.00  0.00    -0.296 OA
ATOM     87  S1  SGN d 302     133.145  16.876  76.463  0.00  0.00     0.156 S 
ATOM     88  O5S SGN d 302     130.328  10.309  81.132  0.00  0.00    -0.572 OA
ATOM     89  O6S SGN d 302     129.437   9.716  78.997  0.00  0.00    -0.572 OA
ATOM     90  C6  SGN d 302     132.374  10.130  78.014  0.00  0.00     0.067 C 
ATOM     91  O3  SGN d 302     135.548  14.032  77.915  0.00  0.00    -0.391 OA
ATOM     92  C3  SGN d 302     134.539  13.303  77.237  0.00  0.00     0.083 C 
ATOM     93  O4  SGN d 302     135.310  11.440  78.359  0.00  0.00    -0.348 OA
ATOM     94  O3S SGN d 302     133.560  17.210  77.795  0.00  0.00    -0.296 OA
ATOM     95  C1  SGN d 302     132.208  13.452  76.281  0.00  0.00     0.150 C 
ATOM     96  O5  SGN d 302     131.860  12.270  77.011  0.00  0.00    -0.349 OA
ATOM     97  H   SGN d 302     133.444  17.428  74.586  0.00  0.00     0.231 HD
ATOM     98  H   SGN d 302     133.007  14.573  77.944  0.00  0.00     0.076 H 
ATOM     99  H   SGN d 302     133.480  15.156  75.211  0.00  0.00     0.140 HD
ATOM    100  H   SGN d 302     133.601  12.282  79.034  0.00  0.00     0.091 H 
ATOM    101  H   SGN d 302     133.437  11.013  76.405  0.00  0.00     0.090 H 
ATOM    102  H   SGN d 302     131.505  16.605  75.391  0.00  0.00     0.231 HD
ATOM    103  H   SGN d 302     131.697   9.632  77.352  0.00  0.00     0.080 H 
ATOM    104  H   SGN d 302     133.184   9.487  78.289  0.00  0.00     0.080 H 
ATOM    105  H   SGN d 302     135.828  14.781  77.367  0.00  0.00     0.210 HD
ATOM    106  H   SGN d 302     134.928  12.940  76.309  0.00  0.00     0.089 H 
ATOM    107  H   SGN d 302     134.529  17.222  77.838  0.00  0.00     0.231 HD
ATOM    108  H   SGN d 302     131.372  14.119  76.257  0.00  0.00     0.131 H 
ATOM    109  C1  IDS d 305     136.780  11.113  88.053  0.00  0.00     0.161 C 
ATOM    110  O1S IDS d 305     133.558  14.229  87.254  0.00  0.00    -0.572 OA
ATOM    111  S   IDS d 305     133.537  12.810  87.473  0.00  0.00     0.252 S 
ATOM    112  C4  IDS d 305     136.055   9.835  90.681  0.00  0.00    -0.005 C 
ATOM    113  O61 IDS d 305     137.961   7.090  90.055  0.00  0.00    -0.646 OA
ATOM    114  O3  IDS d 305     134.169  11.335  90.782  0.00  0.00    -0.393 OA
ATOM    115  O62 IDS d 305     139.042   8.721  90.746  0.00  0.00    -0.646 OA
ATOM    116  O2S IDS d 305     133.639  12.073  86.250  0.00  0.00    -0.572 OA
ATOM    117  O2  IDS d 305     134.830  12.525  88.309  0.00  0.00    -0.244 OA
ATOM    118  O5  IDS d 305     137.638  10.289  88.857  0.00  0.00    -0.343 OA
ATOM    119  C5  IDS d 305     137.001   9.222  89.596  0.00  0.00     0.127 C 
ATOM    120  C3  IDS d 305     135.461  11.197  90.223  0.00  0.00     0.069 C 
ATOM    121  C2  IDS d 305     135.370  11.268  88.684  0.00  0.00     0.132 C 
ATOM    122  C6  IDS d 305     138.067   8.292  90.168  0.00  0.00     0.203 C 
ATOM    123  O3S IDS d 305     132.441  12.392  88.297  0.00  0.00    -0.572 OA
ATOM    124  H   IDS d 305     137.260  12.068  87.996  0.00  0.00     0.133 H 
ATOM    125  H   IDS d 305     135.253   9.151  90.868  0.00  0.00     0.041 H 
ATOM    126  H   IDS d 305     136.629  10.003  91.568  0.00  0.00     0.041 H 
ATOM    127  H   IDS d 305     134.228  11.290  91.749  0.00  0.00     0.210 HD
ATOM    128  H   IDS d 305     136.388   8.623  88.956  0.00  0.00     0.100 H 
ATOM    129  H   IDS d 305     136.099  11.989  90.554  0.00  0.00     0.087 H 
ATOM    130  H   IDS d 305     134.742  10.475  88.335  0.00  0.00     0.097 H 
ENDROOT
TORSDOF 39
ENDMDL
MODEL 51
REMARK VINA RESULT:      -5.2      4.000     13.690
REMARK  0 active torsions:
REMARK  status: ('A' for Active; 'I' for Inactive)
REMARK       I    between atoms: C2_2  and  N_68 
REMARK       I    between atoms: C1_3  and  O4_24 
REMARK       I    between atoms: O1S_5  and  S1_58 
REMARK       I    between atoms: O1_6  and  C1_31 
REMARK       I    between atoms: C4_7  and  O4_36 
REMARK       I    between atoms: C1_8  and  O4_37 
REMARK       I    between atoms: O3_9  and  C3_74 
REMARK       I    between atoms: C5_10  and  C6_32 
REMARK       I    between atoms: C2_11  and  N_20 
REMARK       I    between atoms: C6_12  and  C5_53 
REMARK       I    between atoms: S2_14  and  O6_33 
REMARK       I    between atoms: O3S_16  and  S1_51 
REMARK       I    between atoms: S_17  and  O2_44 
REMARK       I    between atoms: N_20  and  S1_58 
REMARK       I    between atoms: O4_24  and  C4_38 
REMARK       I    between atoms: S_25  and  O2_64 
REMARK       I    between atoms: O2S_27  and  S1_51 
REMARK       I    between atoms: C4_28  and  O4_73 
REMARK       I    between atoms: C3_30  and  O3_62 
REMARK       I    between atoms: O6_33  and  C6_63 
REMARK       I    between atoms: O3_35  and  C3_55 
REMARK       I    between atoms: O4_36  and  C1_84 
REMARK       I    between atoms: O4_37  and  C4_54 
REMARK       I    between atoms: C3_39  and  O3_48 
REMARK       I    between atoms: C5_42  and  C6_63 
REMARK       I    between atoms: O2_44  and  C2_61 
REMARK       I    between atoms: O6_45  and  C6_77 
REMARK       I    between atoms: O6_45  and  S2_82 
REMARK       I    between atoms: C5_49  and  C6_76 
REMARK       I    between atoms: S1_51  and  N_68 
REMARK       I    between atoms: S1_51  and  O1S_81 
REMARK       I    between atoms: O2S_52  and  S1_58 
REMARK       I    between atoms: C2_57  and  O2_64 
REMARK       I    between atoms: S1_58  and  O3S_75 
REMARK       I    between atoms: O3_66  and  C3_67 
REMARK       I    between atoms: O2_69  and  C2_79 
REMARK       I    between atoms: O2_69  and  S_72 
REMARK       I    between atoms: C5_70  and  C6_77 
REMARK       I    between atoms: C1_71  and  O4_73 
ROOT
ATOM      1  O2S IDS d 303     135.699   7.003  81.128  0.00  0.00    -0.572 OA
ATOM      2  C6  IDS d 303     134.855  13.791  78.728  0.00  0.00     0.206 C 
ATOM      3  O1S IDS d 303     134.004   7.051  79.445  0.00  0.00    -0.572 OA
ATOM      4  O3S IDS d 303     136.295   6.729  78.814  0.00  0.00    -0.572 OA
ATOM      5  O4  IDS d 303     135.675  11.653  80.808  0.00  0.00    -0.348 OA
ATOM      6  O61 IDS d 303     135.464  14.842  78.745  0.00  0.00    -0.646 OA
ATOM      7  C4  IDS d 303     136.475  11.998  79.667  0.00  0.00     0.103 C 
ATOM      8  C3  IDS d 303     137.163  10.657  79.282  0.00  0.00     0.094 C 
ATOM      9  O62 IDS d 303     133.655  13.828  78.900  0.00  0.00    -0.646 OA
ATOM     10  O3  IDS d 303     138.212  10.942  78.372  0.00  0.00    -0.390 OA
ATOM     11  C5  IDS d 303     135.578  12.465  78.495  0.00  0.00     0.152 C 
ATOM     12  O2  IDS d 303     135.567   8.879  79.653  0.00  0.00    -0.244 OA
ATOM     13  C1  IDS d 303     135.109  10.217  77.705  0.00  0.00     0.161 C 
ATOM     14  S   IDS d 303     135.382   7.322  79.757  0.00  0.00     0.252 S 
ATOM     15  C2  IDS d 303     136.207   9.623  78.627  0.00  0.00     0.134 C 
ATOM     16  O5  IDS d 303     134.608  11.445  78.221  0.00  0.00    -0.340 OA
ATOM     17  H   IDS d 303     137.163  12.791  79.875  0.00  0.00     0.092 H 
ATOM     18  H   IDS d 303     137.517  10.215  80.190  0.00  0.00     0.091 H 
ATOM     19  H   IDS d 303     137.842  11.339  77.568  0.00  0.00     0.210 HD
ATOM     20  H   IDS d 303     136.235  12.633  77.667  0.00  0.00     0.104 H 
ATOM     21  H   IDS d 303     134.275   9.549  77.664  0.00  0.00     0.133 H 
ATOM     22  H   IDS d 303     136.828   9.021  77.997  0.00  0.00     0.097 H 
ATOM     23  C2  SGN d 304     135.563  11.266  83.228  0.00  0.00     0.081 C 
ATOM     24  C1  SGN d 304     136.057  12.170  82.064  0.00  0.00     0.150 C 
ATOM     25  O3  SGN d 304     133.583  10.496  84.377  0.00  0.00    -0.391 OA
ATOM     26  O3S SGN d 304     137.366   8.514  84.535  0.00  0.00    -0.296 OA
ATOM     27  O5S SGN d 304     135.411  17.030  85.321  0.00  0.00    -0.572 OA
ATOM     28  O2S SGN d 304     138.279  10.645  83.928  0.00  0.00    -0.296 OA
ATOM     29  O4S SGN d 304     133.158  17.262  84.542  0.00  0.00    -0.572 OA
ATOM     30  O4  SGN d 304     132.221  12.635  83.923  0.00  0.00    -0.348 OA
ATOM     31  O6  SGN d 304     134.678  15.703  83.496  0.00  0.00    -0.254 OA
ATOM     32  S1  SGN d 304     137.569   9.471  83.487  0.00  0.00     0.156 S 
ATOM     33  C4  SGN d 304     133.608  12.788  83.579  0.00  0.00     0.095 C 
ATOM     34  O6S SGN d 304     134.986  18.060  83.214  0.00  0.00    -0.572 OA
ATOM     35  N   SGN d 304     136.061   9.901  82.993  0.00  0.00    -0.210 NA
ATOM     36  C5  SGN d 304     134.131  13.648  82.382  0.00  0.00     0.091 C 
ATOM     37  C3  SGN d 304     134.024  11.317  83.309  0.00  0.00     0.083 C 
ATOM     38  C6  SGN d 304     133.848  15.153  82.493  0.00  0.00     0.067 C 
ATOM     39  O5  SGN d 304     135.567  13.502  82.225  0.00  0.00    -0.349 OA
ATOM     40  O1S SGN d 304     138.175   8.887  82.324  0.00  0.00    -0.296 OA
ATOM     41  S2  SGN d 304     134.540  17.100  84.180  0.00  0.00     0.251 S 
ATOM     42  H   SGN d 304     135.939  11.610  84.169  0.00  0.00     0.076 H 
ATOM     43  H   SGN d 304     137.127  12.188  82.098  0.00  0.00     0.131 H 
ATOM     44  H   SGN d 304     133.843   9.577  84.206  0.00  0.00     0.210 HD
ATOM     45  H   SGN d 304     136.957   8.950  85.297  0.00  0.00     0.231 HD
ATOM     46  H   SGN d 304     137.843  11.011  84.713  0.00  0.00     0.231 HD
ATOM     47  H   SGN d 304     134.023  13.365  84.379  0.00  0.00     0.091 H 
ATOM     48  H   SGN d 304     136.028   9.746  81.985  0.00  0.00     0.140 HD
ATOM     49  H   SGN d 304     133.589  13.269  81.541  0.00  0.00     0.090 H 
ATOM     50  H   SGN d 304     133.587  10.969  82.398  0.00  0.00     0.089 H 
ATOM     51  H   SGN d 304     134.054  15.628  81.556  0.00  0.00     0.080 H 
ATOM     52  H   SGN d 304     132.820  15.311  82.747  0.00  0.00     0.080 H 
ATOM     53  H   SGN d 304     139.078   8.605  82.536  0.00  0.00     0.231 HD
ATOM     54  O62 IDS d 301     133.428   6.780  72.268  0.00  0.00    -0.646 OA
ATOM     55  O1  IDS d 301     134.363   6.846  67.335  0.00  0.00    -0.368 OA
ATOM     56  C4  IDS d 301     134.593   9.251  70.634  0.00  0.00     0.103 C 
ATOM     57  C5  IDS d 301     133.723   8.001  70.232  0.00  0.00     0.152 C 
ATOM     58  O61 IDS d 301     131.701   7.492  71.377  0.00  0.00    -0.646 OA
ATOM     59  S   IDS d 301     136.116   9.929  65.885  0.00  0.00     0.252 S 
ATOM     60  C3  IDS d 301     135.663   9.549  69.537  0.00  0.00     0.094 C 
ATOM     61  C1  IDS d 301     135.156   7.336  68.380  0.00  0.00     0.158 C 
ATOM     62  C6  IDS d 301     132.906   7.385  71.361  0.00  0.00     0.206 C 
ATOM     63  O5  IDS d 301     134.587   7.001  69.651  0.00  0.00    -0.340 OA
ATOM     64  O4  IDS d 301     135.035  10.047  71.746  0.00  0.00    -0.348 OA
ATOM     65  O3S IDS d 301     137.196   9.430  65.071  0.00  0.00    -0.572 OA
ATOM     66  O1S IDS d 301     134.826   9.588  65.350  0.00  0.00    -0.572 OA
ATOM     67  C2  IDS d 301     135.282   8.879  68.202  0.00  0.00     0.134 C 
ATOM     68  O3  IDS d 301     135.761  10.951  69.343  0.00  0.00    -0.390 OA
ATOM     69  O2  IDS d 301     136.282   9.167  67.243  0.00  0.00    -0.244 OA
ATOM     70  O2S IDS d 301     136.248  11.328  66.201  0.00  0.00    -0.572 OA
ATOM     71  H   IDS d 301     134.766   7.084  66.485  0.00  0.00     0.212 HD
ATOM     72  H   IDS d 301     133.611   9.361  71.045  0.00  0.00     0.092 H 
ATOM     73  H   IDS d 301     132.998   8.360  69.531  0.00  0.00     0.104 H 
ATOM     74  H   IDS d 301     136.602   9.153  69.864  0.00  0.00     0.091 H 
ATOM     75  H   IDS d 301     136.128   6.889  68.350  0.00  0.00     0.133 H 
ATOM     76  H   IDS d 301     134.338   9.260  67.875  0.00  0.00     0.097 H 
ATOM     77  H   IDS d 301     134.905  11.297  69.047  0.00  0.00     0.210 HD
ATOM     78  O1S SGN d 302     135.559  14.701  70.841  0.00  0.00    -0.296 OA
ATOM     79  C2  SGN d 302     134.578  11.929  73.274  0.00  0.00     0.081 C 
ATOM     80  S2  SGN d 302     130.926   7.966  76.092  0.00  0.00     0.251 S 
ATOM     81  N   SGN d 302     135.284  12.822  72.340  0.00  0.00    -0.210 NA
ATOM     82  C4  SGN d 302     134.709  10.554  75.355  0.00  0.00     0.095 C 
ATOM     83  O6  SGN d 302     132.196   8.803  75.735  0.00  0.00    -0.254 OA
ATOM     84  C5  SGN d 302     134.242   9.322  74.514  0.00  0.00     0.091 C 
ATOM     85  O4S SGN d 302     131.336   6.950  77.022  0.00  0.00    -0.572 OA
ATOM     86  O2S SGN d 302     133.442  13.647  70.889  0.00  0.00    -0.296 OA
ATOM     87  S1  SGN d 302     134.547  14.113  71.667  0.00  0.00     0.156 S 
ATOM     88  O5S SGN d 302     130.016   8.899  76.680  0.00  0.00    -0.572 OA
ATOM     89  O6S SGN d 302     130.457   7.435  74.845  0.00  0.00    -0.572 OA
ATOM     90  C6  SGN d 302     133.430   8.280  75.304  0.00  0.00     0.067 C 
ATOM     91  O3  SGN d 302     135.933  12.639  75.113  0.00  0.00    -0.391 OA
ATOM     92  C3  SGN d 302     135.493  11.489  74.410  0.00  0.00     0.083 C 
ATOM     93  O4  SGN d 302     135.635  10.365  76.420  0.00  0.00    -0.348 OA
ATOM     94  O3S SGN d 302     134.156  14.956  72.759  0.00  0.00    -0.296 OA
ATOM     95  C1  SGN d 302     134.048  10.695  72.501  0.00  0.00     0.150 C 
ATOM     96  O5  SGN d 302     133.425   9.763  73.393  0.00  0.00    -0.349 OA
ATOM     97  H   SGN d 302     135.785  14.090  70.121  0.00  0.00     0.231 HD
ATOM     98  H   SGN d 302     133.756  12.461  73.706  0.00  0.00     0.076 H 
ATOM     99  H   SGN d 302     135.601  12.237  71.566  0.00  0.00     0.140 HD
ATOM    100  H   SGN d 302     133.789  10.890  75.785  0.00  0.00     0.091 H 
ATOM    101  H   SGN d 302     135.145   8.848  74.192  0.00  0.00     0.090 H 
ATOM    102  H   SGN d 302     133.767  13.084  70.168  0.00  0.00     0.231 HD
ATOM    103  H   SGN d 302     133.248   7.433  74.675  0.00  0.00     0.080 H 
ATOM    104  H   SGN d 302     133.996   8.000  76.168  0.00  0.00     0.080 H 
ATOM    105  H   SGN d 302     136.424  13.219  74.510  0.00  0.00     0.210 HD
ATOM    106  H   SGN d 302     136.342  10.965  74.026  0.00  0.00     0.089 H 
ATOM    107  H   SGN d 302     134.944  15.240  73.247  0.00  0.00     0.231 HD
ATOM    108  H   SGN d 302     133.323  11.070  71.809  0.00  0.00     0.131 H 
ATOM    109  C1  IDS d 305     131.636  13.582  84.781  0.00  0.00     0.161 C 
ATOM    110  O1S IDS d 305     129.195  15.294  81.340  0.00  0.00    -0.572 OA
ATOM    111  S   IDS d 305     129.136  14.070  82.089  0.00  0.00     0.252 S 
ATOM    112  C4  IDS d 305     129.674  13.074  87.009  0.00  0.00    -0.005 C 
ATOM    113  O61 IDS d 305     131.762  10.888  88.565  0.00  0.00    -0.646 OA
ATOM    114  O3  IDS d 305     127.955  13.965  85.570  0.00  0.00    -0.393 OA
ATOM    115  O62 IDS d 305     132.206  12.881  88.937  0.00  0.00    -0.646 OA
ATOM    116  O2S IDS d 305     129.925  13.034  81.493  0.00  0.00    -0.572 OA
ATOM    117  O2  IDS d 305     129.784  14.426  83.469  0.00  0.00    -0.244 OA
ATOM    118  O5  IDS d 305     131.965  13.322  86.155  0.00  0.00    -0.343 OA
ATOM    119  C5  IDS d 305     131.090  12.420  86.869  0.00  0.00     0.127 C 
ATOM    120  C3  IDS d 305     129.350  14.005  85.806  0.00  0.00     0.069 C 
ATOM    121  C2  IDS d 305     130.103  13.549  84.538  0.00  0.00     0.132 C 
ATOM    122  C6  IDS d 305     131.725  12.044  88.204  0.00  0.00     0.203 C 
ATOM    123  O3S IDS d 305     127.793  13.663  82.382  0.00  0.00    -0.572 OA
ATOM    124  H   IDS d 305     132.017  14.560  84.568  0.00  0.00     0.133 H 
ATOM    125  H   IDS d 305     128.938  12.299  87.056  0.00  0.00     0.041 H 
ATOM    126  H   IDS d 305     129.666  13.666  87.900  0.00  0.00     0.041 H 
ATOM    127  H   IDS d 305     127.484  14.251  86.368  0.00  0.00     0.210 HD
ATOM    128  H   IDS d 305     130.954  11.507  86.329  0.00  0.00     0.100 H 
ATOM    129  H   IDS d 305     129.662  15.001  86.037  0.00  0.00     0.087 H 
ATOM    130  H   IDS d 305     129.808  12.549  84.299  0.00  0.00     0.097 H 
ENDROOT
TORSDOF 39
ENDMDL
MODEL 52
REMARK VINA RESULT:      -5.2      3.179      5.415
REMARK  0 active torsions:
REMARK  status: ('A' for Active; 'I' for Inactive)
REMARK       I    between atoms: C2_2  and  N_68 
REMARK       I    between atoms: C1_3  and  O4_24 
REMARK       I    between atoms: O1S_5  and  S1_58 
REMARK       I    between atoms: O1_6  and  C1_31 
REMARK       I    between atoms: C4_7  and  O4_36 
REMARK       I    between atoms: C1_8  and  O4_37 
REMARK       I    between atoms: O3_9  and  C3_74 
REMARK       I    between atoms: C5_10  and  C6_32 
REMARK       I    between atoms: C2_11  and  N_20 
REMARK       I    between atoms: C6_12  and  C5_53 
REMARK       I    between atoms: S2_14  and  O6_33 
REMARK       I    between atoms: O3S_16  and  S1_51 
REMARK       I    between atoms: S_17  and  O2_44 
REMARK       I    between atoms: N_20  and  S1_58 
REMARK       I    between atoms: O4_24  and  C4_38 
REMARK       I    between atoms: S_25  and  O2_64 
REMARK       I    between atoms: O2S_27  and  S1_51 
REMARK       I    between atoms: C4_28  and  O4_73 
REMARK       I    between atoms: C3_30  and  O3_62 
REMARK       I    between atoms: O6_33  and  C6_63 
REMARK       I    between atoms: O3_35  and  C3_55 
REMARK       I    between atoms: O4_36  and  C1_84 
REMARK       I    between atoms: O4_37  and  C4_54 
REMARK       I    between atoms: C3_39  and  O3_48 
REMARK       I    between atoms: C5_42  and  C6_63 
REMARK       I    between atoms: O2_44  and  C2_61 
REMARK       I    between atoms: O6_45  and  C6_77 
REMARK       I    between atoms: O6_45  and  S2_82 
REMARK       I    between atoms: C5_49  and  C6_76 
REMARK       I    between atoms: S1_51  and  N_68 
REMARK       I    between atoms: S1_51  and  O1S_81 
REMARK       I    between atoms: O2S_52  and  S1_58 
REMARK       I    between atoms: C2_57  and  O2_64 
REMARK       I    between atoms: S1_58  and  O3S_75 
REMARK       I    between atoms: O3_66  and  C3_67 
REMARK       I    between atoms: O2_69  and  C2_79 
REMARK       I    between atoms: O2_69  and  S_72 
REMARK       I    between atoms: C5_70  and  C6_77 
REMARK       I    between atoms: C1_71  and  O4_73 
ROOT
ATOM      1  O2S IDS d 303     130.302  14.232  79.673  0.00  0.00    -0.572 OA
ATOM      2  C6  IDS d 303     136.645  11.482  77.490  0.00  0.00     0.206 C 
ATOM      3  O1S IDS d 303     130.942  12.447  81.125  0.00  0.00    -0.572 OA
ATOM      4  O3S IDS d 303     131.665  14.683  81.602  0.00  0.00    -0.572 OA
ATOM      5  O4  IDS d 303     133.976  12.993  77.084  0.00  0.00    -0.348 OA
ATOM      6  O61 IDS d 303     137.575  11.800  76.778  0.00  0.00    -0.646 OA
ATOM      7  C4  IDS d 303     135.135  13.579  77.696  0.00  0.00     0.103 C 
ATOM      8  C3  IDS d 303     134.540  14.553  78.753  0.00  0.00     0.094 C 
ATOM      9  O62 IDS d 303     136.264  10.331  77.446  0.00  0.00    -0.646 OA
ATOM     10  O3  IDS d 303     135.575  15.413  79.196  0.00  0.00    -0.390 OA
ATOM     11  C5  IDS d 303     135.977  12.498  78.416  0.00  0.00     0.152 C 
ATOM     12  O2  IDS d 303     132.578  13.502  79.697  0.00  0.00    -0.244 OA
ATOM     13  C1  IDS d 303     134.658  12.555  80.454  0.00  0.00     0.161 C 
ATOM     14  S   IDS d 303     131.301  13.730  80.584  0.00  0.00     0.252 S 
ATOM     15  C2  IDS d 303     133.925  13.841  79.990  0.00  0.00     0.134 C 
ATOM     16  O5  IDS d 303     135.135  11.802  79.345  0.00  0.00    -0.340 OA
ATOM     17  H   IDS d 303     135.776  14.056  76.983  0.00  0.00     0.092 H 
ATOM     18  H   IDS d 303     133.742  15.083  78.276  0.00  0.00     0.091 H 
ATOM     19  H   IDS d 303     136.272  14.888  79.620  0.00  0.00     0.210 HD
ATOM     20  H   IDS d 303     136.775  13.017  78.902  0.00  0.00     0.104 H 
ATOM     21  H   IDS d 303     133.972  11.919  80.973  0.00  0.00     0.133 H 
ATOM     22  H   IDS d 303     134.017  14.540  80.794  0.00  0.00     0.097 H 
ATOM     23  C2  SGN d 304     132.176  13.187  75.429  0.00  0.00     0.081 C 
ATOM     24  C1  SGN d 304     133.690  13.334  75.745  0.00  0.00     0.150 C 
ATOM     25  O3  SGN d 304     130.396  11.573  75.183  0.00  0.00    -0.391 OA
ATOM     26  O3S SGN d 304     129.769  15.738  75.915  0.00  0.00    -0.296 OA
ATOM     27  O5S SGN d 304     135.174  11.741  70.277  0.00  0.00    -0.572 OA
ATOM     28  O2S SGN d 304     131.968  16.020  75.003  0.00  0.00    -0.296 OA
ATOM     29  O4S SGN d 304     135.255   9.447  70.959  0.00  0.00    -0.572 OA
ATOM     30  O4  SGN d 304     131.932   9.677  74.361  0.00  0.00    -0.348 OA
ATOM     31  O6  SGN d 304     135.112  11.222  72.591  0.00  0.00    -0.254 OA
ATOM     32  S1  SGN d 304     131.179  15.600  76.134  0.00  0.00     0.156 S 
ATOM     33  C4  SGN d 304     132.607  10.945  74.407  0.00  0.00     0.095 C 
ATOM     34  O6S SGN d 304     137.128  10.891  71.343  0.00  0.00    -0.572 OA
ATOM     35  N   SGN d 304     131.423  13.996  76.402  0.00  0.00    -0.210 NA
ATOM     36  C5  SGN d 304     134.117  11.128  74.773  0.00  0.00     0.091 C 
ATOM     37  C3  SGN d 304     131.776  11.698  75.478  0.00  0.00     0.083 C 
ATOM     38  C6  SGN d 304     135.105  10.479  73.793  0.00  0.00     0.067 C 
ATOM     39  O5  SGN d 304     134.466  12.534  74.852  0.00  0.00    -0.349 OA
ATOM     40  O1S SGN d 304     131.607  16.235  77.348  0.00  0.00    -0.296 OA
ATOM     41  S2  SGN d 304     135.705  10.789  71.212  0.00  0.00     0.251 S 
ATOM     42  H   SGN d 304     131.952  13.540  74.444  0.00  0.00     0.076 H 
ATOM     43  H   SGN d 304     133.953  14.362  75.608  0.00  0.00     0.131 H 
ATOM     44  H   SGN d 304     129.878  12.045  75.854  0.00  0.00     0.210 HD
ATOM     45  H   SGN d 304     129.526  15.295  75.087  0.00  0.00     0.231 HD
ATOM     46  H   SGN d 304     131.651  15.572  74.204  0.00  0.00     0.231 HD
ATOM     47  H   SGN d 304     132.654  11.264  73.386  0.00  0.00     0.091 H 
ATOM     48  H   SGN d 304     131.916  13.919  77.292  0.00  0.00     0.140 HD
ATOM     49  H   SGN d 304     134.211  10.632  75.716  0.00  0.00     0.090 H 
ATOM     50  H   SGN d 304     131.962  11.290  76.449  0.00  0.00     0.089 H 
ATOM     51  H   SGN d 304     136.086  10.477  74.220  0.00  0.00     0.080 H 
ATOM     52  H   SGN d 304     134.808   9.470  73.594  0.00  0.00     0.080 H 
ATOM     53  H   SGN d 304     131.493  17.195  77.269  0.00  0.00     0.231 HD
ATOM     54  O62 IDS d 301     134.989  11.359  86.986  0.00  0.00    -0.646 OA
ATOM     55  O1  IDS d 301     138.296  11.829  90.735  0.00  0.00    -0.368 OA
ATOM     56  C4  IDS d 301     138.134  11.711  86.651  0.00  0.00     0.103 C 
ATOM     57  C5  IDS d 301     137.225  11.159  87.812  0.00  0.00     0.152 C 
ATOM     58  O61 IDS d 301     135.632   9.438  87.414  0.00  0.00    -0.646 OA
ATOM     59  S   IDS d 301     141.936  12.606  89.826  0.00  0.00     0.252 S 
ATOM     60  C3  IDS d 301     139.299  12.574  87.231  0.00  0.00     0.094 C 
ATOM     61  C1  IDS d 301     138.223  12.555  89.540  0.00  0.00     0.158 C 
ATOM     62  C6  IDS d 301     135.866  10.625  87.378  0.00  0.00     0.206 C 
ATOM     63  O5  IDS d 301     137.049  12.199  88.799  0.00  0.00    -0.340 OA
ATOM     64  O4  IDS d 301     138.162  12.027  85.250  0.00  0.00    -0.348 OA
ATOM     65  O3S IDS d 301     142.333  13.705  90.670  0.00  0.00    -0.572 OA
ATOM     66  O1S IDS d 301     141.682  11.406  90.577  0.00  0.00    -0.572 OA
ATOM     67  C2  IDS d 301     139.519  12.266  88.725  0.00  0.00     0.134 C 
ATOM     68  O3  IDS d 301     140.494  12.293  86.517  0.00  0.00    -0.390 OA
ATOM     69  O2  IDS d 301     140.575  13.075  89.210  0.00  0.00    -0.244 OA
ATOM     70  O2S IDS d 301     142.823  12.402  88.711  0.00  0.00    -0.572 OA
ATOM     71  H   IDS d 301     139.096  12.084  91.221  0.00  0.00     0.212 HD
ATOM     72  H   IDS d 301     137.717  10.772  86.352  0.00  0.00     0.092 H 
ATOM     73  H   IDS d 301     137.740  10.311  88.212  0.00  0.00     0.104 H 
ATOM     74  H   IDS d 301     139.040  13.607  87.128  0.00  0.00     0.091 H 
ATOM     75  H   IDS d 301     138.151  13.602  89.745  0.00  0.00     0.133 H 
ATOM     76  H   IDS d 301     139.767  11.232  88.838  0.00  0.00     0.097 H 
ATOM     77  H   IDS d 301     140.718  11.355  86.618  0.00  0.00     0.210 HD
ATOM     78  O1S SGN d 302     142.334  11.265  83.068  0.00  0.00    -0.296 OA
ATOM     79  C2  SGN d 302     138.519  11.233  82.941  0.00  0.00     0.081 C 
ATOM     80  S2  SGN d 302     132.903   8.967  83.490  0.00  0.00     0.251 S 
ATOM     81  N   SGN d 302     139.939  11.606  83.063  0.00  0.00    -0.210 NA
ATOM     82  C4  SGN d 302     136.248  11.886  82.133  0.00  0.00     0.095 C 
ATOM     83  O6  SGN d 302     134.070   9.946  83.140  0.00  0.00    -0.254 OA
ATOM     84  C5  SGN d 302     135.723  11.681  83.591  0.00  0.00     0.091 C 
ATOM     85  O4S SGN d 302     131.677   9.700  83.341  0.00  0.00    -0.572 OA
ATOM     86  O2S SGN d 302     140.981   9.499  83.873  0.00  0.00    -0.296 OA
ATOM     87  S1  SGN d 302     141.133  10.510  82.873  0.00  0.00     0.156 S 
ATOM     88  O5S SGN d 302     133.013   7.901  82.543  0.00  0.00    -0.572 OA
ATOM     89  O6S SGN d 302     133.151   8.546  84.838  0.00  0.00    -0.572 OA
ATOM     90  C6  SGN d 302     134.254  11.232  83.683  0.00  0.00     0.067 C 
ATOM     91  O3  SGN d 302     138.268  12.511  80.934  0.00  0.00    -0.391 OA
ATOM     92  C3  SGN d 302     137.726  12.322  82.230  0.00  0.00     0.083 C 
ATOM     93  O4  SGN d 302     135.689  12.915  81.324  0.00  0.00    -0.348 OA
ATOM     94  O3S SGN d 302     140.996  10.009  81.535  0.00  0.00    -0.296 OA
ATOM     95  C1  SGN d 302     137.935  10.973  84.353  0.00  0.00     0.150 C 
ATOM     96  O5  SGN d 302     136.533  10.687  84.279  0.00  0.00    -0.349 OA
ATOM     97  H   SGN d 302     142.375  11.578  83.985  0.00  0.00     0.231 HD
ATOM     98  H   SGN d 302     138.446  10.341  82.353  0.00  0.00     0.076 H 
ATOM     99  H   SGN d 302     140.055  11.996  83.999  0.00  0.00     0.140 HD
ATOM    100  H   SGN d 302     136.005  10.950  81.676  0.00  0.00     0.091 H 
ATOM    101  H   SGN d 302     135.793  12.645  84.049  0.00  0.00     0.090 H 
ATOM    102  H   SGN d 302     141.083   9.896  84.753  0.00  0.00     0.231 HD
ATOM    103  H   SGN d 302     133.958  11.220  84.711  0.00  0.00     0.080 H 
ATOM    104  H   SGN d 302     133.658  11.921  83.121  0.00  0.00     0.080 H 
ATOM    105  H   SGN d 302     139.195  12.784  81.008  0.00  0.00     0.210 HD
ATOM    106  H   SGN d 302     137.783  13.242  82.774  0.00  0.00     0.089 H 
ATOM    107  H   SGN d 302     141.109  10.737  80.905  0.00  0.00     0.231 HD
ATOM    108  H   SGN d 302     138.456  10.121  84.735  0.00  0.00     0.131 H 
ATOM    109  C1  IDS d 305     131.969   8.943  73.162  0.00  0.00     0.161 C 
ATOM    110  O1S IDS d 305     134.742   5.865  75.050  0.00  0.00    -0.572 OA
ATOM    111  S   IDS d 305     133.352   6.185  75.214  0.00  0.00     0.252 S 
ATOM    112  C4  IDS d 305     129.728   7.371  71.906  0.00  0.00    -0.005 C 
ATOM    113  O61 IDS d 305     127.665  10.072  71.822  0.00  0.00    -0.646 OA
ATOM    114  O3  IDS d 305     130.843   5.366  72.653  0.00  0.00    -0.393 OA
ATOM    115  O62 IDS d 305     129.041  10.020  70.270  0.00  0.00    -0.646 OA
ATOM    116  O2S IDS d 305     133.140   7.159  76.242  0.00  0.00    -0.572 OA
ATOM    117  O2  IDS d 305     132.937   6.833  73.851  0.00  0.00    -0.244 OA
ATOM    118  O5  IDS d 305     131.015   9.442  72.211  0.00  0.00    -0.343 OA
ATOM    119  C5  IDS d 305     129.681   8.889  72.282  0.00  0.00     0.127 C 
ATOM    120  C3  IDS d 305     131.080   6.719  72.313  0.00  0.00     0.069 C 
ATOM    121  C2  IDS d 305     131.705   7.454  73.517  0.00  0.00     0.132 C 
ATOM    122  C6  IDS d 305     128.742   9.709  71.403  0.00  0.00     0.203 C 
ATOM    123  O3S IDS d 305     132.528   5.020  75.359  0.00  0.00    -0.572 OA
ATOM    124  H   IDS d 305     132.927   9.042  72.696  0.00  0.00     0.133 H 
ATOM    125  H   IDS d 305     128.932   6.864  72.411  0.00  0.00     0.041 H 
ATOM    126  H   IDS d 305     129.624   7.286  70.844  0.00  0.00     0.041 H 
ATOM    127  H   IDS d 305     130.450   4.906  71.896  0.00  0.00     0.210 HD
ATOM    128  H   IDS d 305     129.294   8.947  73.278  0.00  0.00     0.100 H 
ATOM    129  H   IDS d 305     131.763   6.784  71.493  0.00  0.00     0.087 H 
ATOM    130  H   IDS d 305     131.028   7.407  74.344  0.00  0.00     0.097 H 
ENDROOT
TORSDOF 39
ENDMDL
MODEL 53
REMARK VINA RESULT:      -5.2      4.083      6.053
REMARK  0 active torsions:
REMARK  status: ('A' for Active; 'I' for Inactive)
REMARK       I    between atoms: C2_2  and  N_68 
REMARK       I    between atoms: C1_3  and  O4_24 
REMARK       I    between atoms: O1S_5  and  S1_58 
REMARK       I    between atoms: O1_6  and  C1_31 
REMARK       I    between atoms: C4_7  and  O4_36 
REMARK       I    between atoms: C1_8  and  O4_37 
REMARK       I    between atoms: O3_9  and  C3_74 
REMARK       I    between atoms: C5_10  and  C6_32 
REMARK       I    between atoms: C2_11  and  N_20 
REMARK       I    between atoms: C6_12  and  C5_53 
REMARK       I    between atoms: S2_14  and  O6_33 
REMARK       I    between atoms: O3S_16  and  S1_51 
REMARK       I    between atoms: S_17  and  O2_44 
REMARK       I    between atoms: N_20  and  S1_58 
REMARK       I    between atoms: O4_24  and  C4_38 
REMARK       I    between atoms: S_25  and  O2_64 
REMARK       I    between atoms: O2S_27  and  S1_51 
REMARK       I    between atoms: C4_28  and  O4_73 
REMARK       I    between atoms: C3_30  and  O3_62 
REMARK       I    between atoms: O6_33  and  C6_63 
REMARK       I    between atoms: O3_35  and  C3_55 
REMARK       I    between atoms: O4_36  and  C1_84 
REMARK       I    between atoms: O4_37  and  C4_54 
REMARK       I    between atoms: C3_39  and  O3_48 
REMARK       I    between atoms: C5_42  and  C6_63 
REMARK       I    between atoms: O2_44  and  C2_61 
REMARK       I    between atoms: O6_45  and  C6_77 
REMARK       I    between atoms: O6_45  and  S2_82 
REMARK       I    between atoms: C5_49  and  C6_76 
REMARK       I    between atoms: S1_51  and  N_68 
REMARK       I    between atoms: S1_51  and  O1S_81 
REMARK       I    between atoms: O2S_52  and  S1_58 
REMARK       I    between atoms: C2_57  and  O2_64 
REMARK       I    between atoms: S1_58  and  O3S_75 
REMARK       I    between atoms: O3_66  and  C3_67 
REMARK       I    between atoms: O2_69  and  C2_79 
REMARK       I    between atoms: O2_69  and  S_72 
REMARK       I    between atoms: C5_70  and  C6_77 
REMARK       I    between atoms: C1_71  and  O4_73 
ROOT
ATOM      1  O2S IDS d 303     136.965   5.068  78.487  0.00  0.00    -0.572 OA
ATOM      2  C6  IDS d 303     132.146   9.058  74.824  0.00  0.00     0.206 C 
ATOM      3  O1S IDS d 303     137.427   7.387  78.824  0.00  0.00    -0.572 OA
ATOM      4  O3S IDS d 303     135.910   6.252  80.294  0.00  0.00    -0.572 OA
ATOM      5  O4  IDS d 303     133.786   6.496  75.392  0.00  0.00    -0.348 OA
ATOM      6  O61 IDS d 303     131.058   8.915  74.303  0.00  0.00    -0.646 OA
ATOM      7  C4  IDS d 303     132.617   6.871  76.136  0.00  0.00     0.103 C 
ATOM      8  C3  IDS d 303     132.913   6.352  77.572  0.00  0.00     0.094 C 
ATOM      9  O62 IDS d 303     132.970   9.731  74.243  0.00  0.00    -0.646 OA
ATOM     10  O3  IDS d 303     131.706   6.385  78.314  0.00  0.00    -0.390 OA
ATOM     11  C5  IDS d 303     132.465   8.412  76.172  0.00  0.00     0.152 C 
ATOM     12  O2  IDS d 303     135.270   6.681  78.000  0.00  0.00    -0.244 OA
ATOM     13  C1  IDS d 303     133.972   8.708  78.054  0.00  0.00     0.161 C 
ATOM     14  S   IDS d 303     136.460   6.331  78.965  0.00  0.00     0.252 S 
ATOM     15  C2  IDS d 303     133.984   7.181  78.334  0.00  0.00     0.134 C 
ATOM     16  O5  IDS d 303     133.675   8.982  76.690  0.00  0.00    -0.340 OA
ATOM     17  H   IDS d 303     131.717   6.475  75.712  0.00  0.00     0.092 H 
ATOM     18  H   IDS d 303     133.306   5.362  77.472  0.00  0.00     0.091 H 
ATOM     19  H   IDS d 303     131.391   7.300  78.377  0.00  0.00     0.210 HD
ATOM     20  H   IDS d 303     131.622   8.613  76.799  0.00  0.00     0.104 H 
ATOM     21  H   IDS d 303     134.945   9.113  78.235  0.00  0.00     0.133 H 
ATOM     22  H   IDS d 303     133.746   7.069  79.371  0.00  0.00     0.097 H 
ATOM     23  C2  SGN d 304     134.999   4.750  74.169  0.00  0.00     0.081 C 
ATOM     24  C1  SGN d 304     133.652   5.484  74.417  0.00  0.00     0.150 C 
ATOM     25  O3  SGN d 304     137.225   5.034  73.275  0.00  0.00    -0.391 OA
ATOM     26  O3S SGN d 304     136.119   1.938  76.006  0.00  0.00    -0.296 OA
ATOM     27  O5S SGN d 304     132.048   4.831  68.792  0.00  0.00    -0.572 OA
ATOM     28  O2S SGN d 304     133.889   2.314  75.212  0.00  0.00    -0.296 OA
ATOM     29  O4S SGN d 304     133.084   6.919  68.246  0.00  0.00    -0.572 OA
ATOM     30  O4  SGN d 304     136.534   6.794  71.526  0.00  0.00    -0.348 OA
ATOM     31  O6  SGN d 304     132.739   6.270  70.547  0.00  0.00    -0.254 OA
ATOM     32  S1  SGN d 304     134.970   2.794  76.036  0.00  0.00     0.156 S 
ATOM     33  C4  SGN d 304     135.399   6.169  72.148  0.00  0.00     0.095 C 
ATOM     34  O6S SGN d 304     130.875   6.870  69.171  0.00  0.00    -0.572 OA
ATOM     35  N   SGN d 304     135.491   4.243  75.461  0.00  0.00    -0.210 NA
ATOM     36  C5  SGN d 304     134.050   6.897  72.458  0.00  0.00     0.091 C 
ATOM     37  C3  SGN d 304     136.002   5.714  73.503  0.00  0.00     0.083 C 
ATOM     38  C6  SGN d 304     133.280   7.387  71.223  0.00  0.00     0.067 C 
ATOM     39  O5  SGN d 304     133.150   6.031  73.197  0.00  0.00    -0.349 OA
ATOM     40  O1S SGN d 304     134.534   3.075  77.375  0.00  0.00    -0.296 OA
ATOM     41  S2  SGN d 304     132.155   6.230  69.099  0.00  0.00     0.251 S 
ATOM     42  H   SGN d 304     134.870   3.922  73.503  0.00  0.00     0.076 H 
ATOM     43  H   SGN d 304     132.953   4.764  74.789  0.00  0.00     0.131 H 
ATOM     44  H   SGN d 304     137.600   4.751  74.123  0.00  0.00     0.210 HD
ATOM     45  H   SGN d 304     136.377   1.775  75.085  0.00  0.00     0.231 HD
ATOM     46  H   SGN d 304     134.219   2.135  74.318  0.00  0.00     0.231 HD
ATOM     47  H   SGN d 304     135.039   5.475  71.417  0.00  0.00     0.091 H 
ATOM     48  H   SGN d 304     135.247   4.942  76.163  0.00  0.00     0.140 HD
ATOM     49  H   SGN d 304     134.349   7.753  73.025  0.00  0.00     0.090 H 
ATOM     50  H   SGN d 304     136.186   6.559  74.131  0.00  0.00     0.089 H 
ATOM     51  H   SGN d 304     132.489   8.040  71.529  0.00  0.00     0.080 H 
ATOM     52  H   SGN d 304     133.941   7.920  70.572  0.00  0.00     0.080 H 
ATOM     53  H   SGN d 304     134.208   2.260  77.788  0.00  0.00     0.231 HD
ATOM     54  O62 IDS d 301     135.360  12.800  83.107  0.00  0.00    -0.646 OA
ATOM     55  O1  IDS d 301     132.901  15.712  86.376  0.00  0.00    -0.368 OA
ATOM     56  C4  IDS d 301     132.364  13.828  82.786  0.00  0.00     0.103 C 
ATOM     57  C5  IDS d 301     133.614  14.366  83.580  0.00  0.00     0.152 C 
ATOM     58  O61 IDS d 301     135.693  14.747  82.488  0.00  0.00    -0.646 OA
ATOM     59  S   IDS d 301     129.183  16.380  85.735  0.00  0.00     0.252 S 
ATOM     60  C3  IDS d 301     131.066  13.983  83.639  0.00  0.00     0.094 C 
ATOM     61  C1  IDS d 301     132.439  14.574  85.702  0.00  0.00     0.158 C 
ATOM     62  C6  IDS d 301     134.969  13.940  83.028  0.00  0.00     0.206 C 
ATOM     63  O5  IDS d 301     133.498  13.957  84.961  0.00  0.00    -0.340 OA
ATOM     64  O4  IDS d 301     131.954  12.951  81.725  0.00  0.00    -0.348 OA
ATOM     65  O3S IDS d 301     128.509  16.125  86.984  0.00  0.00    -0.572 OA
ATOM     66  O1S IDS d 301     130.058  17.519  85.810  0.00  0.00    -0.572 OA
ATOM     67  C2  IDS d 301     131.271  15.011  84.769  0.00  0.00     0.134 C 
ATOM     68  O3  IDS d 301     130.003  14.414  82.804  0.00  0.00    -0.390 OA
ATOM     69  O2  IDS d 301     130.075  15.112  85.520  0.00  0.00    -0.244 OA
ATOM     70  O2S IDS d 301     128.286  16.425  84.609  0.00  0.00    -0.572 OA
ATOM     71  H   IDS d 301     132.169  16.113  86.871  0.00  0.00     0.212 HD
ATOM     72  H   IDS d 301     133.084  14.207  82.091  0.00  0.00     0.092 H 
ATOM     73  H   IDS d 301     133.595  15.430  83.474  0.00  0.00     0.104 H 
ATOM     74  H   IDS d 301     130.833  13.034  84.077  0.00  0.00     0.091 H 
ATOM     75  H   IDS d 301     132.089  13.844  86.402  0.00  0.00     0.133 H 
ATOM     76  H   IDS d 301     131.517  15.960  84.340  0.00  0.00     0.097 H 
ATOM     77  H   IDS d 301     130.226  15.274  82.414  0.00  0.00     0.210 HD
ATOM     78  O1S SGN d 302     128.200  14.437  79.185  0.00  0.00    -0.296 OA
ATOM     79  C2  SGN d 302     131.567  12.643  79.308  0.00  0.00     0.081 C 
ATOM     80  S2  SGN d 302     137.610  12.021  79.030  0.00  0.00     0.251 S 
ATOM     81  N   SGN d 302     130.172  13.072  79.506  0.00  0.00    -0.210 NA
ATOM     82  C4  SGN d 302     133.152  10.727  79.077  0.00  0.00     0.095 C 
ATOM     83  O6  SGN d 302     136.094  11.656  79.134  0.00  0.00    -0.254 OA
ATOM     84  C5  SGN d 302     133.965  11.317  80.274  0.00  0.00     0.091 C 
ATOM     85  O4S SGN d 302     138.353  10.832  79.342  0.00  0.00    -0.572 OA
ATOM     86  O2S SGN d 302     130.301  15.522  79.101  0.00  0.00    -0.296 OA
ATOM     87  S1  SGN d 302     129.553  14.363  78.722  0.00  0.00     0.156 S 
ATOM     88  O5S SGN d 302     137.802  12.438  77.675  0.00  0.00    -0.572 OA
ATOM     89  O6S SGN d 302     137.812  13.080  79.976  0.00  0.00    -0.572 OA
ATOM     90  C6  SGN d 302     135.475  11.021  80.228  0.00  0.00     0.067 C 
ATOM     91  O3  SGN d 302     130.882  10.628  78.214  0.00  0.00    -0.391 OA
ATOM     92  C3  SGN d 302     131.674  11.123  79.281  0.00  0.00     0.083 C 
ATOM     93  O4  SGN d 302     133.060   9.315  78.919  0.00  0.00    -0.348 OA
ATOM     94  O3S SGN d 302     129.651  14.058  77.323  0.00  0.00    -0.296 OA
ATOM     95  C1  SGN d 302     132.448  13.226  80.442  0.00  0.00     0.150 C 
ATOM     96  O5  SGN d 302     133.798  12.762  80.327  0.00  0.00    -0.349 OA
ATOM     97  H   SGN d 302     128.194  14.646  80.133  0.00  0.00     0.231 HD
ATOM     98  H   SGN d 302     131.910  13.010  78.362  0.00  0.00     0.076 H 
ATOM     99  H   SGN d 302     130.069  13.266  80.502  0.00  0.00     0.140 HD
ATOM    100  H   SGN d 302     133.688  11.110  78.234  0.00  0.00     0.091 H 
ATOM    101  H   SGN d 302     133.571  10.833  81.143  0.00  0.00     0.090 H 
ATOM    102  H   SGN d 302     130.197  15.678  80.053  0.00  0.00     0.231 HD
ATOM    103  H   SGN d 302     135.925  11.372  81.133  0.00  0.00     0.080 H 
ATOM    104  H   SGN d 302     135.606   9.965  80.119  0.00  0.00     0.080 H 
ATOM    105  H   SGN d 302     129.957  10.884  78.353  0.00  0.00     0.210 HD
ATOM    106  H   SGN d 302     131.325  10.707  80.202  0.00  0.00     0.089 H 
ATOM    107  H   SGN d 302     129.126  13.266  77.129  0.00  0.00     0.231 HD
ATOM    108  H   SGN d 302     132.421  14.288  80.319  0.00  0.00     0.131 H 
ATOM    109  C1  IDS d 305     136.604   6.809  70.122  0.00  0.00     0.161 C 
ATOM    110  O1S IDS d 305     135.810  11.291  70.059  0.00  0.00    -0.572 OA
ATOM    111  S   IDS d 305     136.932  10.485  70.450  0.00  0.00     0.252 S 
ATOM    112  C4  IDS d 305     139.038   6.380  68.402  0.00  0.00    -0.005 C 
ATOM    113  O61 IDS d 305     139.687   3.348  69.796  0.00  0.00    -0.646 OA
ATOM    114  O3  IDS d 305     139.047   8.757  67.988  0.00  0.00    -0.393 OA
ATOM    115  O62 IDS d 305     138.215   3.301  68.335  0.00  0.00    -0.646 OA
ATOM    116  O2S IDS d 305     136.884  10.128  71.836  0.00  0.00    -0.572 OA
ATOM    117  O2  IDS d 305     136.777   9.170  69.615  0.00  0.00    -0.244 OA
ATOM    118  O5  IDS d 305     137.063   5.550  69.604  0.00  0.00    -0.343 OA
ATOM    119  C5  IDS d 305     138.494   5.386  69.480  0.00  0.00     0.127 C 
ATOM    120  C3  IDS d 305     138.195   7.686  68.345  0.00  0.00     0.069 C 
ATOM    121  C2  IDS d 305     137.540   7.978  69.711  0.00  0.00     0.132 C 
ATOM    122  C6  IDS d 305     138.815   3.924  69.183  0.00  0.00     0.203 C 
ATOM    123  O3S IDS d 305     138.187  11.053  70.054  0.00  0.00    -0.572 OA
ATOM    124  H   IDS d 305     135.630   6.960  69.704  0.00  0.00     0.133 H 
ATOM    125  H   IDS d 305     140.051   6.631  68.641  0.00  0.00     0.041 H 
ATOM    126  H   IDS d 305     138.977   5.903  67.446  0.00  0.00     0.041 H 
ATOM    127  H   IDS d 305     139.458   8.571  67.129  0.00  0.00     0.210 HD
ATOM    128  H   IDS d 305     138.990   5.626  70.398  0.00  0.00     0.100 H 
ATOM    129  H   IDS d 305     137.416   7.570  67.622  0.00  0.00     0.087 H 
ATOM    130  H   IDS d 305     138.308   8.086  70.450  0.00  0.00     0.097 H 
ENDROOT
TORSDOF 39
ENDMDL
MODEL 54
REMARK VINA RESULT:      -5.2      4.545      7.131
REMARK  0 active torsions:
REMARK  status: ('A' for Active; 'I' for Inactive)
REMARK       I    between atoms: C2_2  and  N_68 
REMARK       I    between atoms: C1_3  and  O4_24 
REMARK       I    between atoms: O1S_5  and  S1_58 
REMARK       I    between atoms: O1_6  and  C1_31 
REMARK       I    between atoms: C4_7  and  O4_36 
REMARK       I    between atoms: C1_8  and  O4_37 
REMARK       I    between atoms: O3_9  and  C3_74 
REMARK       I    between atoms: C5_10  and  C6_32 
REMARK       I    between atoms: C2_11  and  N_20 
REMARK       I    between atoms: C6_12  and  C5_53 
REMARK       I    between atoms: S2_14  and  O6_33 
REMARK       I    between atoms: O3S_16  and  S1_51 
REMARK       I    between atoms: S_17  and  O2_44 
REMARK       I    between atoms: N_20  and  S1_58 
REMARK       I    between atoms: O4_24  and  C4_38 
REMARK       I    between atoms: S_25  and  O2_64 
REMARK       I    between atoms: O2S_27  and  S1_51 
REMARK       I    between atoms: C4_28  and  O4_73 
REMARK       I    between atoms: C3_30  and  O3_62 
REMARK       I    between atoms: O6_33  and  C6_63 
REMARK       I    between atoms: O3_35  and  C3_55 
REMARK       I    between atoms: O4_36  and  C1_84 
REMARK       I    between atoms: O4_37  and  C4_54 
REMARK       I    between atoms: C3_39  and  O3_48 
REMARK       I    between atoms: C5_42  and  C6_63 
REMARK       I    between atoms: O2_44  and  C2_61 
REMARK       I    between atoms: O6_45  and  C6_77 
REMARK       I    between atoms: O6_45  and  S2_82 
REMARK       I    between atoms: C5_49  and  C6_76 
REMARK       I    between atoms: S1_51  and  N_68 
REMARK       I    between atoms: S1_51  and  O1S_81 
REMARK       I    between atoms: O2S_52  and  S1_58 
REMARK       I    between atoms: C2_57  and  O2_64 
REMARK       I    between atoms: S1_58  and  O3S_75 
REMARK       I    between atoms: O3_66  and  C3_67 
REMARK       I    between atoms: O2_69  and  C2_79 
REMARK       I    between atoms: O2_69  and  S_72 
REMARK       I    between atoms: C5_70  and  C6_77 
REMARK       I    between atoms: C1_71  and  O4_73 
ROOT
ATOM      1  O2S IDS d 303     138.106   4.296  75.393  0.00  0.00    -0.572 OA
ATOM      2  C6  IDS d 303     132.586   7.651  78.685  0.00  0.00     0.206 C 
ATOM      3  O1S IDS d 303     138.942   5.652  77.173  0.00  0.00    -0.572 OA
ATOM      4  O3S IDS d 303     138.296   3.385  77.610  0.00  0.00    -0.572 OA
ATOM      5  O4  IDS d 303     133.970   6.244  76.302  0.00  0.00    -0.348 OA
ATOM      6  O61 IDS d 303     131.379   7.549  78.763  0.00  0.00    -0.646 OA
ATOM      7  C4  IDS d 303     133.415   5.542  77.424  0.00  0.00     0.103 C 
ATOM      8  C3  IDS d 303     134.355   4.314  77.591  0.00  0.00     0.094 C 
ATOM      9  O62 IDS d 303     133.058   8.765  78.596  0.00  0.00    -0.646 OA
ATOM     10  O3  IDS d 303     133.726   3.389  78.461  0.00  0.00    -0.390 OA
ATOM     11  C5  IDS d 303     133.485   6.414  78.701  0.00  0.00     0.152 C 
ATOM     12  O2  IDS d 303     136.607   5.041  77.100  0.00  0.00    -0.244 OA
ATOM     13  C1  IDS d 303     135.775   5.799  79.227  0.00  0.00     0.161 C 
ATOM     14  S   IDS d 303     138.076   4.563  76.810  0.00  0.00     0.252 S 
ATOM     15  C2  IDS d 303     135.754   4.665  78.169  0.00  0.00     0.134 C 
ATOM     16  O5  IDS d 303     134.844   6.826  78.905  0.00  0.00    -0.340 OA
ATOM     17  H   IDS d 303     132.387   5.281  77.275  0.00  0.00     0.092 H 
ATOM     18  H   IDS d 303     134.519   3.911  76.613  0.00  0.00     0.091 H 
ATOM     19  H   IDS d 303     133.599   3.799  79.331  0.00  0.00     0.210 HD
ATOM     20  H   IDS d 303     133.123   5.802  79.500  0.00  0.00     0.104 H 
ATOM     21  H   IDS d 303     136.739   6.263  79.236  0.00  0.00     0.133 H 
ATOM     22  H   IDS d 303     136.080   3.781  78.677  0.00  0.00     0.097 H 
ATOM     23  C2  SGN d 304     134.154   6.453  73.865  0.00  0.00     0.081 C 
ATOM     24  C1  SGN d 304     133.231   6.260  75.100  0.00  0.00     0.150 C 
ATOM     25  O3  SGN d 304     135.600   8.039  72.756  0.00  0.00    -0.391 OA
ATOM     26  O3S SGN d 304     135.731   3.816  72.107  0.00  0.00    -0.296 OA
ATOM     27  O5S SGN d 304     128.863   9.257  72.536  0.00  0.00    -0.572 OA
ATOM     28  O2S SGN d 304     133.477   3.826  72.920  0.00  0.00    -0.296 OA
ATOM     29  O4S SGN d 304     129.696  11.294  73.480  0.00  0.00    -0.572 OA
ATOM     30  O4  SGN d 304     134.308  10.115  73.564  0.00  0.00    -0.348 OA
ATOM     31  O6  SGN d 304     130.530   9.151  74.220  0.00  0.00    -0.254 OA
ATOM     32  S1  SGN d 304     134.876   3.920  73.252  0.00  0.00     0.156 S 
ATOM     33  C4  SGN d 304     133.601   8.893  73.835  0.00  0.00     0.095 C 
ATOM     34  O6S SGN d 304     128.306   9.838  74.779  0.00  0.00    -0.572 OA
ATOM     35  N   SGN d 304     135.185   5.403  73.893  0.00  0.00    -0.210 NA
ATOM     36  C5  SGN d 304     132.708   8.652  75.096  0.00  0.00     0.091 C 
ATOM     37  C3  SGN d 304     134.766   7.869  73.889  0.00  0.00     0.083 C 
ATOM     38  C6  SGN d 304     131.470   9.554  75.196  0.00  0.00     0.067 C 
ATOM     39  O5  SGN d 304     132.233   7.281  75.142  0.00  0.00    -0.349 OA
ATOM     40  O1S SGN d 304     135.240   2.998  74.291  0.00  0.00    -0.296 OA
ATOM     41  S2  SGN d 304     129.276   9.942  73.729  0.00  0.00     0.251 S 
ATOM     42  H   SGN d 304     133.600   6.366  72.953  0.00  0.00     0.076 H 
ATOM     43  H   SGN d 304     132.750   5.308  75.001  0.00  0.00     0.131 H 
ATOM     44  H   SGN d 304     136.328   7.398  72.792  0.00  0.00     0.210 HD
ATOM     45  H   SGN d 304     135.450   4.454  71.434  0.00  0.00     0.231 HD
ATOM     46  H   SGN d 304     133.268   4.462  72.217  0.00  0.00     0.231 HD
ATOM     47  H   SGN d 304     132.835   8.853  73.090  0.00  0.00     0.091 H 
ATOM     48  H   SGN d 304     135.426   5.254  74.873  0.00  0.00     0.140 HD
ATOM     49  H   SGN d 304     133.356   8.885  75.915  0.00  0.00     0.090 H 
ATOM     50  H   SGN d 304     135.347   8.013  74.775  0.00  0.00     0.089 H 
ATOM     51  H   SGN d 304     131.037   9.464  76.170  0.00  0.00     0.080 H 
ATOM     52  H   SGN d 304     131.750  10.573  75.030  0.00  0.00     0.080 H 
ATOM     53  H   SGN d 304     135.085   2.090  73.987  0.00  0.00     0.231 HD
ATOM     54  O62 IDS d 301     140.062   5.252  84.280  0.00  0.00    -0.646 OA
ATOM     55  O1  IDS d 301     140.030   3.885  89.111  0.00  0.00    -0.368 OA
ATOM     56  C4  IDS d 301     137.483   5.063  86.136  0.00  0.00     0.103 C 
ATOM     57  C5  IDS d 301     139.016   5.273  86.431  0.00  0.00     0.152 C 
ATOM     58  O61 IDS d 301     140.247   7.006  85.362  0.00  0.00    -0.646 OA
ATOM     59  S   IDS d 301     136.631   3.446  90.826  0.00  0.00     0.252 S 
ATOM     60  C3  IDS d 301     136.850   4.103  87.192  0.00  0.00     0.094 C 
ATOM     61  C1  IDS d 301     139.156   3.495  88.088  0.00  0.00     0.158 C 
ATOM     62  C6  IDS d 301     139.823   5.875  85.287  0.00  0.00     0.206 C 
ATOM     63  O5  IDS d 301     139.592   4.008  86.824  0.00  0.00    -0.340 OA
ATOM     64  O4  IDS d 301     136.481   5.125  85.109  0.00  0.00    -0.348 OA
ATOM     65  O3S IDS d 301     136.685   2.173  91.500  0.00  0.00    -0.572 OA
ATOM     66  O1S IDS d 301     137.543   4.403  91.395  0.00  0.00    -0.572 OA
ATOM     67  C2  IDS d 301     137.732   4.013  88.452  0.00  0.00     0.134 C 
ATOM     68  O3  IDS d 301     135.565   4.585  87.556  0.00  0.00    -0.390 OA
ATOM     69  O2  IDS d 301     137.126   3.127  89.375  0.00  0.00    -0.244 OA
ATOM     70  O2S IDS d 301     135.291   3.953  90.683  0.00  0.00    -0.572 OA
ATOM     71  H   IDS d 301     139.717   3.527  89.957  0.00  0.00     0.212 HD
ATOM     72  H   IDS d 301     137.772   6.039  85.806  0.00  0.00     0.092 H 
ATOM     73  H   IDS d 301     139.068   5.998  87.216  0.00  0.00     0.104 H 
ATOM     74  H   IDS d 301     136.771   3.127  86.758  0.00  0.00     0.091 H 
ATOM     75  H   IDS d 301     139.141   2.429  87.999  0.00  0.00     0.133 H 
ATOM     76  H   IDS d 301     137.826   4.987  88.885  0.00  0.00     0.097 H 
ATOM     77  H   IDS d 301     135.650   5.468  87.947  0.00  0.00     0.210 HD
ATOM     78  O1S SGN d 302     132.156   6.516  86.563  0.00  0.00    -0.296 OA
ATOM     79  C2  SGN d 302     134.855   6.503  83.864  0.00  0.00     0.081 C 
ATOM     80  S2  SGN d 302     139.744   8.432  80.804  0.00  0.00     0.251 S 
ATOM     81  N   SGN d 302     133.830   6.139  84.858  0.00  0.00    -0.210 NA
ATOM     82  C4  SGN d 302     135.851   6.038  81.622  0.00  0.00     0.095 C 
ATOM     83  O6  SGN d 302     138.474   7.602  81.183  0.00  0.00    -0.254 OA
ATOM     84  C5  SGN d 302     137.232   5.843  82.328  0.00  0.00     0.091 C 
ATOM     85  O4S SGN d 302     140.396   7.738  79.729  0.00  0.00    -0.572 OA
ATOM     86  O2S SGN d 302     134.013   7.982  86.517  0.00  0.00    -0.296 OA
ATOM     87  S1  SGN d 302     133.048   7.272  85.736  0.00  0.00     0.156 S 
ATOM     88  O5S SGN d 302     139.247   9.710  80.399  0.00  0.00    -0.572 OA
ATOM     89  O6S SGN d 302     140.532   8.490  82.001  0.00  0.00    -0.572 OA
ATOM     90  C6  SGN d 302     138.449   6.223  81.465  0.00  0.00     0.067 C 
ATOM     91  O3  SGN d 302     133.471   5.789  82.048  0.00  0.00    -0.391 OA
ATOM     92  C3  SGN d 302     134.755   5.621  82.626  0.00  0.00     0.083 C 
ATOM     93  O4  SGN d 302     135.527   5.245  80.484  0.00  0.00    -0.348 OA
ATOM     94  O3S SGN d 302     132.365   8.102  84.786  0.00  0.00    -0.296 OA
ATOM     95  C1  SGN d 302     136.260   6.372  84.507  0.00  0.00     0.150 C 
ATOM     96  O5  SGN d 302     137.287   6.639  83.545  0.00  0.00    -0.349 OA
ATOM     97  H   SGN d 302     132.669   5.975  87.183  0.00  0.00     0.231 HD
ATOM     98  H   SGN d 302     134.695   7.516  83.557  0.00  0.00     0.076 H 
ATOM     99  H   SGN d 302     134.286   5.521  85.529  0.00  0.00     0.140 HD
ATOM    100  H   SGN d 302     135.909   7.056  81.298  0.00  0.00     0.091 H 
ATOM    101  H   SGN d 302     137.296   4.795  82.528  0.00  0.00     0.090 H 
ATOM    102  H   SGN d 302     134.440   7.371  87.138  0.00  0.00     0.231 HD
ATOM    103  H   SGN d 302     139.343   5.959  81.991  0.00  0.00     0.080 H 
ATOM    104  H   SGN d 302     138.380   5.693  80.538  0.00  0.00     0.080 H 
ATOM    105  H   SGN d 302     132.792   5.525  82.688  0.00  0.00     0.210 HD
ATOM    106  H   SGN d 302     134.893   4.593  82.886  0.00  0.00     0.089 H 
ATOM    107  H   SGN d 302     131.727   7.567  84.289  0.00  0.00     0.231 HD
ATOM    108  H   SGN d 302     136.297   7.105  85.285  0.00  0.00     0.131 H 
ATOM    109  C1  IDS d 305     133.636  11.138  72.873  0.00  0.00     0.161 C 
ATOM    110  O1S IDS d 305     133.454  13.670  76.651  0.00  0.00    -0.572 OA
ATOM    111  S   IDS d 305     134.513  13.290  75.759  0.00  0.00     0.252 S 
ATOM    112  C4  IDS d 305     134.745  12.938  70.728  0.00  0.00    -0.005 C 
ATOM    113  O61 IDS d 305     135.668  10.312  68.777  0.00  0.00    -0.646 OA
ATOM    114  O3  IDS d 305     134.813  14.699  72.375  0.00  0.00    -0.393 OA
ATOM    115  O62 IDS d 305     133.656  10.795  68.633  0.00  0.00    -0.646 OA
ATOM    116  O2S IDS d 305     135.154  12.077  76.166  0.00  0.00    -0.572 OA
ATOM    117  O2  IDS d 305     133.793  13.013  74.397  0.00  0.00    -0.244 OA
ATOM    118  O5  IDS d 305     133.607  10.886  71.459  0.00  0.00    -0.343 OA
ATOM    119  C5  IDS d 305     134.732  11.373  70.693  0.00  0.00     0.127 C 
ATOM    120  C3  IDS d 305     134.154  13.488  72.058  0.00  0.00     0.069 C 
ATOM    121  C2  IDS d 305     134.349  12.476  73.206  0.00  0.00     0.132 C 
ATOM    122  C6  IDS d 305     134.678  10.793  69.283  0.00  0.00     0.203 C 
ATOM    123  O3S IDS d 305     135.432  14.360  75.503  0.00  0.00    -0.572 OA
ATOM    124  H   IDS d 305     132.612  11.183  73.183  0.00  0.00     0.133 H 
ATOM    125  H   IDS d 305     135.754  13.279  70.629  0.00  0.00     0.041 H 
ATOM    126  H   IDS d 305     134.139  13.295  69.922  0.00  0.00     0.041 H 
ATOM    127  H   IDS d 305     134.690  15.333  71.652  0.00  0.00     0.210 HD
ATOM    128  H   IDS d 305     135.658  11.049  71.120  0.00  0.00     0.100 H 
ATOM    129  H   IDS d 305     133.105  13.653  71.935  0.00  0.00     0.087 H 
ATOM    130  H   IDS d 305     135.395  12.292  73.335  0.00  0.00     0.097 H 
ENDROOT
TORSDOF 39
ENDMDL
MODEL 55
REMARK VINA RESULT:      -5.1      3.439     13.888
REMARK  0 active torsions:
REMARK  status: ('A' for Active; 'I' for Inactive)
REMARK       I    between atoms: C2_2  and  N_68 
REMARK       I    between atoms: C1_3  and  O4_24 
REMARK       I    between atoms: O1S_5  and  S1_58 
REMARK       I    between atoms: O1_6  and  C1_31 
REMARK       I    between atoms: C4_7  and  O4_36 
REMARK       I    between atoms: C1_8  and  O4_37 
REMARK       I    between atoms: O3_9  and  C3_74 
REMARK       I    between atoms: C5_10  and  C6_32 
REMARK       I    between atoms: C2_11  and  N_20 
REMARK       I    between atoms: C6_12  and  C5_53 
REMARK       I    between atoms: S2_14  and  O6_33 
REMARK       I    between atoms: O3S_16  and  S1_51 
REMARK       I    between atoms: S_17  and  O2_44 
REMARK       I    between atoms: N_20  and  S1_58 
REMARK       I    between atoms: O4_24  and  C4_38 
REMARK       I    between atoms: S_25  and  O2_64 
REMARK       I    between atoms: O2S_27  and  S1_51 
REMARK       I    between atoms: C4_28  and  O4_73 
REMARK       I    between atoms: C3_30  and  O3_62 
REMARK       I    between atoms: O6_33  and  C6_63 
REMARK       I    between atoms: O3_35  and  C3_55 
REMARK       I    between atoms: O4_36  and  C1_84 
REMARK       I    between atoms: O4_37  and  C4_54 
REMARK       I    between atoms: C3_39  and  O3_48 
REMARK       I    between atoms: C5_42  and  C6_63 
REMARK       I    between atoms: O2_44  and  C2_61 
REMARK       I    between atoms: O6_45  and  C6_77 
REMARK       I    between atoms: O6_45  and  S2_82 
REMARK       I    between atoms: C5_49  and  C6_76 
REMARK       I    between atoms: S1_51  and  N_68 
REMARK       I    between atoms: S1_51  and  O1S_81 
REMARK       I    between atoms: O2S_52  and  S1_58 
REMARK       I    between atoms: C2_57  and  O2_64 
REMARK       I    between atoms: S1_58  and  O3S_75 
REMARK       I    between atoms: O3_66  and  C3_67 
REMARK       I    between atoms: O2_69  and  C2_79 
REMARK       I    between atoms: O2_69  and  S_72 
REMARK       I    between atoms: C5_70  and  C6_77 
REMARK       I    between atoms: C1_71  and  O4_73 
ROOT
ATOM      1  O2S IDS d 303     132.545  14.789  78.959  0.00  0.00    -0.572 OA
ATOM      2  C6  IDS d 303     133.925   7.758  80.064  0.00  0.00     0.206 C 
ATOM      3  O1S IDS d 303     133.656  13.883  77.049  0.00  0.00    -0.572 OA
ATOM      4  O3S IDS d 303     131.263  13.804  77.180  0.00  0.00    -0.572 OA
ATOM      5  O4  IDS d 303     133.355  10.662  80.968  0.00  0.00    -0.348 OA
ATOM      6  O61 IDS d 303     133.558   6.866  80.802  0.00  0.00    -0.646 OA
ATOM      7  C4  IDS d 303     132.338   9.762  80.501  0.00  0.00     0.103 C 
ATOM      8  C3  IDS d 303     131.327  10.696  79.775  0.00  0.00     0.094 C 
ATOM      9  O62 IDS d 303     135.107   7.829  79.804  0.00  0.00    -0.646 OA
ATOM     10  O3  IDS d 303     130.134   9.966  79.549  0.00  0.00    -0.390 OA
ATOM     11  C5  IDS d 303     132.928   8.758  79.480  0.00  0.00     0.152 C 
ATOM     12  O2  IDS d 303     132.596  12.419  78.650  0.00  0.00    -0.244 OA
ATOM     13  C1  IDS d 303     132.713  10.264  77.586  0.00  0.00     0.161 C 
ATOM     14  S   IDS d 303     132.506  13.802  77.908  0.00  0.00     0.252 S 
ATOM     15  C2  IDS d 303     131.839  11.243  78.414  0.00  0.00     0.134 C 
ATOM     16  O5  IDS d 303     133.565   9.493  78.426  0.00  0.00    -0.340 OA
ATOM     17  H   IDS d 303     131.904   9.189  81.293  0.00  0.00     0.092 H 
ATOM     18  H   IDS d 303     131.176  11.545  80.409  0.00  0.00     0.091 H 
ATOM     19  H   IDS d 303     130.322   9.210  78.971  0.00  0.00     0.210 HD
ATOM     20  H   IDS d 303     132.104   8.176  79.126  0.00  0.00     0.104 H 
ATOM     21  H   IDS d 303     133.358  10.819  76.937  0.00  0.00     0.133 H 
ATOM     22  H   IDS d 303     130.960  11.418  77.830  0.00  0.00     0.097 H 
ATOM     23  C2  SGN d 304     134.089  12.260  82.678  0.00  0.00     0.081 C 
ATOM     24  C1  SGN d 304     133.459  10.876  82.360  0.00  0.00     0.150 C 
ATOM     25  O3  SGN d 304     136.134  13.537  82.536  0.00  0.00    -0.391 OA
ATOM     26  O3S SGN d 304     132.255  15.272  83.003  0.00  0.00    -0.296 OA
ATOM     27  O5S SGN d 304     135.929   8.450  87.119  0.00  0.00    -0.572 OA
ATOM     28  O2S SGN d 304     131.627  13.130  83.876  0.00  0.00    -0.296 OA
ATOM     29  O4S SGN d 304     137.860   7.866  85.828  0.00  0.00    -0.572 OA
ATOM     30  O4  SGN d 304     137.684  11.491  82.746  0.00  0.00    -0.348 OA
ATOM     31  O6  SGN d 304     135.836   8.631  84.755  0.00  0.00    -0.254 OA
ATOM     32  S1  SGN d 304     131.943  13.906  82.703  0.00  0.00     0.156 S 
ATOM     33  C4  SGN d 304     136.312  11.167  83.026  0.00  0.00     0.095 C 
ATOM     34  O6S SGN d 304     135.912   6.473  85.789  0.00  0.00    -0.572 OA
ATOM     35  N   SGN d 304     133.295  13.295  81.995  0.00  0.00    -0.210 NA
ATOM     36  C5  SGN d 304     135.637   9.802  82.670  0.00  0.00     0.091 C 
ATOM     37  C3  SGN d 304     135.566  12.274  82.235  0.00  0.00     0.083 C 
ATOM     38  C6  SGN d 304     136.220   8.582  83.396  0.00  0.00     0.067 C 
ATOM     39  O5  SGN d 304     134.217   9.831  82.969  0.00  0.00    -0.349 OA
ATOM     40  O1S SGN d 304     130.926  13.787  81.696  0.00  0.00    -0.296 OA
ATOM     41  S2  SGN d 304     136.429   7.801  85.938  0.00  0.00     0.251 S 
ATOM     42  H   SGN d 304     134.074  12.457  83.730  0.00  0.00     0.076 H 
ATOM     43  H   SGN d 304     132.468  10.869  82.766  0.00  0.00     0.131 H 
ATOM     44  H   SGN d 304     135.666  14.228  82.040  0.00  0.00     0.210 HD
ATOM     45  H   SGN d 304     132.944  15.303  83.685  0.00  0.00     0.231 HD
ATOM     46  H   SGN d 304     132.333  13.234  84.532  0.00  0.00     0.231 HD
ATOM     47  H   SGN d 304     136.264  11.091  84.093  0.00  0.00     0.091 H 
ATOM     48  H   SGN d 304     133.004  12.899  81.101  0.00  0.00     0.140 HD
ATOM     49  H   SGN d 304     135.830   9.690  81.623  0.00  0.00     0.090 H 
ATOM     50  H   SGN d 304     135.646  12.098  81.184  0.00  0.00     0.089 H 
ATOM     51  H   SGN d 304     135.845   7.685  82.949  0.00  0.00     0.080 H 
ATOM     52  H   SGN d 304     137.287   8.590  83.320  0.00  0.00     0.080 H 
ATOM     53  H   SGN d 304     130.087  14.130  82.041  0.00  0.00     0.231 HD
ATOM     54  O62 IDS d 301     132.063  10.357  70.969  0.00  0.00    -0.646 OA
ATOM     55  O1  IDS d 301     129.766   7.707  67.376  0.00  0.00    -0.368 OA
ATOM     56  C4  IDS d 301     130.963   7.386  71.273  0.00  0.00     0.103 C 
ATOM     57  C5  IDS d 301     131.426   8.247  70.039  0.00  0.00     0.152 C 
ATOM     58  O61 IDS d 301     133.559   9.300  70.006  0.00  0.00    -0.646 OA
ATOM     59  S   IDS d 301     128.284   4.304  68.330  0.00  0.00     0.252 S 
ATOM     60  C3  IDS d 301     129.697   6.547  70.911  0.00  0.00     0.094 C 
ATOM     61  C1  IDS d 301     129.418   7.830  68.727  0.00  0.00     0.158 C 
ATOM     62  C6  IDS d 301     132.403   9.372  70.359  0.00  0.00     0.206 C 
ATOM     63  O5  IDS d 301     130.257   8.787  69.384  0.00  0.00    -0.340 OA
ATOM     64  O4  IDS d 301     131.021   7.286  72.705  0.00  0.00    -0.348 OA
ATOM     65  O3S IDS d 301     126.941   4.293  67.807  0.00  0.00    -0.572 OA
ATOM     66  O1S IDS d 301     129.275   4.327  67.287  0.00  0.00    -0.572 OA
ATOM     67  C2  IDS d 301     129.540   6.421  69.383  0.00  0.00     0.134 C 
ATOM     68  O3  IDS d 301     129.814   5.250  71.475  0.00  0.00    -0.390 OA
ATOM     69  O2  IDS d 301     128.378   5.664  69.101  0.00  0.00    -0.244 OA
ATOM     70  O2S IDS d 301     128.517   3.278  69.312  0.00  0.00    -0.572 OA
ATOM     71  H   IDS d 301     129.187   7.055  66.951  0.00  0.00     0.212 HD
ATOM     72  H   IDS d 301     132.024   7.517  71.317  0.00  0.00     0.092 H 
ATOM     73  H   IDS d 301     131.970   7.582  69.402  0.00  0.00     0.104 H 
ATOM     74  H   IDS d 301     128.836   7.046  71.304  0.00  0.00     0.091 H 
ATOM     75  H   IDS d 301     128.414   8.186  68.821  0.00  0.00     0.133 H 
ATOM     76  H   IDS d 301     130.403   5.934  68.980  0.00  0.00     0.097 H 
ATOM     77  H   IDS d 301     130.597   4.808  71.111  0.00  0.00     0.210 HD
ATOM     78  O1S SGN d 302     131.147   2.843  74.438  0.00  0.00    -0.296 OA
ATOM     79  C2  SGN d 302     132.250   6.489  74.691  0.00  0.00     0.081 C 
ATOM     80  S2  SGN d 302     135.744  11.376  73.745  0.00  0.00     0.251 S 
ATOM     81  N   SGN d 302     131.485   5.232  74.624  0.00  0.00    -0.210 NA
ATOM     82  C4  SGN d 302     132.471   8.749  75.730  0.00  0.00     0.095 C 
ATOM     83  O6  SGN d 302     134.607  10.464  74.309  0.00  0.00    -0.254 OA
ATOM     84  C5  SGN d 302     132.431   9.362  74.293  0.00  0.00     0.091 C 
ATOM     85  O4S SGN d 302     135.436  12.724  74.136  0.00  0.00    -0.572 OA
ATOM     86  O2S SGN d 302     132.948   3.787  73.227  0.00  0.00    -0.296 OA
ATOM     87  S1  SGN d 302     132.225   3.786  74.461  0.00  0.00     0.156 S 
ATOM     88  O5S SGN d 302     136.945  10.898  74.357  0.00  0.00    -0.572 OA
ATOM     89  O6S SGN d 302     135.721  11.179  72.325  0.00  0.00    -0.572 OA
ATOM     90  C6  SGN d 302     133.225  10.671  74.135  0.00  0.00     0.067 C 
ATOM     91  O3  SGN d 302     131.647   6.835  76.980  0.00  0.00    -0.391 OA
ATOM     92  C3  SGN d 302     131.638   7.450  75.703  0.00  0.00     0.083 C 
ATOM     93  O4  SGN d 302     131.875   9.459  76.812  0.00  0.00    -0.348 OA
ATOM     94  O3S SGN d 302     133.069   3.645  75.613  0.00  0.00    -0.296 OA
ATOM     95  C1  SGN d 302     132.289   7.140  73.285  0.00  0.00     0.150 C 
ATOM     96  O5  SGN d 302     132.956   8.407  73.328  0.00  0.00    -0.349 OA
ATOM     97  H   SGN d 302     130.612   2.984  73.641  0.00  0.00     0.231 HD
ATOM     98  H   SGN d 302     133.247   6.270  75.012  0.00  0.00     0.076 H 
ATOM     99  H   SGN d 302     130.853   5.321  73.828  0.00  0.00     0.140 HD
ATOM    100  H   SGN d 302     133.522   8.697  75.920  0.00  0.00     0.091 H 
ATOM    101  H   SGN d 302     131.401   9.588  74.116  0.00  0.00     0.090 H 
ATOM    102  H   SGN d 302     132.328   3.885  72.488  0.00  0.00     0.231 HD
ATOM    103  H   SGN d 302     133.053  11.065  73.154  0.00  0.00     0.080 H 
ATOM    104  H   SGN d 302     132.892  11.357  74.886  0.00  0.00     0.080 H 
ATOM    105  H   SGN d 302     131.121   6.020  76.950  0.00  0.00     0.210 HD
ATOM    106  H   SGN d 302     130.630   7.687  75.432  0.00  0.00     0.089 H 
ATOM    107  H   SGN d 302     132.525   3.652  76.415  0.00  0.00     0.231 HD
ATOM    108  H   SGN d 302     132.840   6.465  72.663  0.00  0.00     0.131 H 
ATOM    109  C1  IDS d 305     138.662  11.140  83.694  0.00  0.00     0.161 C 
ATOM    110  O1S IDS d 305     140.277   7.902  80.931  0.00  0.00    -0.572 OA
ATOM    111  S   IDS d 305     140.318   9.338  80.912  0.00  0.00     0.252 S 
ATOM    112  C4  IDS d 305     141.052  12.759  84.550  0.00  0.00    -0.005 C 
ATOM    113  O61 IDS d 305     139.131  15.416  85.450  0.00  0.00    -0.646 OA
ATOM    114  O3  IDS d 305     142.416  11.263  83.238  0.00  0.00    -0.393 OA
ATOM    115  O62 IDS d 305     139.200  13.910  86.876  0.00  0.00    -0.646 OA
ATOM    116  O2S IDS d 305     139.209   9.900  80.201  0.00  0.00    -0.572 OA
ATOM    117  O2  IDS d 305     140.178   9.751  82.415  0.00  0.00    -0.244 OA
ATOM    118  O5  IDS d 305     138.702  12.078  84.780  0.00  0.00    -0.343 OA
ATOM    119  C5  IDS d 305     139.560  13.229  84.608  0.00  0.00     0.127 C 
ATOM    120  C3  IDS d 305     141.184  11.339  83.929  0.00  0.00     0.069 C 
ATOM    121  C2  IDS d 305     140.023  11.055  82.953  0.00  0.00     0.132 C 
ATOM    122  C6  IDS d 305     139.280  14.243  85.714  0.00  0.00     0.203 C 
ATOM    123  O3S IDS d 305     141.585   9.850  80.482  0.00  0.00    -0.572 OA
ATOM    124  H   IDS d 305     138.427  10.192  84.133  0.00  0.00     0.133 H 
ATOM    125  H   IDS d 305     141.610  13.451  83.954  0.00  0.00     0.041 H 
ATOM    126  H   IDS d 305     141.430  12.722  85.550  0.00  0.00     0.041 H 
ATOM    127  H   IDS d 305     143.144  11.442  83.854  0.00  0.00     0.210 HD
ATOM    128  H   IDS d 305     139.358  13.725  83.682  0.00  0.00     0.100 H 
ATOM    129  H   IDS d 305     141.146  10.609  84.710  0.00  0.00     0.087 H 
ATOM    130  H   IDS d 305     140.041  11.785  82.169  0.00  0.00     0.097 H 
ENDROOT
TORSDOF 39
ENDMDL
MODEL 56
REMARK VINA RESULT:      -5.1      3.489     13.928
REMARK  0 active torsions:
REMARK  status: ('A' for Active; 'I' for Inactive)
REMARK       I    between atoms: C2_2  and  N_68 
REMARK       I    between atoms: C1_3  and  O4_24 
REMARK       I    between atoms: O1S_5  and  S1_58 
REMARK       I    between atoms: O1_6  and  C1_31 
REMARK       I    between atoms: C4_7  and  O4_36 
REMARK       I    between atoms: C1_8  and  O4_37 
REMARK       I    between atoms: O3_9  and  C3_74 
REMARK       I    between atoms: C5_10  and  C6_32 
REMARK       I    between atoms: C2_11  and  N_20 
REMARK       I    between atoms: C6_12  and  C5_53 
REMARK       I    between atoms: S2_14  and  O6_33 
REMARK       I    between atoms: O3S_16  and  S1_51 
REMARK       I    between atoms: S_17  and  O2_44 
REMARK       I    between atoms: N_20  and  S1_58 
REMARK       I    between atoms: O4_24  and  C4_38 
REMARK       I    between atoms: S_25  and  O2_64 
REMARK       I    between atoms: O2S_27  and  S1_51 
REMARK       I    between atoms: C4_28  and  O4_73 
REMARK       I    between atoms: C3_30  and  O3_62 
REMARK       I    between atoms: O6_33  and  C6_63 
REMARK       I    between atoms: O3_35  and  C3_55 
REMARK       I    between atoms: O4_36  and  C1_84 
REMARK       I    between atoms: O4_37  and  C4_54 
REMARK       I    between atoms: C3_39  and  O3_48 
REMARK       I    between atoms: C5_42  and  C6_63 
REMARK       I    between atoms: O2_44  and  C2_61 
REMARK       I    between atoms: O6_45  and  C6_77 
REMARK       I    between atoms: O6_45  and  S2_82 
REMARK       I    between atoms: C5_49  and  C6_76 
REMARK       I    between atoms: S1_51  and  N_68 
REMARK       I    between atoms: S1_51  and  O1S_81 
REMARK       I    between atoms: O2S_52  and  S1_58 
REMARK       I    between atoms: C2_57  and  O2_64 
REMARK       I    between atoms: S1_58  and  O3S_75 
REMARK       I    between atoms: O3_66  and  C3_67 
REMARK       I    between atoms: O2_69  and  C2_79 
REMARK       I    between atoms: O2_69  and  S_72 
REMARK       I    between atoms: C5_70  and  C6_77 
REMARK       I    between atoms: C1_71  and  O4_73 
ROOT
ATOM      1  O2S IDS d 303     130.862  11.182  79.611  0.00  0.00    -0.572 OA
ATOM      2  C6  IDS d 303     135.447   5.725  78.286  0.00  0.00     0.206 C 
ATOM      3  O1S IDS d 303     132.252  11.740  77.751  0.00  0.00    -0.572 OA
ATOM      4  O3S IDS d 303     130.189  10.573  77.384  0.00  0.00    -0.572 OA
ATOM      5  O4  IDS d 303     133.567   7.413  80.070  0.00  0.00    -0.348 OA
ATOM      6  O61 IDS d 303     135.559   4.547  78.557  0.00  0.00    -0.646 OA
ATOM      7  C4  IDS d 303     133.100   6.445  79.119  0.00  0.00     0.103 C 
ATOM      8  C3  IDS d 303     131.758   7.047  78.611  0.00  0.00     0.094 C 
ATOM      9  O62 IDS d 303     136.449   6.409  78.300  0.00  0.00    -0.646 OA
ATOM     10  O3  IDS d 303     131.057   6.036  77.907  0.00  0.00    -0.390 OA
ATOM     11  C5  IDS d 303     134.087   6.328  77.932  0.00  0.00     0.152 C 
ATOM     12  O2  IDS d 303     132.037   9.444  78.465  0.00  0.00    -0.244 OA
ATOM     13  C1  IDS d 303     133.161   8.220  76.724  0.00  0.00     0.161 C 
ATOM     14  S   IDS d 303     131.289  10.814  78.283  0.00  0.00     0.252 S 
ATOM     15  C2  IDS d 303     131.933   8.272  77.671  0.00  0.00     0.134 C 
ATOM     16  O5  IDS d 303     134.285   7.631  77.367  0.00  0.00    -0.340 OA
ATOM     17  H   IDS d 303     133.000   5.468  79.545  0.00  0.00     0.092 H 
ATOM     18  H   IDS d 303     131.225   7.393  79.471  0.00  0.00     0.091 H 
ATOM     19  H   IDS d 303     131.578   5.756  77.139  0.00  0.00     0.210 HD
ATOM     20  H   IDS d 303     133.639   5.648  77.238  0.00  0.00     0.104 H 
ATOM     21  H   IDS d 303     133.455   9.214  76.462  0.00  0.00     0.133 H 
ATOM     22  H   IDS d 303     131.071   8.269  77.037  0.00  0.00     0.097 H 
ATOM     23  C2  SGN d 304     133.463   8.299  82.356  0.00  0.00     0.081 C 
ATOM     24  C1  SGN d 304     133.569   7.052  81.435  0.00  0.00     0.150 C 
ATOM     25  O3  SGN d 304     134.646  10.273  83.087  0.00  0.00    -0.391 OA
ATOM     26  O3S SGN d 304     130.415   9.760  83.412  0.00  0.00    -0.296 OA
ATOM     27  O5S SGN d 304     136.945   4.226  85.340  0.00  0.00    -0.572 OA
ATOM     28  O2S SGN d 304     130.896   7.415  83.296  0.00  0.00    -0.296 OA
ATOM     29  O4S SGN d 304     138.907   5.144  84.320  0.00  0.00    -0.572 OA
ATOM     30  O4  SGN d 304     136.988   9.236  82.820  0.00  0.00    -0.348 OA
ATOM     31  O6  SGN d 304     136.753   5.311  83.239  0.00  0.00    -0.254 OA
ATOM     32  S1  SGN d 304     130.792   8.658  82.576  0.00  0.00     0.156 S 
ATOM     33  C4  SGN d 304     135.941   8.259  82.693  0.00  0.00     0.095 C 
ATOM     34  O6S SGN d 304     137.862   3.195  83.398  0.00  0.00    -0.572 OA
ATOM     35  N   SGN d 304     132.265   9.060  81.964  0.00  0.00    -0.210 NA
ATOM     36  C5  SGN d 304     135.998   7.023  81.736  0.00  0.00     0.091 C 
ATOM     37  C3  SGN d 304     134.749   9.142  82.240  0.00  0.00     0.083 C 
ATOM     38  C6  SGN d 304     137.101   6.005  82.058  0.00  0.00     0.067 C 
ATOM     39  O5  SGN d 304     134.741   6.299  81.748  0.00  0.00    -0.349 OA
ATOM     40  O1S SGN d 304     129.946   8.536  81.421  0.00  0.00    -0.296 OA
ATOM     41  S2  SGN d 304     137.682   4.419  84.122  0.00  0.00     0.251 S 
ATOM     42  H   SGN d 304     133.366   8.013  83.382  0.00  0.00     0.076 H 
ATOM     43  H   SGN d 304     132.707   6.443  81.612  0.00  0.00     0.131 H 
ATOM     44  H   SGN d 304     133.901  10.824  82.802  0.00  0.00     0.210 HD
ATOM     45  H   SGN d 304     131.011   9.804  84.176  0.00  0.00     0.231 HD
ATOM     46  H   SGN d 304     131.474   7.535  84.066  0.00  0.00     0.231 HD
ATOM     47  H   SGN d 304     135.946   7.735  83.626  0.00  0.00     0.091 H 
ATOM     48  H   SGN d 304     132.190   8.987  80.949  0.00  0.00     0.140 HD
ATOM     49  H   SGN d 304     136.211   7.453  80.780  0.00  0.00     0.090 H 
ATOM     50  H   SGN d 304     134.893   9.474  81.233  0.00  0.00     0.089 H 
ATOM     51  H   SGN d 304     137.196   5.311  81.249  0.00  0.00     0.080 H 
ATOM     52  H   SGN d 304     138.033   6.511  82.196  0.00  0.00     0.080 H 
ATOM     53  H   SGN d 304     129.048   8.298  81.701  0.00  0.00     0.231 HD
ATOM     54  O62 IDS d 301     132.480  10.757  70.616  0.00  0.00    -0.646 OA
ATOM     55  O1  IDS d 301     131.697   9.129  65.931  0.00  0.00    -0.368 OA
ATOM     56  C4  IDS d 301     132.940   7.780  69.586  0.00  0.00     0.103 C 
ATOM     57  C5  IDS d 301     132.922   9.182  68.870  0.00  0.00     0.152 C 
ATOM     58  O61 IDS d 301     134.290  10.971  69.636  0.00  0.00    -0.646 OA
ATOM     59  S   IDS d 301     132.033   5.372  65.260  0.00  0.00     0.252 S 
ATOM     60  C3  IDS d 301     132.225   6.707  68.705  0.00  0.00     0.094 C 
ATOM     61  C1  IDS d 301     131.345   8.513  67.139  0.00  0.00     0.158 C 
ATOM     62  C6  IDS d 301     133.245  10.374  69.762  0.00  0.00     0.206 C 
ATOM     63  O5  IDS d 301     131.631   9.372  68.249  0.00  0.00    -0.340 OA
ATOM     64  O4  IDS d 301     133.052   7.131  70.863  0.00  0.00    -0.348 OA
ATOM     65  O3S IDS d 301     130.853   4.990  64.524  0.00  0.00    -0.572 OA
ATOM     66  O1S IDS d 301     132.881   6.258  64.509  0.00  0.00    -0.572 OA
ATOM     67  C2  IDS d 301     132.133   7.173  67.239  0.00  0.00     0.134 C 
ATOM     68  O3  IDS d 301     132.954   5.490  68.762  0.00  0.00    -0.390 OA
ATOM     69  O2  IDS d 301     131.472   6.176  66.481  0.00  0.00    -0.244 OA
ATOM     70  O2S IDS d 301     132.737   4.247  65.819  0.00  0.00    -0.572 OA
ATOM     71  H   IDS d 301     131.496   8.532  65.193  0.00  0.00     0.212 HD
ATOM     72  H   IDS d 301     133.809   8.332  69.876  0.00  0.00     0.092 H 
ATOM     73  H   IDS d 301     133.712   9.155  68.149  0.00  0.00     0.104 H 
ATOM     74  H   IDS d 301     131.234   6.563  69.083  0.00  0.00     0.091 H 
ATOM     75  H   IDS d 301     130.294   8.318  67.164  0.00  0.00     0.133 H 
ATOM     76  H   IDS d 301     133.120   7.330  66.858  0.00  0.00     0.097 H 
ATOM     77  H   IDS d 301     133.849   5.633  68.418  0.00  0.00     0.210 HD
ATOM     78  O1S SGN d 302     135.305   2.927  70.824  0.00  0.00    -0.296 OA
ATOM     79  C2  SGN d 302     134.531   6.211  72.610  0.00  0.00     0.081 C 
ATOM     80  S2  SGN d 302     135.252  12.031  74.220  0.00  0.00     0.251 S 
ATOM     81  N   SGN d 302     134.461   4.901  71.939  0.00  0.00    -0.210 NA
ATOM     82  C4  SGN d 302     133.654   7.677  74.431  0.00  0.00     0.095 C 
ATOM     83  O6  SGN d 302     134.696  10.571  74.178  0.00  0.00    -0.254 OA
ATOM     84  C5  SGN d 302     133.312   8.745  73.342  0.00  0.00     0.091 C 
ATOM     85  O4S SGN d 302     134.341  12.808  75.013  0.00  0.00    -0.572 OA
ATOM     86  O2S SGN d 302     136.423   4.972  70.414  0.00  0.00    -0.296 OA
ATOM     87  S1  SGN d 302     135.800   4.142  71.399  0.00  0.00     0.156 S 
ATOM     88  O5S SGN d 302     136.541  11.922  74.829  0.00  0.00    -0.572 OA
ATOM     89  O6S SGN d 302     135.313  12.454  72.851  0.00  0.00    -0.572 OA
ATOM     90  C6  SGN d 302     133.381  10.202  73.833  0.00  0.00     0.067 C 
ATOM     91  O3  SGN d 302     133.859   5.271  74.704  0.00  0.00    -0.391 OA
ATOM     92  C3  SGN d 302     133.544   6.287  73.768  0.00  0.00     0.083 C 
ATOM     93  O4  SGN d 302     132.802   7.532  75.563  0.00  0.00    -0.348 OA
ATOM     94  O3S SGN d 302     136.620   3.921  72.555  0.00  0.00    -0.296 OA
ATOM     95  C1  SGN d 302     134.241   7.331  71.578  0.00  0.00     0.150 C 
ATOM     96  O5  SGN d 302     134.221   8.615  72.213  0.00  0.00    -0.349 OA
ATOM     97  H   SGN d 302     134.759   3.135  70.049  0.00  0.00     0.231 HD
ATOM     98  H   SGN d 302     135.515   6.340  73.012  0.00  0.00     0.076 H 
ATOM     99  H   SGN d 302     133.855   5.026  71.127  0.00  0.00     0.140 HD
ATOM    100  H   SGN d 302     134.604   8.018  74.785  0.00  0.00     0.091 H 
ATOM    101  H   SGN d 302     132.298   8.547  73.068  0.00  0.00     0.090 H 
ATOM    102  H   SGN d 302     135.824   5.085  69.660  0.00  0.00     0.231 HD
ATOM    103  H   SGN d 302     133.033  10.848  73.054  0.00  0.00     0.080 H 
ATOM    104  H   SGN d 302     132.769  10.290  74.706  0.00  0.00     0.080 H 
ATOM    105  H   SGN d 302     133.786   4.404  74.276  0.00  0.00     0.210 HD
ATOM    106  H   SGN d 302     132.544   6.147  73.417  0.00  0.00     0.089 H 
ATOM    107  H   SGN d 302     136.147   3.354  73.183  0.00  0.00     0.231 HD
ATOM    108  H   SGN d 302     135.041   7.292  70.869  0.00  0.00     0.131 H 
ATOM    109  C1  IDS d 305     138.024   8.991  83.739  0.00  0.00     0.161 C 
ATOM    110  O1S IDS d 305     140.964   8.267  80.340  0.00  0.00    -0.572 OA
ATOM    111  S   IDS d 305     140.313   9.437  80.860  0.00  0.00     0.252 S 
ATOM    112  C4  IDS d 305     139.357  10.975  85.571  0.00  0.00    -0.005 C 
ATOM    113  O61 IDS d 305     136.408  11.875  87.004  0.00  0.00    -0.646 OA
ATOM    114  O3  IDS d 305     141.257  10.925  84.087  0.00  0.00    -0.393 OA
ATOM    115  O62 IDS d 305     137.203  10.113  87.759  0.00  0.00    -0.646 OA
ATOM    116  O2S IDS d 305     139.064   9.693  80.209  0.00  0.00    -0.572 OA
ATOM    117  O2  IDS d 305     140.007   9.081  82.353  0.00  0.00    -0.244 OA
ATOM    118  O5  IDS d 305     137.621   9.305  85.082  0.00  0.00    -0.343 OA
ATOM    119  C5  IDS d 305     137.823  10.670  85.513  0.00  0.00     0.127 C 
ATOM    120  C3  IDS d 305     140.146  10.158  84.508  0.00  0.00     0.069 C 
ATOM    121  C2  IDS d 305     139.253   9.829  83.294  0.00  0.00     0.132 C 
ATOM    122  C6  IDS d 305     137.103  10.896  86.839  0.00  0.00     0.203 C 
ATOM    123  O3S IDS d 305     141.177  10.580  80.900  0.00  0.00    -0.572 OA
ATOM    124  H   IDS d 305     138.276   7.950  83.745  0.00  0.00     0.133 H 
ATOM    125  H   IDS d 305     139.510  12.018  85.392  0.00  0.00     0.041 H 
ATOM    126  H   IDS d 305     139.716  10.696  86.540  0.00  0.00     0.041 H 
ATOM    127  H   IDS d 305     141.817  11.131  84.852  0.00  0.00     0.210 HD
ATOM    128  H   IDS d 305     137.398  11.361  84.815  0.00  0.00     0.100 H 
ATOM    129  H   IDS d 305     140.470   9.236  84.942  0.00  0.00     0.087 H 
ATOM    130  H   IDS d 305     138.912  10.743  82.854  0.00  0.00     0.097 H 
ENDROOT
TORSDOF 39
ENDMDL
MODEL 57
REMARK VINA RESULT:      -5.1      3.699     13.834
REMARK  0 active torsions:
REMARK  status: ('A' for Active; 'I' for Inactive)
REMARK       I    between atoms: C2_2  and  N_68 
REMARK       I    between atoms: C1_3  and  O4_24 
REMARK       I    between atoms: O1S_5  and  S1_58 
REMARK       I    between atoms: O1_6  and  C1_31 
REMARK       I    between atoms: C4_7  and  O4_36 
REMARK       I    between atoms: C1_8  and  O4_37 
REMARK       I    between atoms: O3_9  and  C3_74 
REMARK       I    between atoms: C5_10  and  C6_32 
REMARK       I    between atoms: C2_11  and  N_20 
REMARK       I    between atoms: C6_12  and  C5_53 
REMARK       I    between atoms: S2_14  and  O6_33 
REMARK       I    between atoms: O3S_16  and  S1_51 
REMARK       I    between atoms: S_17  and  O2_44 
REMARK       I    between atoms: N_20  and  S1_58 
REMARK       I    between atoms: O4_24  and  C4_38 
REMARK       I    between atoms: S_25  and  O2_64 
REMARK       I    between atoms: O2S_27  and  S1_51 
REMARK       I    between atoms: C4_28  and  O4_73 
REMARK       I    between atoms: C3_30  and  O3_62 
REMARK       I    between atoms: O6_33  and  C6_63 
REMARK       I    between atoms: O3_35  and  C3_55 
REMARK       I    between atoms: O4_36  and  C1_84 
REMARK       I    between atoms: O4_37  and  C4_54 
REMARK       I    between atoms: C3_39  and  O3_48 
REMARK       I    between atoms: C5_42  and  C6_63 
REMARK       I    between atoms: O2_44  and  C2_61 
REMARK       I    between atoms: O6_45  and  C6_77 
REMARK       I    between atoms: O6_45  and  S2_82 
REMARK       I    between atoms: C5_49  and  C6_76 
REMARK       I    between atoms: S1_51  and  N_68 
REMARK       I    between atoms: S1_51  and  O1S_81 
REMARK       I    between atoms: O2S_52  and  S1_58 
REMARK       I    between atoms: C2_57  and  O2_64 
REMARK       I    between atoms: S1_58  and  O3S_75 
REMARK       I    between atoms: O3_66  and  C3_67 
REMARK       I    between atoms: O2_69  and  C2_79 
REMARK       I    between atoms: O2_69  and  S_72 
REMARK       I    between atoms: C5_70  and  C6_77 
REMARK       I    between atoms: C1_71  and  O4_73 
ROOT
ATOM      1  O2S IDS d 303     132.532  14.280  81.062  0.00  0.00    -0.572 OA
ATOM      2  C6  IDS d 303     134.689   7.392  80.385  0.00  0.00     0.206 C 
ATOM      3  O1S IDS d 303     133.538  13.965  78.919  0.00  0.00    -0.572 OA
ATOM      4  O3S IDS d 303     131.187  13.579  79.196  0.00  0.00    -0.572 OA
ATOM      5  O4  IDS d 303     133.928   9.929  81.983  0.00  0.00    -0.348 OA
ATOM      6  O61 IDS d 303     134.483   6.320  80.916  0.00  0.00    -0.646 OA
ATOM      7  C4  IDS d 303     132.964   9.046  81.390  0.00  0.00     0.103 C 
ATOM      8  C3  IDS d 303     131.802   9.995  80.977  0.00  0.00     0.094 C 
ATOM      9  O62 IDS d 303     135.829   7.658  80.065  0.00  0.00    -0.646 OA
ATOM     10  O3  IDS d 303     130.669   9.201  80.670  0.00  0.00    -0.390 OA
ATOM     11  C5  IDS d 303     133.548   8.375  80.123  0.00  0.00     0.152 C 
ATOM     12  O2  IDS d 303     132.783  12.064  80.202  0.00  0.00    -0.244 OA
ATOM     13  C1  IDS d 303     133.008  10.233  78.656  0.00  0.00     0.161 C 
ATOM     14  S   IDS d 303     132.488  13.558  79.814  0.00  0.00     0.252 S 
ATOM     15  C2  IDS d 303     132.126  10.891  79.750  0.00  0.00     0.134 C 
ATOM     16  O5  IDS d 303     134.007   9.398  79.229  0.00  0.00    -0.340 OA
ATOM     17  H   IDS d 303     132.665   8.262  82.054  0.00  0.00     0.092 H 
ATOM     18  H   IDS d 303     131.630  10.654  81.802  0.00  0.00     0.091 H 
ATOM     19  H   IDS d 303     130.875   8.622  79.920  0.00  0.00     0.210 HD
ATOM     20  H   IDS d 303     132.755   7.795  79.701  0.00  0.00     0.104 H 
ATOM     21  H   IDS d 303     133.531  10.992  78.112  0.00  0.00     0.133 H 
ATOM     22  H   IDS d 303     131.182  11.090  79.287  0.00  0.00     0.097 H 
ATOM     23  C2  SGN d 304     134.663  11.175  83.965  0.00  0.00     0.081 C 
ATOM     24  C1  SGN d 304     134.143   9.834  83.375  0.00  0.00     0.150 C 
ATOM     25  O3  SGN d 304     136.551  12.681  83.983  0.00  0.00    -0.391 OA
ATOM     26  O3S SGN d 304     132.584  13.799  85.117  0.00  0.00    -0.296 OA
ATOM     27  O5S SGN d 304     137.281   6.702  87.245  0.00  0.00    -0.572 OA
ATOM     28  O2S SGN d 304     132.253  11.457  85.503  0.00  0.00    -0.296 OA
ATOM     29  O4S SGN d 304     139.128   6.655  85.721  0.00  0.00    -0.572 OA
ATOM     30  O4  SGN d 304     138.306  10.836  83.597  0.00  0.00    -0.348 OA
ATOM     31  O6  SGN d 304     136.945   7.400  85.002  0.00  0.00    -0.254 OA
ATOM     32  S1  SGN d 304     132.379  12.509  84.527  0.00  0.00     0.156 S 
ATOM     33  C4  SGN d 304     137.005  10.299  83.889  0.00  0.00     0.095 C 
ATOM     34  O6S SGN d 304     137.330   5.088  85.492  0.00  0.00    -0.572 OA
ATOM     35  N   SGN d 304     133.710  12.237  83.601  0.00  0.00    -0.210 NA
ATOM     36  C5  SGN d 304     136.435   8.980  83.270  0.00  0.00     0.091 C 
ATOM     37  C3  SGN d 304     136.082  11.461  83.435  0.00  0.00     0.083 C 
ATOM     38  C6  SGN d 304     137.201   7.704  83.646  0.00  0.00     0.067 C 
ATOM     39  O5  SGN d 304     135.054   8.774  83.667  0.00  0.00    -0.349 OA
ATOM     40  O1S SGN d 304     131.287  12.503  83.594  0.00  0.00    -0.296 OA
ATOM     41  S2  SGN d 304     137.727   6.399  85.913  0.00  0.00     0.251 S 
ATOM     42  H   SGN d 304     134.730  11.126  85.032  0.00  0.00     0.076 H 
ATOM     43  H   SGN d 304     133.201   9.619  83.836  0.00  0.00     0.131 H 
ATOM     44  H   SGN d 304     135.973  13.406  83.697  0.00  0.00     0.210 HD
ATOM     45  H   SGN d 304     133.328  13.756  85.737  0.00  0.00     0.231 HD
ATOM     46  H   SGN d 304     133.006  11.492  86.114  0.00  0.00     0.231 HD
ATOM     47  H   SGN d 304     137.067   9.979  84.909  0.00  0.00     0.091 H 
ATOM     48  H   SGN d 304     133.375  12.022  82.662  0.00  0.00     0.140 HD
ATOM     49  H   SGN d 304     136.537   9.131  82.216  0.00  0.00     0.090 H 
ATOM     50  H   SGN d 304     136.078  11.537  82.368  0.00  0.00     0.089 H 
ATOM     51  H   SGN d 304     136.874   6.894  83.029  0.00  0.00     0.080 H 
ATOM     52  H   SGN d 304     138.250   7.854  83.500  0.00  0.00     0.080 H 
ATOM     53  H   SGN d 304     130.455  12.659  84.068  0.00  0.00     0.231 HD
ATOM     54  O62 IDS d 301     131.722  11.743  72.309  0.00  0.00    -0.646 OA
ATOM     55  O1  IDS d 301     129.363   9.722  68.365  0.00  0.00    -0.368 OA
ATOM     56  C4  IDS d 301     130.952   8.671  71.983  0.00  0.00     0.103 C 
ATOM     57  C5  IDS d 301     131.209   9.838  70.956  0.00  0.00     0.152 C 
ATOM     58  O61 IDS d 301     133.216  11.113  71.022  0.00  0.00    -0.646 OA
ATOM     59  S   IDS d 301     128.318   6.043  68.594  0.00  0.00     0.252 S 
ATOM     60  C3  IDS d 301     129.745   7.794  71.523  0.00  0.00     0.094 C 
ATOM     61  C1  IDS d 301     129.135   9.495  69.728  0.00  0.00     0.158 C 
ATOM     62  C6  IDS d 301     132.098  10.967  71.462  0.00  0.00     0.206 C 
ATOM     63  O5  IDS d 301     129.936  10.371  70.530  0.00  0.00    -0.340 OA
ATOM     64  O4  IDS d 301     131.156   8.258  73.344  0.00  0.00    -0.348 OA
ATOM     65  O3S IDS d 301     126.938   5.993  68.179  0.00  0.00    -0.572 OA
ATOM     66  O1S IDS d 301     129.197   6.417  67.519  0.00  0.00    -0.572 OA
ATOM     67  C2  IDS d 301     129.456   7.999  70.023  0.00  0.00     0.134 C 
ATOM     68  O3  IDS d 301     130.041   6.426  71.757  0.00  0.00    -0.390 OA
ATOM     69  O2  IDS d 301     128.352   7.194  69.654  0.00  0.00    -0.244 OA
ATOM     70  O2S IDS d 301     128.742   4.855  69.289  0.00  0.00    -0.572 OA
ATOM     71  H   IDS d 301     128.811   9.120  67.840  0.00  0.00     0.212 HD
ATOM     72  H   IDS d 301     131.994   8.912  71.981  0.00  0.00     0.092 H 
ATOM     73  H   IDS d 301     131.752   9.402  70.144  0.00  0.00     0.104 H 
ATOM     74  H   IDS d 301     128.881   8.087  72.083  0.00  0.00     0.091 H 
ATOM     75  H   IDS d 301     128.114   9.701  69.973  0.00  0.00     0.133 H 
ATOM     76  H   IDS d 301     130.320   7.720  69.458  0.00  0.00     0.097 H 
ATOM     77  H   IDS d 301     130.825   6.173  71.246  0.00  0.00     0.210 HD
ATOM     78  O1S SGN d 302     131.880   3.585  73.970  0.00  0.00    -0.296 OA
ATOM     79  C2  SGN d 302     132.641   7.183  74.995  0.00  0.00     0.081 C 
ATOM     80  S2  SGN d 302     135.535  12.531  74.980  0.00  0.00     0.251 S 
ATOM     81  N   SGN d 302     131.999   5.892  74.689  0.00  0.00    -0.210 NA
ATOM     82  C4  SGN d 302     132.738   9.159  76.518  0.00  0.00     0.095 C 
ATOM     83  O6  SGN d 302     134.551  11.388  75.392  0.00  0.00    -0.254 OA
ATOM     84  C5  SGN d 302     132.502  10.072  75.271  0.00  0.00     0.091 C 
ATOM     85  O4S SGN d 302     135.136  13.711  75.697  0.00  0.00    -0.572 OA
ATOM     86  O2S SGN d 302     133.456   4.982  72.892  0.00  0.00    -0.296 OA
ATOM     87  S1  SGN d 302     132.858   4.618  74.139  0.00  0.00     0.156 S 
ATOM     88  O5S SGN d 302     136.830  12.071  75.377  0.00  0.00    -0.572 OA
ATOM     89  O6S SGN d 302     135.396  12.659  73.559  0.00  0.00    -0.572 OA
ATOM     90  C6  SGN d 302     133.146  11.467  75.370  0.00  0.00     0.067 C 
ATOM     91  O3  SGN d 302     132.228   6.929  77.338  0.00  0.00    -0.391 OA
ATOM     92  C3  SGN d 302     132.037   7.812  76.245  0.00  0.00     0.083 C 
ATOM     93  O4  SGN d 302     132.183   9.532  77.775  0.00  0.00    -0.348 OA
ATOM     94  O3S SGN d 302     133.818   4.320  75.162  0.00  0.00    -0.296 OA
ATOM     95  C1  SGN d 302     132.482   8.134  73.782  0.00  0.00     0.150 C 
ATOM     96  O5  SGN d 302     133.023   9.428  74.075  0.00  0.00    -0.349 OA
ATOM     97  H   SGN d 302     131.259   3.839  73.269  0.00  0.00     0.231 HD
ATOM     98  H   SGN d 302     133.681   7.015  75.185  0.00  0.00     0.076 H 
ATOM     99  H   SGN d 302     131.288   6.085  73.983  0.00  0.00     0.140 HD
ATOM    100  H   SGN d 302     133.803   9.189  76.616  0.00  0.00     0.091 H 
ATOM    101  H   SGN d 302     131.443  10.211  75.225  0.00  0.00     0.090 H 
ATOM    102  H   SGN d 302     132.761   5.171  72.242  0.00  0.00     0.231 HD
ATOM    103  H   SGN d 302     132.844  12.049  74.524  0.00  0.00     0.080 H 
ATOM    104  H   SGN d 302     132.821  11.921  76.282  0.00  0.00     0.080 H 
ATOM    105  H   SGN d 302     131.784   6.087  77.154  0.00  0.00     0.210 HD
ATOM    106  H   SGN d 302     130.990   7.984  76.109  0.00  0.00     0.089 H 
ATOM    107  H   SGN d 302     133.354   4.081  75.980  0.00  0.00     0.231 HD
ATOM    108  H   SGN d 302     133.034   7.686  72.982  0.00  0.00     0.131 H 
ATOM    109  C1  IDS d 305     139.399  10.396  84.364  0.00  0.00     0.161 C 
ATOM    110  O1S IDS d 305     141.051   8.079  80.811  0.00  0.00    -0.572 OA
ATOM    111  S   IDS d 305     140.949   9.476  81.127  0.00  0.00     0.252 S 
ATOM    112  C4  IDS d 305     141.691  12.049  85.406  0.00  0.00    -0.005 C 
ATOM    113  O61 IDS d 305     139.615  14.190  87.039  0.00  0.00    -0.646 OA
ATOM    114  O3  IDS d 305     143.062  11.057  83.687  0.00  0.00    -0.393 OA
ATOM    115  O62 IDS d 305     139.966  12.420  88.063  0.00  0.00    -0.646 OA
ATOM    116  O2S IDS d 305     139.728  10.050  80.649  0.00  0.00    -0.572 OA
ATOM    117  O2  IDS d 305     140.914   9.520  82.691  0.00  0.00    -0.244 OA
ATOM    118  O5  IDS d 305     139.451  11.063  85.636  0.00  0.00    -0.343 OA
ATOM    119  C5  IDS d 305     140.173  12.315  85.679  0.00  0.00     0.127 C 
ATOM    120  C3  IDS d 305     141.900  10.831  84.462  0.00  0.00     0.069 C 
ATOM    121  C2  IDS d 305     140.685  10.642  83.530  0.00  0.00     0.132 C 
ATOM    122  C6  IDS d 305     139.902  13.013  87.008  0.00  0.00     0.203 C 
ATOM    123  O3S IDS d 305     142.114  10.217  80.742  0.00  0.00    -0.572 OA
ATOM    124  H   IDS d 305     139.301   9.353  84.585  0.00  0.00     0.133 H 
ATOM    125  H   IDS d 305     142.119  12.918  84.952  0.00  0.00     0.041 H 
ATOM    126  H   IDS d 305     142.164  11.831  86.341  0.00  0.00     0.041 H 
ATOM    127  H   IDS d 305     143.825  11.176  84.275  0.00  0.00     0.210 HD
ATOM    128  H   IDS d 305     139.835  12.981  84.912  0.00  0.00     0.100 H 
ATOM    129  H   IDS d 305     142.009   9.944  85.050  0.00  0.00     0.087 H 
ATOM    130  H   IDS d 305     140.556  11.526  82.941  0.00  0.00     0.097 H 
ENDROOT
TORSDOF 39
ENDMDL
MODEL 58
REMARK VINA RESULT:      -5.1      3.756     14.085
REMARK  0 active torsions:
REMARK  status: ('A' for Active; 'I' for Inactive)
REMARK       I    between atoms: C2_2  and  N_68 
REMARK       I    between atoms: C1_3  and  O4_24 
REMARK       I    between atoms: O1S_5  and  S1_58 
REMARK       I    between atoms: O1_6  and  C1_31 
REMARK       I    between atoms: C4_7  and  O4_36 
REMARK       I    between atoms: C1_8  and  O4_37 
REMARK       I    between atoms: O3_9  and  C3_74 
REMARK       I    between atoms: C5_10  and  C6_32 
REMARK       I    between atoms: C2_11  and  N_20 
REMARK       I    between atoms: C6_12  and  C5_53 
REMARK       I    between atoms: S2_14  and  O6_33 
REMARK       I    between atoms: O3S_16  and  S1_51 
REMARK       I    between atoms: S_17  and  O2_44 
REMARK       I    between atoms: N_20  and  S1_58 
REMARK       I    between atoms: O4_24  and  C4_38 
REMARK       I    between atoms: S_25  and  O2_64 
REMARK       I    between atoms: O2S_27  and  S1_51 
REMARK       I    between atoms: C4_28  and  O4_73 
REMARK       I    between atoms: C3_30  and  O3_62 
REMARK       I    between atoms: O6_33  and  C6_63 
REMARK       I    between atoms: O3_35  and  C3_55 
REMARK       I    between atoms: O4_36  and  C1_84 
REMARK       I    between atoms: O4_37  and  C4_54 
REMARK       I    between atoms: C3_39  and  O3_48 
REMARK       I    between atoms: C5_42  and  C6_63 
REMARK       I    between atoms: O2_44  and  C2_61 
REMARK       I    between atoms: O6_45  and  C6_77 
REMARK       I    between atoms: O6_45  and  S2_82 
REMARK       I    between atoms: C5_49  and  C6_76 
REMARK       I    between atoms: S1_51  and  N_68 
REMARK       I    between atoms: S1_51  and  O1S_81 
REMARK       I    between atoms: O2S_52  and  S1_58 
REMARK       I    between atoms: C2_57  and  O2_64 
REMARK       I    between atoms: S1_58  and  O3S_75 
REMARK       I    between atoms: O3_66  and  C3_67 
REMARK       I    between atoms: O2_69  and  C2_79 
REMARK       I    between atoms: O2_69  and  S_72 
REMARK       I    between atoms: C5_70  and  C6_77 
REMARK       I    between atoms: C1_71  and  O4_73 
ROOT
ATOM      1  O2S IDS d 303     139.503   6.656  81.114  0.00  0.00    -0.572 OA
ATOM      2  C6  IDS d 303     135.309  12.568  81.274  0.00  0.00     0.206 C 
ATOM      3  O1S IDS d 303     137.231   6.036  80.712  0.00  0.00    -0.572 OA
ATOM      4  O3S IDS d 303     138.640   6.645  78.869  0.00  0.00    -0.572 OA
ATOM      5  O4  IDS d 303     137.832  10.921  81.978  0.00  0.00    -0.348 OA
ATOM      6  O61 IDS d 303     135.436  13.773  81.202  0.00  0.00    -0.646 OA
ATOM      7  C4  IDS d 303     137.627  11.556  80.706  0.00  0.00     0.103 C 
ATOM      8  C3  IDS d 303     138.325  10.596  79.700  0.00  0.00     0.094 C 
ATOM      9  O62 IDS d 303     134.517  12.127  82.081  0.00  0.00    -0.646 OA
ATOM     10  O3  IDS d 303     138.461  11.273  78.463  0.00  0.00    -0.390 OA
ATOM     11  C5  IDS d 303     136.118  11.634  80.373  0.00  0.00     0.152 C 
ATOM     12  O2  IDS d 303     137.931   8.332  80.453  0.00  0.00    -0.244 OA
ATOM     13  C1  IDS d 303     136.005   9.385  79.465  0.00  0.00     0.161 C 
ATOM     14  S   IDS d 303     138.347   6.827  80.268  0.00  0.00     0.252 S 
ATOM     15  C2  IDS d 303     137.553   9.269  79.457  0.00  0.00     0.134 C 
ATOM     16  O5  IDS d 303     135.560  10.315  80.446  0.00  0.00    -0.340 OA
ATOM     17  H   IDS d 303     138.009  12.556  80.683  0.00  0.00     0.092 H 
ATOM     18  H   IDS d 303     139.268  10.328  80.127  0.00  0.00     0.091 H 
ATOM     19  H   IDS d 303     137.582  11.494  78.117  0.00  0.00     0.210 HD
ATOM     20  H   IDS d 303     136.051  12.049  79.389  0.00  0.00     0.104 H 
ATOM     21  H   IDS d 303     135.577   8.442  79.732  0.00  0.00     0.133 H 
ATOM     22  H   IDS d 303     137.821   8.963  78.467  0.00  0.00     0.097 H 
ATOM     23  C2  SGN d 304     139.322  10.517  83.884  0.00  0.00     0.081 C 
ATOM     24  C1  SGN d 304     138.704  11.545  82.896  0.00  0.00     0.150 C 
ATOM     25  O3  SGN d 304     138.796   9.026  85.710  0.00  0.00    -0.391 OA
ATOM     26  O3S SGN d 304     142.298   8.696  83.281  0.00  0.00    -0.296 OA
ATOM     27  O5S SGN d 304     138.654  15.750  87.013  0.00  0.00    -0.572 OA
ATOM     28  O2S SGN d 304     141.936  11.016  82.800  0.00  0.00    -0.296 OA
ATOM     29  O4S SGN d 304     136.457  15.076  87.685  0.00  0.00    -0.572 OA
ATOM     30  O4  SGN d 304     136.850  10.456  86.605  0.00  0.00    -0.348 OA
ATOM     31  O6  SGN d 304     137.437  14.245  85.640  0.00  0.00    -0.254 OA
ATOM     32  S1  SGN d 304     141.518   9.658  82.559  0.00  0.00     0.156 S 
ATOM     33  C4  SGN d 304     137.616  11.144  85.603  0.00  0.00     0.095 C 
ATOM     34  O6S SGN d 304     136.754  16.533  85.807  0.00  0.00    -0.572 OA
ATOM     35  N   SGN d 304     139.976   9.459  83.096  0.00  0.00    -0.210 NA
ATOM     36  C5  SGN d 304     137.013  12.144  84.562  0.00  0.00     0.091 C 
ATOM     37  C3  SGN d 304     138.222   9.957  84.808  0.00  0.00     0.083 C 
ATOM     38  C6  SGN d 304     136.398  13.415  85.165  0.00  0.00     0.067 C 
ATOM     39  O5  SGN d 304     138.020  12.575  83.611  0.00  0.00    -0.349 OA
ATOM     40  O1S SGN d 304     141.450   9.362  81.156  0.00  0.00    -0.296 OA
ATOM     41  S2  SGN d 304     137.307  15.473  86.597  0.00  0.00     0.251 S 
ATOM     42  H   SGN d 304     140.055  10.980  84.511  0.00  0.00     0.076 H 
ATOM     43  H   SGN d 304     139.506  11.983  82.338  0.00  0.00     0.131 H 
ATOM     44  H   SGN d 304     139.174   8.285  85.211  0.00  0.00     0.210 HD
ATOM     45  H   SGN d 304     142.317   8.934  84.221  0.00  0.00     0.231 HD
ATOM     46  H   SGN d 304     141.970  11.179  83.756  0.00  0.00     0.231 HD
ATOM     47  H   SGN d 304     138.220  11.836  86.152  0.00  0.00     0.091 H 
ATOM     48  H   SGN d 304     139.396   9.306  82.271  0.00  0.00     0.140 HD
ATOM     49  H   SGN d 304     136.229  11.583  84.098  0.00  0.00     0.090 H 
ATOM     50  H   SGN d 304     137.464   9.466  84.237  0.00  0.00     0.089 H 
ATOM     51  H   SGN d 304     135.838  13.934  84.415  0.00  0.00     0.080 H 
ATOM     52  H   SGN d 304     135.744  13.154  85.971  0.00  0.00     0.080 H 
ATOM     53  H   SGN d 304     142.330   9.459  80.761  0.00  0.00     0.231 HD
ATOM     54  O62 IDS d 301     132.587   5.574  75.222  0.00  0.00    -0.646 OA
ATOM     55  O1  IDS d 301     130.296   6.013  70.776  0.00  0.00    -0.368 OA
ATOM     56  C4  IDS d 301     131.688   8.308  73.862  0.00  0.00     0.103 C 
ATOM     57  C5  IDS d 301     131.199   6.817  73.722  0.00  0.00     0.152 C 
ATOM     58  O61 IDS d 301     130.558   5.549  75.630  0.00  0.00    -0.646 OA
ATOM     59  S   IDS d 301     129.746   9.541  69.385  0.00  0.00     0.252 S 
ATOM     60  C3  IDS d 301     131.723   9.005  72.465  0.00  0.00     0.094 C 
ATOM     61  C1  IDS d 301     131.352   6.774  71.292  0.00  0.00     0.158 C 
ATOM     62  C6  IDS d 301     131.469   5.926  74.928  0.00  0.00     0.206 C 
ATOM     63  O5  IDS d 301     131.801   6.239  72.543  0.00  0.00    -0.340 OA
ATOM     64  O4  IDS d 301     132.430   9.211  74.697  0.00  0.00    -0.348 OA
ATOM     65  O3S IDS d 301     130.210   9.509  68.020  0.00  0.00    -0.572 OA
ATOM     66  O1S IDS d 301     128.583   8.719  69.586  0.00  0.00    -0.572 OA
ATOM     67  C2  IDS d 301     130.853   8.242  71.448  0.00  0.00     0.134 C 
ATOM     68  O3  IDS d 301     131.238  10.333  72.590  0.00  0.00    -0.390 OA
ATOM     69  O2  IDS d 301     130.923   8.902  70.198  0.00  0.00    -0.244 OA
ATOM     70  O2S IDS d 301     129.594  10.878  69.897  0.00  0.00    -0.572 OA
ATOM     71  H   IDS d 301     130.007   6.392  69.931  0.00  0.00     0.212 HD
ATOM     72  H   IDS d 301     131.178   8.021  74.758  0.00  0.00     0.092 H 
ATOM     73  H   IDS d 301     130.133   6.862  73.646  0.00  0.00     0.104 H 
ATOM     74  H   IDS d 301     132.735   9.011  72.116  0.00  0.00     0.091 H 
ATOM     75  H   IDS d 301     132.190   6.746  70.627  0.00  0.00     0.133 H 
ATOM     76  H   IDS d 301     129.842   8.221  71.797  0.00  0.00     0.097 H 
ATOM     77  H   IDS d 301     130.322  10.314  72.907  0.00  0.00     0.210 HD
ATOM     78  O1S SGN d 302     130.810  13.697  74.792  0.00  0.00    -0.296 OA
ATOM     79  C2  SGN d 302     132.419  10.757  76.620  0.00  0.00     0.081 C 
ATOM     80  S2  SGN d 302     132.667   5.670  79.942  0.00  0.00     0.251 S 
ATOM     81  N   SGN d 302     132.097  11.859  75.696  0.00  0.00    -0.210 NA
ATOM     82  C4  SGN d 302     134.195   9.541  77.885  0.00  0.00     0.095 C 
ATOM     83  O6  SGN d 302     133.125   6.941  79.156  0.00  0.00    -0.254 OA
ATOM     84  C5  SGN d 302     133.734   8.226  77.176  0.00  0.00     0.091 C 
ATOM     85  O4S SGN d 302     133.846   4.897  80.218  0.00  0.00    -0.572 OA
ATOM     86  O2S SGN d 302     129.612  11.893  75.745  0.00  0.00    -0.296 OA
ATOM     87  S1  SGN d 302     130.745  12.756  75.870  0.00  0.00     0.156 S 
ATOM     88  O5S SGN d 302     132.057   6.168  81.136  0.00  0.00    -0.572 OA
ATOM     89  O6S SGN d 302     131.741   5.000  79.077  0.00  0.00    -0.572 OA
ATOM     90  C6  SGN d 302     133.939   6.947  78.007  0.00  0.00     0.067 C 
ATOM     91  O3  SGN d 302     134.295  11.941  77.514  0.00  0.00    -0.391 OA
ATOM     92  C3  SGN d 302     133.911  10.712  76.920  0.00  0.00     0.083 C 
ATOM     93  O4  SGN d 302     135.575   9.731  78.183  0.00  0.00    -0.348 OA
ATOM     94  O3S SGN d 302     130.848  13.374  77.160  0.00  0.00    -0.296 OA
ATOM     95  C1  SGN d 302     131.953   9.415  75.999  0.00  0.00     0.150 C 
ATOM     96  O5  SGN d 302     132.323   8.312  76.834  0.00  0.00    -0.349 OA
ATOM     97  H   SGN d 302     130.736  13.226  73.947  0.00  0.00     0.231 HD
ATOM     98  H   SGN d 302     131.905  10.922  77.545  0.00  0.00     0.076 H 
ATOM     99  H   SGN d 302     132.050  11.447  74.763  0.00  0.00     0.140 HD
ATOM    100  H   SGN d 302     133.670   9.487  78.816  0.00  0.00     0.091 H 
ATOM    101  H   SGN d 302     134.355   8.147  76.308  0.00  0.00     0.090 H 
ATOM    102  H   SGN d 302     129.596  11.505  74.856  0.00  0.00     0.231 HD
ATOM    103  H   SGN d 302     133.693   6.098  77.403  0.00  0.00     0.080 H 
ATOM    104  H   SGN d 302     134.961   6.912  78.320  0.00  0.00     0.080 H 
ATOM    105  H   SGN d 302     134.112  12.668  76.899  0.00  0.00     0.210 HD
ATOM    106  H   SGN d 302     134.470  10.565  76.020  0.00  0.00     0.089 H 
ATOM    107  H   SGN d 302     131.631  13.944  77.184  0.00  0.00     0.231 HD
ATOM    108  H   SGN d 302     130.886   9.476  75.934  0.00  0.00     0.131 H 
ATOM    109  C1  IDS d 305     136.636  11.094  87.839  0.00  0.00     0.161 C 
ATOM    110  O1S IDS d 305     132.238  11.712  86.838  0.00  0.00    -0.572 OA
ATOM    111  S   IDS d 305     133.029  10.563  87.178  0.00  0.00     0.252 S 
ATOM    112  C4  IDS d 305     136.689   9.849  90.581  0.00  0.00    -0.005 C 
ATOM    113  O61 IDS d 305     139.846   8.661  90.156  0.00  0.00    -0.646 OA
ATOM    114  O3  IDS d 305     134.281   9.993  90.589  0.00  0.00    -0.393 OA
ATOM    115  O62 IDS d 305     139.769  10.666  90.684  0.00  0.00    -0.646 OA
ATOM    116  O2S IDS d 305     133.578   9.923  86.021  0.00  0.00    -0.572 OA
ATOM    117  O2  IDS d 305     134.222  11.142  88.010  0.00  0.00    -0.244 OA
ATOM    118  O5  IDS d 305     137.785  10.982  88.695  0.00  0.00    -0.343 OA
ATOM    119  C5  IDS d 305     137.852   9.807  89.534  0.00  0.00     0.127 C 
ATOM    120  C3  IDS d 305     135.436  10.579  90.019  0.00  0.00     0.069 C 
ATOM    121  C2  IDS d 305     135.373  10.460  88.482  0.00  0.00     0.132 C 
ATOM    122  C6  IDS d 305     139.239   9.709  90.163  0.00  0.00     0.203 C 
ATOM    123  O3S IDS d 305     132.344   9.659  88.055  0.00  0.00    -0.572 OA
ATOM    124  H   IDS d 305     136.482  12.143  87.692  0.00  0.00     0.133 H 
ATOM    125  H   IDS d 305     136.420   8.846  90.840  0.00  0.00     0.041 H 
ATOM    126  H   IDS d 305     137.032  10.388  91.439  0.00  0.00     0.041 H 
ATOM    127  H   IDS d 305     134.323  10.069  91.555  0.00  0.00     0.210 HD
ATOM    128  H   IDS d 305     137.716   8.915  88.959  0.00  0.00     0.100 H 
ATOM    129  H   IDS d 305     135.492  11.617  90.269  0.00  0.00     0.087 H 
ATOM    130  H   IDS d 305     135.327   9.425  88.214  0.00  0.00     0.097 H 
ENDROOT
TORSDOF 39
ENDMDL
MODEL 59
REMARK VINA RESULT:      -5.1      3.883     13.715
REMARK  0 active torsions:
REMARK  status: ('A' for Active; 'I' for Inactive)
REMARK       I    between atoms: C2_2  and  N_68 
REMARK       I    between atoms: C1_3  and  O4_24 
REMARK       I    between atoms: O1S_5  and  S1_58 
REMARK       I    between atoms: O1_6  and  C1_31 
REMARK       I    between atoms: C4_7  and  O4_36 
REMARK       I    between atoms: C1_8  and  O4_37 
REMARK       I    between atoms: O3_9  and  C3_74 
REMARK       I    between atoms: C5_10  and  C6_32 
REMARK       I    between atoms: C2_11  and  N_20 
REMARK       I    between atoms: C6_12  and  C5_53 
REMARK       I    between atoms: S2_14  and  O6_33 
REMARK       I    between atoms: O3S_16  and  S1_51 
REMARK       I    between atoms: S_17  and  O2_44 
REMARK       I    between atoms: N_20  and  S1_58 
REMARK       I    between atoms: O4_24  and  C4_38 
REMARK       I    between atoms: S_25  and  O2_64 
REMARK       I    between atoms: O2S_27  and  S1_51 
REMARK       I    between atoms: C4_28  and  O4_73 
REMARK       I    between atoms: C3_30  and  O3_62 
REMARK       I    between atoms: O6_33  and  C6_63 
REMARK       I    between atoms: O3_35  and  C3_55 
REMARK       I    between atoms: O4_36  and  C1_84 
REMARK       I    between atoms: O4_37  and  C4_54 
REMARK       I    between atoms: C3_39  and  O3_48 
REMARK       I    between atoms: C5_42  and  C6_63 
REMARK       I    between atoms: O2_44  and  C2_61 
REMARK       I    between atoms: O6_45  and  C6_77 
REMARK       I    between atoms: O6_45  and  S2_82 
REMARK       I    between atoms: C5_49  and  C6_76 
REMARK       I    between atoms: S1_51  and  N_68 
REMARK       I    between atoms: S1_51  and  O1S_81 
REMARK       I    between atoms: O2S_52  and  S1_58 
REMARK       I    between atoms: C2_57  and  O2_64 
REMARK       I    between atoms: S1_58  and  O3S_75 
REMARK       I    between atoms: O3_66  and  C3_67 
REMARK       I    between atoms: O2_69  and  C2_79 
REMARK       I    between atoms: O2_69  and  S_72 
REMARK       I    between atoms: C5_70  and  C6_77 
REMARK       I    between atoms: C1_71  and  O4_73 
ROOT
ATOM      1  O2S IDS d 303     132.051  13.655  81.963  0.00  0.00    -0.572 OA
ATOM      2  C6  IDS d 303     134.596   7.279  79.635  0.00  0.00     0.206 C 
ATOM      3  O1S IDS d 303     133.074  13.936  79.823  0.00  0.00    -0.572 OA
ATOM      4  O3S IDS d 303     130.749  13.366  79.963  0.00  0.00    -0.572 OA
ATOM      5  O4  IDS d 303     133.692   9.295  81.800  0.00  0.00    -0.348 OA
ATOM      6  O61 IDS d 303     134.451   6.099  79.882  0.00  0.00    -0.646 OA
ATOM      7  C4  IDS d 303     132.780   8.535  80.993  0.00  0.00     0.103 C 
ATOM      8  C3  IDS d 303     131.566   9.491  80.811  0.00  0.00     0.094 C 
ATOM      9  O62 IDS d 303     135.719   7.677  79.407  0.00  0.00    -0.646 OA
ATOM     10  O3  IDS d 303     130.480   8.737  80.302  0.00  0.00    -0.390 OA
ATOM     11  C5  IDS d 303     133.401   8.231  79.608  0.00  0.00     0.152 C 
ATOM     12  O2  IDS d 303     132.428  11.738  80.586  0.00  0.00    -0.244 OA
ATOM     13  C1  IDS d 303     132.757  10.363  78.638  0.00  0.00     0.161 C 
ATOM     14  S   IDS d 303     132.049  13.264  80.575  0.00  0.00     0.252 S 
ATOM     15  C2  IDS d 303     131.838  10.679  79.848  0.00  0.00     0.134 C 
ATOM     16  O5  IDS d 303     133.802   9.468  79.001  0.00  0.00    -0.340 OA
ATOM     17  H   IDS d 303     132.526   7.595  81.439  0.00  0.00     0.092 H 
ATOM     18  H   IDS d 303     131.356   9.916  81.771  0.00  0.00     0.091 H 
ATOM     19  H   IDS d 303     130.718   8.374  79.434  0.00  0.00     0.210 HD
ATOM     20  H   IDS d 303     132.642   7.731  79.045  0.00  0.00     0.104 H 
ATOM     21  H   IDS d 303     133.236  11.260  78.307  0.00  0.00     0.133 H 
ATOM     22  H   IDS d 303     130.885  10.935  79.435  0.00  0.00     0.097 H 
ATOM     23  C2  SGN d 304     134.354  10.050  84.038  0.00  0.00     0.081 C 
ATOM     24  C1  SGN d 304     133.912   8.871  83.128  0.00  0.00     0.150 C 
ATOM     25  O3  SGN d 304     136.154  11.606  84.455  0.00  0.00    -0.391 OA
ATOM     26  O3S SGN d 304     132.130  12.189  85.773  0.00  0.00    -0.296 OA
ATOM     27  O5S SGN d 304     137.222   5.055  86.148  0.00  0.00    -0.572 OA
ATOM     28  O2S SGN d 304     131.932   9.810  85.564  0.00  0.00    -0.296 OA
ATOM     29  O4S SGN d 304     139.069   5.488  84.686  0.00  0.00    -0.572 OA
ATOM     30  O4  SGN d 304     138.011  10.013  83.650  0.00  0.00    -0.348 OA
ATOM     31  O6  SGN d 304     136.847   6.267  84.143  0.00  0.00    -0.254 OA
ATOM     32  S1  SGN d 304     131.998  11.076  84.880  0.00  0.00     0.156 S 
ATOM     33  C4  SGN d 304     136.743   9.350  83.782  0.00  0.00     0.095 C 
ATOM     34  O6S SGN d 304     137.362   3.931  84.052  0.00  0.00    -0.572 OA
ATOM     35  N   SGN d 304     133.344  11.115  83.935  0.00  0.00    -0.210 NA
ATOM     36  C5  SGN d 304     136.249   8.197  82.848  0.00  0.00     0.091 C 
ATOM     37  C3  SGN d 304     135.756  10.536  83.616  0.00  0.00     0.083 C 
ATOM     38  C6  SGN d 304     137.085   6.911  82.908  0.00  0.00     0.067 C 
ATOM     39  O5  SGN d 304     134.882   7.823  83.162  0.00  0.00    -0.349 OA
ATOM     40  O1S SGN d 304     130.909  11.242  83.959  0.00  0.00    -0.296 OA
ATOM     41  S2  SGN d 304     137.684   5.117  84.789  0.00  0.00     0.251 S 
ATOM     42  H   SGN d 304     134.424   9.742  85.061  0.00  0.00     0.076 H 
ATOM     43  H   SGN d 304     132.984   8.497  83.509  0.00  0.00     0.131 H 
ATOM     44  H   SGN d 304     135.536  12.347  84.349  0.00  0.00     0.210 HD
ATOM     45  H   SGN d 304     132.875  12.035  86.374  0.00  0.00     0.231 HD
ATOM     46  H   SGN d 304     132.682   9.734  86.176  0.00  0.00     0.231 HD
ATOM     47  H   SGN d 304     136.822   8.792  84.691  0.00  0.00     0.091 H 
ATOM     48  H   SGN d 304     133.021  11.121  82.967  0.00  0.00     0.140 HD
ATOM     49  H   SGN d 304     136.342   8.609  81.865  0.00  0.00     0.090 H 
ATOM     50  H   SGN d 304     135.747  10.874  82.601  0.00  0.00     0.089 H 
ATOM     51  H   SGN d 304     136.805   6.262  82.105  0.00  0.00     0.080 H 
ATOM     52  H   SGN d 304     138.125   7.150  82.818  0.00  0.00     0.080 H 
ATOM     53  H   SGN d 304     130.069  11.229  84.445  0.00  0.00     0.231 HD
ATOM     54  O62 IDS d 301     131.389  13.323  72.844  0.00  0.00    -0.646 OA
ATOM     55  O1  IDS d 301     129.148  12.216  68.489  0.00  0.00    -0.368 OA
ATOM     56  C4  IDS d 301     130.794  10.390  71.758  0.00  0.00     0.103 C 
ATOM     57  C5  IDS d 301     130.984  11.787  71.055  0.00  0.00     0.152 C 
ATOM     58  O61 IDS d 301     132.915  13.115  71.462  0.00  0.00    -0.646 OA
ATOM     59  S   IDS d 301     128.313   8.542  67.787  0.00  0.00     0.252 S 
ATOM     60  C3  IDS d 301     129.638   9.589  71.079  0.00  0.00     0.094 C 
ATOM     61  C1  IDS d 301     128.933  11.646  69.751  0.00  0.00     0.158 C 
ATOM     62  C6  IDS d 301     131.807  12.803  71.837  0.00  0.00     0.206 C 
ATOM     63  O5  IDS d 301     129.683  12.338  70.756  0.00  0.00    -0.340 OA
ATOM     64  O4  IDS d 301     131.020   9.666  72.977  0.00  0.00    -0.348 OA
ATOM     65  O3S IDS d 301     126.938   8.521  67.353  0.00  0.00    -0.572 OA
ATOM     66  O1S IDS d 301     129.170   9.218  66.851  0.00  0.00    -0.572 OA
ATOM     67  C2  IDS d 301     129.338  10.144  69.672  0.00  0.00     0.134 C 
ATOM     68  O3  IDS d 301     130.012   8.224  70.971  0.00  0.00    -0.390 OA
ATOM     69  O2  IDS d 301     128.282   9.396  69.100  0.00  0.00    -0.244 OA
ATOM     70  O2S IDS d 301     128.803   7.245  68.173  0.00  0.00    -0.572 OA
ATOM     71  H   IDS d 301     128.632  11.733  67.824  0.00  0.00     0.212 HD
ATOM     72  H   IDS d 301     131.821  10.682  71.830  0.00  0.00     0.092 H 
ATOM     73  H   IDS d 301     131.551  11.596  70.168  0.00  0.00     0.104 H 
ATOM     74  H   IDS d 301     128.759   9.687  71.681  0.00  0.00     0.091 H 
ATOM     75  H   IDS d 301     127.902  11.728  70.025  0.00  0.00     0.133 H 
ATOM     76  H   IDS d 301     130.217  10.061  69.068  0.00  0.00     0.097 H 
ATOM     77  H   IDS d 301     130.809   8.149  70.424  0.00  0.00     0.210 HD
ATOM     78  O1S SGN d 302     132.008   5.030  72.440  0.00  0.00    -0.296 OA
ATOM     79  C2  SGN d 302     132.563   8.298  74.332  0.00  0.00     0.081 C 
ATOM     80  S2  SGN d 302     135.150  13.634  75.681  0.00  0.00     0.251 S 
ATOM     81  N   SGN d 302     131.996   7.090  73.707  0.00  0.00    -0.210 NA
ATOM     82  C4  SGN d 302     132.549   9.838  76.297  0.00  0.00     0.095 C 
ATOM     83  O6  SGN d 302     134.233  12.372  75.784  0.00  0.00    -0.254 OA
ATOM     84  C5  SGN d 302     132.261  11.017  75.312  0.00  0.00     0.091 C 
ATOM     85  O4S SGN d 302     134.685  14.575  76.661  0.00  0.00    -0.572 OA
ATOM     86  O2S SGN d 302     133.503   6.734  71.762  0.00  0.00    -0.296 OA
ATOM     87  S1  SGN d 302     132.926   6.041  72.872  0.00  0.00     0.156 S 
ATOM     88  O5S SGN d 302     136.469  13.161  75.970  0.00  0.00    -0.572 OA
ATOM     89  O6S SGN d 302     135.004  14.102  74.333  0.00  0.00    -0.572 OA
ATOM     90  C6  SGN d 302     132.825  12.377  75.761  0.00  0.00     0.067 C 
ATOM     91  O3  SGN d 302     132.165   7.450  76.534  0.00  0.00    -0.391 OA
ATOM     92  C3  SGN d 302     131.925   8.564  75.690  0.00  0.00     0.083 C 
ATOM     93  O4  SGN d 302     131.973   9.857  77.600  0.00  0.00    -0.348 OA
ATOM     94  O3S SGN d 302     133.901   5.552  73.804  0.00  0.00    -0.296 OA
ATOM     95  C1  SGN d 302     132.351   9.510  73.390  0.00  0.00     0.150 C 
ATOM     96  O5  SGN d 302     132.818  10.718  74.001  0.00  0.00    -0.349 OA
ATOM     97  H   SGN d 302     131.374   5.415  71.814  0.00  0.00     0.231 HD
ATOM     98  H   SGN d 302     133.611   8.145  74.489  0.00  0.00     0.076 H 
ATOM     99  H   SGN d 302     131.275   7.412  73.061  0.00  0.00     0.140 HD
ATOM    100  H   SGN d 302     133.610   9.901  76.415  0.00  0.00     0.091 H 
ATOM    101  H   SGN d 302     131.196  11.104  75.287  0.00  0.00     0.090 H 
ATOM    102  H   SGN d 302     132.798   7.040  71.169  0.00  0.00     0.231 HD
ATOM    103  H   SGN d 302     132.491  13.133  75.081  0.00  0.00     0.080 H 
ATOM    104  H   SGN d 302     132.474  12.573  76.753  0.00  0.00     0.080 H 
ATOM    105  H   SGN d 302     131.770   6.656  76.141  0.00  0.00     0.210 HD
ATOM    106  H   SGN d 302     130.870   8.706  75.586  0.00  0.00     0.089 H 
ATOM    107  H   SGN d 302     133.451   5.093  74.530  0.00  0.00     0.231 HD
ATOM    108  H   SGN d 302     132.928   9.305  72.512  0.00  0.00     0.131 H 
ATOM    109  C1  IDS d 305     139.127   9.458  84.300  0.00  0.00     0.161 C 
ATOM    110  O1S IDS d 305     140.908   8.186  80.308  0.00  0.00    -0.572 OA
ATOM    111  S   IDS d 305     140.728   9.454  80.958  0.00  0.00     0.252 S 
ATOM    112  C4  IDS d 305     141.321  10.924  85.751  0.00  0.00    -0.005 C 
ATOM    113  O61 IDS d 305     139.128  12.478  87.832  0.00  0.00    -0.646 OA
ATOM    114  O3  IDS d 305     142.747  10.466  83.859  0.00  0.00    -0.393 OA
ATOM    115  O62 IDS d 305     139.579  10.531  88.391  0.00  0.00    -0.646 OA
ATOM    116  O2S IDS d 305     139.476  10.061  80.619  0.00  0.00    -0.572 OA
ATOM    117  O2  IDS d 305     140.690   9.108  82.484  0.00  0.00    -0.244 OA
ATOM    118  O5  IDS d 305     139.141   9.792  85.697  0.00  0.00    -0.343 OA
ATOM    119  C5  IDS d 305     139.791  11.031  86.059  0.00  0.00     0.127 C 
ATOM    120  C3  IDS d 305     141.600   9.992  84.537  0.00  0.00     0.069 C 
ATOM    121  C2  IDS d 305     140.398   9.972  83.571  0.00  0.00     0.132 C 
ATOM    122  C6  IDS d 305     139.481  11.362  87.516  0.00  0.00     0.203 C 
ATOM    123  O3S IDS d 305     141.849  10.330  80.785  0.00  0.00    -0.572 OA
ATOM    124  H   IDS d 305     139.089   8.389  84.254  0.00  0.00     0.133 H 
ATOM    125  H   IDS d 305     141.700  11.901  85.532  0.00  0.00     0.041 H 
ATOM    126  H   IDS d 305     141.807  10.509  86.609  0.00  0.00     0.041 H 
ATOM    127  H   IDS d 305     143.502  10.478  84.469  0.00  0.00     0.210 HD
ATOM    128  H   IDS d 305     139.416  11.846  85.475  0.00  0.00     0.100 H 
ATOM    129  H   IDS d 305     141.759   8.994  84.890  0.00  0.00     0.087 H 
ATOM    130  H   IDS d 305     140.219  10.967  83.217  0.00  0.00     0.097 H 
ENDROOT
TORSDOF 39
ENDMDL
MODEL 60
REMARK VINA RESULT:      -5.0      4.103      6.070
REMARK  0 active torsions:
REMARK  status: ('A' for Active; 'I' for Inactive)
REMARK       I    between atoms: C2_2  and  N_68 
REMARK       I    between atoms: C1_3  and  O4_24 
REMARK       I    between atoms: O1S_5  and  S1_58 
REMARK       I    between atoms: O1_6  and  C1_31 
REMARK       I    between atoms: C4_7  and  O4_36 
REMARK       I    between atoms: C1_8  and  O4_37 
REMARK       I    between atoms: O3_9  and  C3_74 
REMARK       I    between atoms: C5_10  and  C6_32 
REMARK       I    between atoms: C2_11  and  N_20 
REMARK       I    between atoms: C6_12  and  C5_53 
REMARK       I    between atoms: S2_14  and  O6_33 
REMARK       I    between atoms: O3S_16  and  S1_51 
REMARK       I    between atoms: S_17  and  O2_44 
REMARK       I    between atoms: N_20  and  S1_58 
REMARK       I    between atoms: O4_24  and  C4_38 
REMARK       I    between atoms: S_25  and  O2_64 
REMARK       I    between atoms: O2S_27  and  S1_51 
REMARK       I    between atoms: C4_28  and  O4_73 
REMARK       I    between atoms: C3_30  and  O3_62 
REMARK       I    between atoms: O6_33  and  C6_63 
REMARK       I    between atoms: O3_35  and  C3_55 
REMARK       I    between atoms: O4_36  and  C1_84 
REMARK       I    between atoms: O4_37  and  C4_54 
REMARK       I    between atoms: C3_39  and  O3_48 
REMARK       I    between atoms: C5_42  and  C6_63 
REMARK       I    between atoms: O2_44  and  C2_61 
REMARK       I    between atoms: O6_45  and  C6_77 
REMARK       I    between atoms: O6_45  and  S2_82 
REMARK       I    between atoms: C5_49  and  C6_76 
REMARK       I    between atoms: S1_51  and  N_68 
REMARK       I    between atoms: S1_51  and  O1S_81 
REMARK       I    between atoms: O2S_52  and  S1_58 
REMARK       I    between atoms: C2_57  and  O2_64 
REMARK       I    between atoms: S1_58  and  O3S_75 
REMARK       I    between atoms: O3_66  and  C3_67 
REMARK       I    between atoms: O2_69  and  C2_79 
REMARK       I    between atoms: O2_69  and  S_72 
REMARK       I    between atoms: C5_70  and  C6_77 
REMARK       I    between atoms: C1_71  and  O4_73 
ROOT
ATOM      1  O2S IDS d 303     128.129  15.706  77.555  0.00  0.00    -0.572 OA
ATOM      2  C6  IDS d 303     135.007  13.994  76.034  0.00  0.00     0.206 C 
ATOM      3  O1S IDS d 303     128.892  14.033  79.080  0.00  0.00    -0.572 OA
ATOM      4  O3S IDS d 303     129.206  16.351  79.606  0.00  0.00    -0.572 OA
ATOM      5  O4  IDS d 303     132.188  15.072  75.353  0.00  0.00    -0.348 OA
ATOM      6  O61 IDS d 303     135.942  14.459  75.414  0.00  0.00    -0.646 OA
ATOM      7  C4  IDS d 303     133.175  15.829  76.071  0.00  0.00     0.103 C 
ATOM      8  C3  IDS d 303     132.334  16.691  77.055  0.00  0.00     0.094 C 
ATOM      9  O62 IDS d 303     134.817  12.798  75.963  0.00  0.00    -0.646 OA
ATOM     10  O3  IDS d 303     133.173  17.699  77.590  0.00  0.00    -0.390 OA
ATOM     11  C5  IDS d 303     134.100  14.888  76.880  0.00  0.00     0.152 C 
ATOM     12  O2  IDS d 303     130.477  15.340  77.811  0.00  0.00    -0.244 OA
ATOM     13  C1  IDS d 303     132.594  14.724  78.778  0.00  0.00     0.161 C 
ATOM     14  S   IDS d 303     129.098  15.360  78.566  0.00  0.00     0.252 S 
ATOM     15  C2  IDS d 303     131.719  15.884  78.232  0.00  0.00     0.134 C 
ATOM     16  O5  IDS d 303     133.290  14.062  77.728  0.00  0.00    -0.340 OA
ATOM     17  H   IDS d 303     133.801  16.405  75.420  0.00  0.00     0.092 H 
ATOM     18  H   IDS d 303     131.514  17.092  76.497  0.00  0.00     0.091 H 
ATOM     19  H   IDS d 303     133.898  17.287  78.085  0.00  0.00     0.210 HD
ATOM     20  H   IDS d 303     134.756  15.522  77.438  0.00  0.00     0.104 H 
ATOM     21  H   IDS d 303     131.968  13.986  79.232  0.00  0.00     0.133 H 
ATOM     22  H   IDS d 303     131.620  16.583  79.035  0.00  0.00     0.097 H 
ATOM     23  C2  SGN d 304     130.552  14.993  73.527  0.00  0.00     0.081 C 
ATOM     24  C1  SGN d 304     131.986  15.373  73.989  0.00  0.00     0.150 C 
ATOM     25  O3  SGN d 304     129.079  13.123  73.121  0.00  0.00    -0.391 OA
ATOM     26  O3S SGN d 304     127.740  17.134  73.750  0.00  0.00    -0.296 OA
ATOM     27  O5S SGN d 304     134.233  14.068  68.709  0.00  0.00    -0.572 OA
ATOM     28  O2S SGN d 304     129.947  17.762  73.057  0.00  0.00    -0.296 OA
ATOM     29  O4S SGN d 304     134.605  11.810  69.416  0.00  0.00    -0.572 OA
ATOM     30  O4  SGN d 304     130.966  11.495  72.472  0.00  0.00    -0.348 OA
ATOM     31  O6  SGN d 304     134.025  13.530  71.010  0.00  0.00    -0.254 OA
ATOM     32  S1  SGN d 304     129.126  17.216  74.108  0.00  0.00     0.156 S 
ATOM     33  C4  SGN d 304     131.428  12.853  72.573  0.00  0.00     0.095 C 
ATOM     34  O6S SGN d 304     136.182  13.527  69.970  0.00  0.00    -0.572 OA
ATOM     35  N   SGN d 304     129.590  15.668  74.413  0.00  0.00    -0.210 NA
ATOM     36  C5  SGN d 304     132.846  13.267  73.084  0.00  0.00     0.091 C 
ATOM     37  C3  SGN d 304     130.387  13.460  73.550  0.00  0.00     0.083 C 
ATOM     38  C6  SGN d 304     134.015  12.787  72.212  0.00  0.00     0.067 C 
ATOM     39  O5  SGN d 304     132.962  14.710  73.184  0.00  0.00    -0.349 OA
ATOM     40  O1S SGN d 304     129.327  17.903  75.353  0.00  0.00    -0.296 OA
ATOM     41  S2  SGN d 304     134.811  13.204  69.701  0.00  0.00     0.251 S 
ATOM     42  H   SGN d 304     130.375  15.313  72.522  0.00  0.00     0.076 H 
ATOM     43  H   SGN d 304     132.097  16.431  73.869  0.00  0.00     0.131 H 
ATOM     44  H   SGN d 304     128.430  13.503  73.734  0.00  0.00     0.210 HD
ATOM     45  H   SGN d 304     127.652  16.664  72.906  0.00  0.00     0.231 HD
ATOM     46  H   SGN d 304     129.785  17.275  72.234  0.00  0.00     0.231 HD
ATOM     47  H   SGN d 304     131.525  13.182  71.559  0.00  0.00     0.091 H 
ATOM     48  H   SGN d 304     129.999  15.664  75.348  0.00  0.00     0.140 HD
ATOM     49  H   SGN d 304     132.923  12.786  74.037  0.00  0.00     0.090 H 
ATOM     50  H   SGN d 304     130.538  13.080  74.538  0.00  0.00     0.089 H 
ATOM     51  H   SGN d 304     134.938  12.936  72.734  0.00  0.00     0.080 H 
ATOM     52  H   SGN d 304     133.901  11.746  71.994  0.00  0.00     0.080 H 
ATOM     53  H   SGN d 304     129.074  18.834  75.254  0.00  0.00     0.231 HD
ATOM     54  O62 IDS d 301     132.460  13.553  85.321  0.00  0.00    -0.646 OA
ATOM     55  O1  IDS d 301     135.266  14.510  89.374  0.00  0.00    -0.368 OA
ATOM     56  C4  IDS d 301     135.530  14.395  85.294  0.00  0.00     0.103 C 
ATOM     57  C5  IDS d 301     134.608  13.700  86.366  0.00  0.00     0.152 C 
ATOM     58  O61 IDS d 301     133.350  11.754  85.827  0.00  0.00    -0.646 OA
ATOM     59  S   IDS d 301     138.812  15.852  88.821  0.00  0.00     0.252 S 
ATOM     60  C3  IDS d 301     136.483  15.425  85.979  0.00  0.00     0.094 C 
ATOM     61  C1  IDS d 301     135.199  15.223  88.170  0.00  0.00     0.158 C 
ATOM     62  C6  IDS d 301     133.398  12.963  85.804  0.00  0.00     0.206 C 
ATOM     63  O5  IDS d 301     134.175  14.693  87.321  0.00  0.00    -0.340 OA
ATOM     64  O4  IDS d 301     135.646  14.720  83.900  0.00  0.00    -0.348 OA
ATOM     65  O3S IDS d 301     138.947  16.995  89.690  0.00  0.00    -0.572 OA
ATOM     66  O1S IDS d 301     138.676  14.622  89.554  0.00  0.00    -0.572 OA
ATOM     67  C2  IDS d 301     136.599  15.146  87.490  0.00  0.00     0.134 C 
ATOM     68  O3  IDS d 301     137.771  15.339  85.389  0.00  0.00    -0.390 OA
ATOM     69  O2  IDS d 301     137.462  16.107  88.069  0.00  0.00    -0.244 OA
ATOM     70  O2S IDS d 301     139.827  15.797  87.800  0.00  0.00    -0.572 OA
ATOM     71  H   IDS d 301     135.965  14.884  89.933  0.00  0.00     0.212 HD
ATOM     72  H   IDS d 301     135.296  13.404  84.965  0.00  0.00     0.092 H 
ATOM     73  H   IDS d 301     135.207  12.940  86.822  0.00  0.00     0.104 H 
ATOM     74  H   IDS d 301     136.077  16.406  85.841  0.00  0.00     0.091 H 
ATOM     75  H   IDS d 301     134.945  16.245  88.358  0.00  0.00     0.133 H 
ATOM     76  H   IDS d 301     136.993  14.162  87.636  0.00  0.00     0.097 H 
ATOM     77  H   IDS d 301     138.128  14.447  85.520  0.00  0.00     0.210 HD
ATOM     78  O1S SGN d 302     140.081  14.634  82.147  0.00  0.00    -0.296 OA
ATOM     79  C2  SGN d 302     136.350  14.007  81.645  0.00  0.00     0.081 C 
ATOM     80  S2  SGN d 302     131.130  10.887  81.659  0.00  0.00     0.251 S 
ATOM     81  N   SGN d 302     137.675  14.597  81.903  0.00  0.00    -0.210 NA
ATOM     82  C4  SGN d 302     134.096  14.302  80.612  0.00  0.00     0.095 C 
ATOM     83  O6  SGN d 302     132.158  12.039  81.416  0.00  0.00    -0.254 OA
ATOM     84  C5  SGN d 302     133.467  14.008  82.012  0.00  0.00     0.091 C 
ATOM     85  O4S SGN d 302     129.825  11.420  81.383  0.00  0.00    -0.572 OA
ATOM     86  O2S SGN d 302     138.947  12.673  82.831  0.00  0.00    -0.296 OA
ATOM     87  S1  SGN d 302     139.038  13.701  81.841  0.00  0.00     0.156 S 
ATOM     88  O5S SGN d 302     131.497   9.857  80.736  0.00  0.00    -0.572 OA
ATOM     89  O6S SGN d 302     131.306  10.502  83.029  0.00  0.00    -0.572 OA
ATOM     90  C6  SGN d 302     132.084  13.334  81.963  0.00  0.00     0.067 C 
ATOM     91  O3  SGN d 302     136.101  15.242  79.612  0.00  0.00    -0.391 OA
ATOM     92  C3  SGN d 302     135.470  14.963  80.850  0.00  0.00     0.083 C 
ATOM     93  O4  SGN d 302     133.464  15.236  79.742  0.00  0.00    -0.348 OA
ATOM     94  O3S SGN d 302     139.114  13.194  80.502  0.00  0.00    -0.296 OA
ATOM     95  C1  SGN d 302     135.676  13.650  82.995  0.00  0.00     0.150 C 
ATOM     96  O5  SGN d 302     134.351  13.148  82.786  0.00  0.00    -0.349 OA
ATOM     97  H   SGN d 302     139.981  14.943  83.061  0.00  0.00     0.231 HD
ATOM     98  H   SGN d 302     136.475  13.118  81.061  0.00  0.00     0.076 H 
ATOM     99  H   SGN d 302     137.635  14.994  82.843  0.00  0.00     0.140 HD
ATOM    100  H   SGN d 302     134.048  13.342  80.141  0.00  0.00     0.091 H 
ATOM    101  H   SGN d 302     133.340  14.968  82.466  0.00  0.00     0.090 H 
ATOM    102  H   SGN d 302     138.899  13.075  83.713  0.00  0.00     0.231 HD
ATOM    103  H   SGN d 302     131.694  13.270  82.957  0.00  0.00     0.080 H 
ATOM    104  H   SGN d 302     131.446  13.925  81.339  0.00  0.00     0.080 H 
ATOM    105  H   SGN d 302     136.962  15.657  79.775  0.00  0.00     0.210 HD
ATOM    106  H   SGN d 302     135.328  15.877  81.388  0.00  0.00     0.089 H 
ATOM    107  H   SGN d 302     139.173  13.934  79.879  0.00  0.00     0.231 HD
ATOM    108  H   SGN d 302     136.284  12.887  83.434  0.00  0.00     0.131 H 
ATOM    109  C1  IDS d 305     131.235  10.784  71.290  0.00  0.00     0.161 C 
ATOM    110  O1S IDS d 305     134.255   8.165  73.469  0.00  0.00    -0.572 OA
ATOM    111  S   IDS d 305     132.823   8.263  73.493  0.00  0.00     0.252 S 
ATOM    112  C4  IDS d 305     129.403   8.889  69.833  0.00  0.00    -0.005 C 
ATOM    113  O61 IDS d 305     126.962  11.234  69.521  0.00  0.00    -0.646 OA
ATOM    114  O3  IDS d 305     130.738   7.079  70.705  0.00  0.00    -0.393 OA
ATOM    115  O62 IDS d 305     128.476  11.409  68.113  0.00  0.00    -0.646 OA
ATOM    116  O2S IDS d 305     132.361   9.185  74.486  0.00  0.00    -0.572 OA
ATOM    117  O2  IDS d 305     132.448   8.847  72.090  0.00  0.00    -0.244 OA
ATOM    118  O5  IDS d 305     130.314  11.134  70.244  0.00  0.00    -0.343 OA
ATOM    119  C5  IDS d 305     129.083  10.379  70.189  0.00  0.00     0.127 C 
ATOM    120  C3  IDS d 305     130.794   8.454  70.377  0.00  0.00     0.069 C 
ATOM    121  C2  IDS d 305     131.174   9.270  71.630  0.00  0.00     0.132 C 
ATOM    122  C6  IDS d 305     128.119  11.048  69.213  0.00  0.00     0.203 C 
ATOM    123  O3S IDS d 305     132.181   6.983  73.566  0.00  0.00    -0.572 OA
ATOM    124  H   IDS d 305     132.208  11.034  70.919  0.00  0.00     0.133 H 
ATOM    125  H   IDS d 305     128.650   8.261  70.261  0.00  0.00     0.041 H 
ATOM    126  H   IDS d 305     129.419   8.796  68.767  0.00  0.00     0.041 H 
ATOM    127  H   IDS d 305     130.498   6.568  69.916  0.00  0.00     0.210 HD
ATOM    128  H   IDS d 305     128.594  10.369  71.141  0.00  0.00     0.100 H 
ATOM    129  H   IDS d 305     131.536   8.630  69.628  0.00  0.00     0.087 H 
ATOM    130  H   IDS d 305     130.434   9.112  72.387  0.00  0.00     0.097 H 
ENDROOT
TORSDOF 39
ENDMDL
MODEL 61
REMARK VINA RESULT:      -5.0      3.762     13.399
REMARK  0 active torsions:
REMARK  status: ('A' for Active; 'I' for Inactive)
REMARK       I    between atoms: C2_2  and  N_68 
REMARK       I    between atoms: C1_3  and  O4_24 
REMARK       I    between atoms: O1S_5  and  S1_58 
REMARK       I    between atoms: O1_6  and  C1_31 
REMARK       I    between atoms: C4_7  and  O4_36 
REMARK       I    between atoms: C1_8  and  O4_37 
REMARK       I    between atoms: O3_9  and  C3_74 
REMARK       I    between atoms: C5_10  and  C6_32 
REMARK       I    between atoms: C2_11  and  N_20 
REMARK       I    between atoms: C6_12  and  C5_53 
REMARK       I    between atoms: S2_14  and  O6_33 
REMARK       I    between atoms: O3S_16  and  S1_51 
REMARK       I    between atoms: S_17  and  O2_44 
REMARK       I    between atoms: N_20  and  S1_58 
REMARK       I    between atoms: O4_24  and  C4_38 
REMARK       I    between atoms: S_25  and  O2_64 
REMARK       I    between atoms: O2S_27  and  S1_51 
REMARK       I    between atoms: C4_28  and  O4_73 
REMARK       I    between atoms: C3_30  and  O3_62 
REMARK       I    between atoms: O6_33  and  C6_63 
REMARK       I    between atoms: O3_35  and  C3_55 
REMARK       I    between atoms: O4_36  and  C1_84 
REMARK       I    between atoms: O4_37  and  C4_54 
REMARK       I    between atoms: C3_39  and  O3_48 
REMARK       I    between atoms: C5_42  and  C6_63 
REMARK       I    between atoms: O2_44  and  C2_61 
REMARK       I    between atoms: O6_45  and  C6_77 
REMARK       I    between atoms: O6_45  and  S2_82 
REMARK       I    between atoms: C5_49  and  C6_76 
REMARK       I    between atoms: S1_51  and  N_68 
REMARK       I    between atoms: S1_51  and  O1S_81 
REMARK       I    between atoms: O2S_52  and  S1_58 
REMARK       I    between atoms: C2_57  and  O2_64 
REMARK       I    between atoms: S1_58  and  O3S_75 
REMARK       I    between atoms: O3_66  and  C3_67 
REMARK       I    between atoms: O2_69  and  C2_79 
REMARK       I    between atoms: O2_69  and  S_72 
REMARK       I    between atoms: C5_70  and  C6_77 
REMARK       I    between atoms: C1_71  and  O4_73 
ROOT
ATOM      1  O2S IDS d 303     130.232  10.329  80.621  0.00  0.00    -0.572 OA
ATOM      2  C6  IDS d 303     135.532   6.085  78.078  0.00  0.00     0.206 C 
ATOM      3  O1S IDS d 303     131.759  11.640  79.336  0.00  0.00    -0.572 OA
ATOM      4  O3S IDS d 303     129.900  10.581  78.253  0.00  0.00    -0.572 OA
ATOM      5  O4  IDS d 303     133.275   6.843  80.054  0.00  0.00    -0.348 OA
ATOM      6  O61 IDS d 303     135.744   4.902  77.907  0.00  0.00    -0.646 OA
ATOM      7  C4  IDS d 303     133.036   6.287  78.752  0.00  0.00     0.103 C 
ATOM      8  C3  IDS d 303     131.704   6.956  78.306  0.00  0.00     0.094 C 
ATOM      9  O62 IDS d 303     136.441   6.770  78.498  0.00  0.00    -0.646 OA
ATOM     10  O3  IDS d 303     131.210   6.251  77.180  0.00  0.00    -0.390 OA
ATOM     11  C5  IDS d 303     134.164   6.694  77.772  0.00  0.00     0.152 C 
ATOM     12  O2  IDS d 303     131.724   9.237  79.105  0.00  0.00    -0.244 OA
ATOM     13  C1  IDS d 303     133.177   8.845  77.226  0.00  0.00     0.161 C 
ATOM     14  S   IDS d 303     130.852  10.525  79.333  0.00  0.00     0.252 S 
ATOM     15  C2  IDS d 303     131.848   8.456  77.927  0.00  0.00     0.134 C 
ATOM     16  O5  IDS d 303     134.277   8.123  77.767  0.00  0.00    -0.340 OA
ATOM     17  H   IDS d 303     132.998   5.217  78.765  0.00  0.00     0.092 H 
ATOM     18  H   IDS d 303     131.038   6.913  79.142  0.00  0.00     0.091 H 
ATOM     19  H   IDS d 303     131.847   6.319  76.451  0.00  0.00     0.210 HD
ATOM     20  H   IDS d 303     133.880   6.307  76.815  0.00  0.00     0.104 H 
ATOM     21  H   IDS d 303     133.384   9.880  77.401  0.00  0.00     0.133 H 
ATOM     22  H   IDS d 303     131.072   8.644  77.214  0.00  0.00     0.097 H 
ATOM     23  C2  SGN d 304     132.803   6.776  82.460  0.00  0.00     0.081 C 
ATOM     24  C1  SGN d 304     133.157   5.987  81.170  0.00  0.00     0.150 C 
ATOM     25  O3  SGN d 304     133.661   8.386  84.043  0.00  0.00    -0.391 OA
ATOM     26  O3S SGN d 304     129.507   7.533  83.507  0.00  0.00    -0.296 OA
ATOM     27  O5S SGN d 304     136.349   2.088  84.211  0.00  0.00    -0.572 OA
ATOM     28  O2S SGN d 304     130.261   5.446  82.603  0.00  0.00    -0.296 OA
ATOM     29  O4S SGN d 304     138.301   3.444  83.916  0.00  0.00    -0.572 OA
ATOM     30  O4  SGN d 304     136.120   7.674  83.769  0.00  0.00    -0.348 OA
ATOM     31  O6  SGN d 304     136.285   3.882  82.660  0.00  0.00    -0.254 OA
ATOM     32  S1  SGN d 304     130.101   6.862  82.389  0.00  0.00     0.156 S 
ATOM     33  C4  SGN d 304     135.213   6.759  83.131  0.00  0.00     0.095 C 
ATOM     34  O6S SGN d 304     137.600   1.939  82.188  0.00  0.00    -0.572 OA
ATOM     35  N   SGN d 304     131.581   7.555  82.202  0.00  0.00    -0.210 NA
ATOM     36  C5  SGN d 304     135.522   5.991  81.805  0.00  0.00     0.091 C 
ATOM     37  C3  SGN d 304     133.990   7.675  82.863  0.00  0.00     0.083 C 
ATOM     38  C6  SGN d 304     136.688   4.995  81.889  0.00  0.00     0.067 C 
ATOM     39  O5  SGN d 304     134.362   5.243  81.355  0.00  0.00    -0.349 OA
ATOM     40  O1S SGN d 304     129.416   7.141  81.158  0.00  0.00    -0.296 OA
ATOM     41  S2  SGN d 304     137.199   2.777  83.279  0.00  0.00     0.251 S 
ATOM     42  H   SGN d 304     132.620   6.113  83.279  0.00  0.00     0.076 H 
ATOM     43  H   SGN d 304     132.355   5.305  80.975  0.00  0.00     0.131 H 
ATOM     44  H   SGN d 304     132.896   8.959  83.873  0.00  0.00     0.210 HD
ATOM     45  H   SGN d 304     130.000   7.317  84.314  0.00  0.00     0.231 HD
ATOM     46  H   SGN d 304     130.726   5.296  83.441  0.00  0.00     0.231 HD
ATOM     47  H   SGN d 304     135.167   5.919  83.792  0.00  0.00     0.091 H 
ATOM     48  H   SGN d 304     131.634   7.873  81.234  0.00  0.00     0.140 HD
ATOM     49  H   SGN d 304     135.796   6.766  81.121  0.00  0.00     0.090 H 
ATOM     50  H   SGN d 304     134.213   8.375  82.086  0.00  0.00     0.089 H 
ATOM     51  H   SGN d 304     136.956   4.672  80.905  0.00  0.00     0.080 H 
ATOM     52  H   SGN d 304     137.534   5.466  82.345  0.00  0.00     0.080 H 
ATOM     53  H   SGN d 304     128.525   6.760  81.190  0.00  0.00     0.231 HD
ATOM     54  O62 IDS d 301     132.936  13.484  72.470  0.00  0.00    -0.646 OA
ATOM     55  O1  IDS d 301     132.899  13.734  67.455  0.00  0.00    -0.368 OA
ATOM     56  C4  IDS d 301     133.848  11.164  70.491  0.00  0.00     0.103 C 
ATOM     57  C5  IDS d 301     133.756  12.730  70.353  0.00  0.00     0.152 C 
ATOM     58  O61 IDS d 301     134.812  14.167  71.926  0.00  0.00    -0.646 OA
ATOM     59  S   IDS d 301     133.736  10.549  65.496  0.00  0.00     0.252 S 
ATOM     60  C3  IDS d 301     133.369  10.470  69.177  0.00  0.00     0.094 C 
ATOM     61  C1  IDS d 301     132.480  12.682  68.280  0.00  0.00     0.158 C 
ATOM     62  C6  IDS d 301     133.834  13.505  71.662  0.00  0.00     0.206 C 
ATOM     63  O5  IDS d 301     132.534  13.064  69.659  0.00  0.00    -0.340 OA
ATOM     64  O4  IDS d 301     133.882  10.083  71.437  0.00  0.00    -0.348 OA
ATOM     65  O3S IDS d 301     132.702  10.408  64.501  0.00  0.00    -0.572 OA
ATOM     66  O1S IDS d 301     134.561  11.704  65.267  0.00  0.00    -0.572 OA
ATOM     67  C2  IDS d 301     133.398  11.456  67.993  0.00  0.00     0.134 C 
ATOM     68  O3  IDS d 301     134.219   9.371  68.888  0.00  0.00    -0.390 OA
ATOM     69  O2  IDS d 301     132.948  10.788  66.829  0.00  0.00    -0.244 OA
ATOM     70  O2S IDS d 301     134.493   9.341  65.699  0.00  0.00    -0.572 OA
ATOM     71  H   IDS d 301     132.855  13.455  66.527  0.00  0.00     0.212 HD
ATOM     72  H   IDS d 301     134.609  11.614  71.094  0.00  0.00     0.092 H 
ATOM     73  H   IDS d 301     134.623  13.029  69.803  0.00  0.00     0.104 H 
ATOM     74  H   IDS d 301     132.363  10.133  69.319  0.00  0.00     0.091 H 
ATOM     75  H   IDS d 301     131.462  12.429  68.070  0.00  0.00     0.133 H 
ATOM     76  H   IDS d 301     134.398  11.807  67.853  0.00  0.00     0.097 H 
ATOM     77  H   IDS d 301     135.127   9.688  68.762  0.00  0.00     0.210 HD
ATOM     78  O1S SGN d 302     136.587   6.360  70.182  0.00  0.00    -0.296 OA
ATOM     79  C2  SGN d 302     135.241   8.654  72.920  0.00  0.00     0.081 C 
ATOM     80  S2  SGN d 302     135.102  13.444  76.665  0.00  0.00     0.251 S 
ATOM     81  N   SGN d 302     135.399   7.700  71.809  0.00  0.00    -0.210 NA
ATOM     82  C4  SGN d 302     133.995   9.254  74.999  0.00  0.00     0.095 C 
ATOM     83  O6  SGN d 302     134.724  12.080  76.001  0.00  0.00    -0.254 OA
ATOM     84  C5  SGN d 302     133.664  10.635  74.346  0.00  0.00     0.091 C 
ATOM     85  O4S SGN d 302     134.022  13.800  77.542  0.00  0.00    -0.572 OA
ATOM     86  O2S SGN d 302     137.506   8.468  70.737  0.00  0.00    -0.296 OA
ATOM     87  S1  SGN d 302     136.870   7.288  71.235  0.00  0.00     0.156 S 
ATOM     88  O5S SGN d 302     136.314  13.187  77.379  0.00  0.00    -0.572 OA
ATOM     89  O6S SGN d 302     135.275  14.362  75.578  0.00  0.00    -0.572 OA
ATOM     90  C6  SGN d 302     133.509  11.794  75.347  0.00  0.00     0.067 C 
ATOM     91  O3  SGN d 302     134.437   6.944  74.387  0.00  0.00    -0.391 OA
ATOM     92  C3  SGN d 302     134.122   8.221  73.859  0.00  0.00     0.083 C 
ATOM     93  O4  SGN d 302     133.038   8.635  75.853  0.00  0.00    -0.348 OA
ATOM     94  O3S SGN d 302     137.568   6.691  72.337  0.00  0.00    -0.296 OA
ATOM     95  C1  SGN d 302     134.949  10.064  72.347  0.00  0.00     0.150 C 
ATOM     96  O5  SGN d 302     134.708  11.003  73.402  0.00  0.00    -0.349 OA
ATOM     97  H   SGN d 302     136.116   6.816  69.467  0.00  0.00     0.231 HD
ATOM     98  H   SGN d 302     136.150   8.678  73.486  0.00  0.00     0.076 H 
ATOM     99  H   SGN d 302     134.882   8.089  71.019  0.00  0.00     0.140 HD
ATOM    100  H   SGN d 302     134.852   9.489  75.595  0.00  0.00     0.091 H 
ATOM    101  H   SGN d 302     132.718  10.496  73.868  0.00  0.00     0.090 H 
ATOM    102  H   SGN d 302     136.991   8.826  69.996  0.00  0.00     0.231 HD
ATOM    103  H   SGN d 302     133.184  12.667  74.821  0.00  0.00     0.080 H 
ATOM    104  H   SGN d 302     132.792  11.503  76.087  0.00  0.00     0.080 H 
ATOM    105  H   SGN d 302     134.515   6.305  73.662  0.00  0.00     0.210 HD
ATOM    106  H   SGN d 302     133.192   8.165  73.333  0.00  0.00     0.089 H 
ATOM    107  H   SGN d 302     137.091   5.899  72.630  0.00  0.00     0.231 HD
ATOM    108  H   SGN d 302     135.826  10.349  71.805  0.00  0.00     0.131 H 
ATOM    109  C1  IDS d 305     137.062   7.158  84.677  0.00  0.00     0.161 C 
ATOM    110  O1S IDS d 305     140.445   7.973  81.742  0.00  0.00    -0.572 OA
ATOM    111  S   IDS d 305     139.608   8.812  82.553  0.00  0.00     0.252 S 
ATOM    112  C4  IDS d 305     137.935   8.364  87.295  0.00  0.00    -0.005 C 
ATOM    113  O61 IDS d 305     134.756   8.466  88.494  0.00  0.00    -0.646 OA
ATOM    114  O3  IDS d 305     139.991   9.003  86.205  0.00  0.00    -0.393 OA
ATOM    115  O62 IDS d 305     135.651   6.601  88.651  0.00  0.00    -0.646 OA
ATOM    116  O2S IDS d 305     138.423   9.222  81.863  0.00  0.00    -0.572 OA
ATOM    117  O2  IDS d 305     139.171   7.892  83.742  0.00  0.00    -0.244 OA
ATOM    118  O5  IDS d 305     136.471   6.909  85.963  0.00  0.00    -0.343 OA
ATOM    119  C5  IDS d 305     136.463   8.013  86.895  0.00  0.00     0.127 C 
ATOM    120  C3  IDS d 305     138.932   8.067  86.138  0.00  0.00     0.069 C 
ATOM    121  C2  IDS d 305     138.231   8.176  84.767  0.00  0.00     0.132 C 
ATOM    122  C6  IDS d 305     135.572   7.669  88.085  0.00  0.00     0.203 C 
ATOM    123  O3S IDS d 305     140.326   9.902  83.146  0.00  0.00    -0.572 OA
ATOM    124  H   IDS d 305     137.427   6.212  84.335  0.00  0.00     0.133 H 
ATOM    125  H   IDS d 305     137.989   9.404  87.541  0.00  0.00     0.041 H 
ATOM    126  H   IDS d 305     138.208   7.757  88.133  0.00  0.00     0.041 H 
ATOM    127  H   IDS d 305     140.429   8.933  87.068  0.00  0.00     0.210 HD
ATOM    128  H   IDS d 305     136.049   8.892  86.448  0.00  0.00     0.100 H 
ATOM    129  H   IDS d 305     139.305   7.070  86.242  0.00  0.00     0.087 H 
ATOM    130  H   IDS d 305     137.842   9.166  84.652  0.00  0.00     0.097 H 
ENDROOT
TORSDOF 39
ENDMDL
MODEL 62
REMARK VINA RESULT:      -5.0      3.508     14.131
REMARK  0 active torsions:
REMARK  status: ('A' for Active; 'I' for Inactive)
REMARK       I    between atoms: C2_2  and  N_68 
REMARK       I    between atoms: C1_3  and  O4_24 
REMARK       I    between atoms: O1S_5  and  S1_58 
REMARK       I    between atoms: O1_6  and  C1_31 
REMARK       I    between atoms: C4_7  and  O4_36 
REMARK       I    between atoms: C1_8  and  O4_37 
REMARK       I    between atoms: O3_9  and  C3_74 
REMARK       I    between atoms: C5_10  and  C6_32 
REMARK       I    between atoms: C2_11  and  N_20 
REMARK       I    between atoms: C6_12  and  C5_53 
REMARK       I    between atoms: S2_14  and  O6_33 
REMARK       I    between atoms: O3S_16  and  S1_51 
REMARK       I    between atoms: S_17  and  O2_44 
REMARK       I    between atoms: N_20  and  S1_58 
REMARK       I    between atoms: O4_24  and  C4_38 
REMARK       I    between atoms: S_25  and  O2_64 
REMARK       I    between atoms: O2S_27  and  S1_51 
REMARK       I    between atoms: C4_28  and  O4_73 
REMARK       I    between atoms: C3_30  and  O3_62 
REMARK       I    between atoms: O6_33  and  C6_63 
REMARK       I    between atoms: O3_35  and  C3_55 
REMARK       I    between atoms: O4_36  and  C1_84 
REMARK       I    between atoms: O4_37  and  C4_54 
REMARK       I    between atoms: C3_39  and  O3_48 
REMARK       I    between atoms: C5_42  and  C6_63 
REMARK       I    between atoms: O2_44  and  C2_61 
REMARK       I    between atoms: O6_45  and  C6_77 
REMARK       I    between atoms: O6_45  and  S2_82 
REMARK       I    between atoms: C5_49  and  C6_76 
REMARK       I    between atoms: S1_51  and  N_68 
REMARK       I    between atoms: S1_51  and  O1S_81 
REMARK       I    between atoms: O2S_52  and  S1_58 
REMARK       I    between atoms: C2_57  and  O2_64 
REMARK       I    between atoms: S1_58  and  O3S_75 
REMARK       I    between atoms: O3_66  and  C3_67 
REMARK       I    between atoms: O2_69  and  C2_79 
REMARK       I    between atoms: O2_69  and  S_72 
REMARK       I    between atoms: C5_70  and  C6_77 
REMARK       I    between atoms: C1_71  and  O4_73 
ROOT
ATOM      1  O2S IDS d 303     130.537   7.554  79.137  0.00  0.00    -0.572 OA
ATOM      2  C6  IDS d 303     137.283   4.968  78.534  0.00  0.00     0.206 C 
ATOM      3  O1S IDS d 303     131.673   8.690  77.370  0.00  0.00    -0.572 OA
ATOM      4  O3S IDS d 303     130.471   6.669  76.902  0.00  0.00    -0.572 OA
ATOM      5  O4  IDS d 303     134.652   5.562  80.049  0.00  0.00    -0.348 OA
ATOM      6  O61 IDS d 303     137.916   3.993  78.885  0.00  0.00    -0.646 OA
ATOM      7  C4  IDS d 303     134.806   4.477  79.122  0.00  0.00     0.103 C 
ATOM      8  C3  IDS d 303     133.400   4.351  78.467  0.00  0.00     0.094 C 
ATOM      9  O62 IDS d 303     137.828   6.050  78.592  0.00  0.00    -0.646 OA
ATOM     10  O3  IDS d 303     133.345   3.118  77.770  0.00  0.00    -0.390 OA
ATOM     11  C5  IDS d 303     135.845   4.836  78.032  0.00  0.00     0.152 C 
ATOM     12  O2  IDS d 303     132.511   6.583  78.201  0.00  0.00    -0.244 OA
ATOM     13  C1  IDS d 303     134.256   6.031  76.638  0.00  0.00     0.161 C 
ATOM     14  S   IDS d 303     131.222   7.421  77.875  0.00  0.00     0.252 S 
ATOM     15  C2  IDS d 303     133.063   5.497  77.474  0.00  0.00     0.134 C 
ATOM     16  O5  IDS d 303     135.453   6.066  77.407  0.00  0.00    -0.340 OA
ATOM     17  H   IDS d 303     135.142   3.579  79.597  0.00  0.00     0.092 H 
ATOM     18  H   IDS d 303     132.681   4.408  79.257  0.00  0.00     0.091 H 
ATOM     19  H   IDS d 303     134.013   3.115  77.067  0.00  0.00     0.210 HD
ATOM     20  H   IDS d 303     135.851   4.016  77.345  0.00  0.00     0.104 H 
ATOM     21  H   IDS d 303     134.063   7.041  76.342  0.00  0.00     0.133 H 
ATOM     22  H   IDS d 303     132.378   5.071  76.771  0.00  0.00     0.097 H 
ATOM     23  C2  SGN d 304     133.902   6.317  82.260  0.00  0.00     0.081 C 
ATOM     24  C1  SGN d 304     134.686   5.264  81.428  0.00  0.00     0.150 C 
ATOM     25  O3  SGN d 304     133.915   8.626  82.968  0.00  0.00    -0.391 OA
ATOM     26  O3S SGN d 304     130.437   6.140  82.966  0.00  0.00    -0.296 OA
ATOM     27  O5S SGN d 304     138.581   4.465  85.768  0.00  0.00    -0.572 OA
ATOM     28  O2S SGN d 304     131.991   4.316  83.032  0.00  0.00    -0.296 OA
ATOM     29  O4S SGN d 304     139.958   6.202  84.863  0.00  0.00    -0.572 OA
ATOM     30  O4  SGN d 304     136.481   8.843  82.962  0.00  0.00    -0.348 OA
ATOM     31  O6  SGN d 304     138.111   5.297  83.596  0.00  0.00    -0.254 OA
ATOM     32  S1  SGN d 304     131.378   5.346  82.232  0.00  0.00     0.156 S 
ATOM     33  C4  SGN d 304     136.048   7.481  82.807  0.00  0.00     0.095 C 
ATOM     34  O6S SGN d 304     140.074   3.980  83.975  0.00  0.00    -0.572 OA
ATOM     35  N   SGN d 304     132.534   6.400  81.723  0.00  0.00    -0.210 NA
ATOM     36  C5  SGN d 304     136.788   6.414  81.934  0.00  0.00     0.091 C 
ATOM     37  C3  SGN d 304     134.632   7.674  82.202  0.00  0.00     0.083 C 
ATOM     38  C6  SGN d 304     138.203   6.057  82.409  0.00  0.00     0.067 C 
ATOM     39  O5  SGN d 304     136.037   5.173  81.884  0.00  0.00    -0.349 OA
ATOM     40  O1S SGN d 304     130.818   4.817  81.020  0.00  0.00    -0.296 OA
ATOM     41  S2  SGN d 304     139.257   4.974  84.607  0.00  0.00     0.251 S 
ATOM     42  H   SGN d 304     133.850   6.032  83.290  0.00  0.00     0.076 H 
ATOM     43  H   SGN d 304     134.208   4.317  81.569  0.00  0.00     0.131 H 
ATOM     44  H   SGN d 304     133.030   8.746  82.588  0.00  0.00     0.210 HD
ATOM     45  H   SGN d 304     130.858   6.475  83.773  0.00  0.00     0.231 HD
ATOM     46  H   SGN d 304     132.358   4.709  83.840  0.00  0.00     0.231 HD
ATOM     47  H   SGN d 304     136.207   7.035  83.767  0.00  0.00     0.091 H 
ATOM     48  H   SGN d 304     132.608   6.288  80.712  0.00  0.00     0.140 HD
ATOM     49  H   SGN d 304     136.866   6.881  80.975  0.00  0.00     0.090 H 
ATOM     50  H   SGN d 304     134.703   8.021  81.193  0.00  0.00     0.089 H 
ATOM     51  H   SGN d 304     138.702   5.485  81.654  0.00  0.00     0.080 H 
ATOM     52  H   SGN d 304     138.760   6.952  82.594  0.00  0.00     0.080 H 
ATOM     53  H   SGN d 304     130.120   4.179  81.238  0.00  0.00     0.231 HD
ATOM     54  O62 IDS d 301     133.077   7.850  70.352  0.00  0.00    -0.646 OA
ATOM     55  O1  IDS d 301     133.654   5.988  65.725  0.00  0.00    -0.368 OA
ATOM     56  C4  IDS d 301     135.008   5.451  69.546  0.00  0.00     0.103 C 
ATOM     57  C5  IDS d 301     134.395   6.662  68.748  0.00  0.00     0.152 C 
ATOM     58  O61 IDS d 301     134.654   8.898  69.516  0.00  0.00    -0.646 OA
ATOM     59  S   IDS d 301     135.814   2.850  65.313  0.00  0.00     0.252 S 
ATOM     60  C3  IDS d 301     134.989   4.155  68.675  0.00  0.00     0.094 C 
ATOM     61  C1  IDS d 301     133.518   5.294  66.934  0.00  0.00     0.158 C 
ATOM     62  C6  IDS d 301     134.014   7.873  69.591  0.00  0.00     0.206 C 
ATOM     63  O5  IDS d 301     133.242   6.197  68.011  0.00  0.00    -0.340 OA
ATOM     64  O4  IDS d 301     135.285   4.952  70.865  0.00  0.00    -0.348 OA
ATOM     65  O3S IDS d 301     135.044   1.938  64.505  0.00  0.00    -0.572 OA
ATOM     66  O1S IDS d 301     136.208   4.026  64.584  0.00  0.00    -0.572 OA
ATOM     67  C2  IDS d 301     134.837   4.500  67.181  0.00  0.00     0.134 C 
ATOM     68  O3  IDS d 301     136.201   3.442  68.866  0.00  0.00    -0.390 OA
ATOM     69  O2  IDS d 301     134.815   3.299  66.432  0.00  0.00    -0.244 OA
ATOM     70  O2S IDS d 301     136.909   2.212  65.997  0.00  0.00    -0.572 OA
ATOM     71  H   IDS d 301     133.840   5.359  65.010  0.00  0.00     0.212 HD
ATOM     72  H   IDS d 301     135.472   6.357  69.875  0.00  0.00     0.092 H 
ATOM     73  H   IDS d 301     135.171   7.010  68.099  0.00  0.00     0.104 H 
ATOM     74  H   IDS d 301     134.154   3.556  68.976  0.00  0.00     0.091 H 
ATOM     75  H   IDS d 301     132.693   4.616  66.882  0.00  0.00     0.133 H 
ATOM     76  H   IDS d 301     135.661   5.110  66.875  0.00  0.00     0.097 H 
ATOM     77  H   IDS d 301     136.949   3.994  68.591  0.00  0.00     0.210 HD
ATOM     78  O1S SGN d 302     139.265   2.355  71.270  0.00  0.00    -0.296 OA
ATOM     79  C2  SGN d 302     136.836   4.881  72.783  0.00  0.00     0.081 C 
ATOM     80  S2  SGN d 302     134.514  10.347  74.093  0.00  0.00     0.251 S 
ATOM     81  N   SGN d 302     137.470   3.691  72.189  0.00  0.00    -0.210 NA
ATOM     82  C4  SGN d 302     135.182   5.765  74.432  0.00  0.00     0.095 C 
ATOM     83  O6  SGN d 302     134.732   8.799  74.093  0.00  0.00    -0.254 OA
ATOM     84  C5  SGN d 302     134.485   6.523  73.255  0.00  0.00     0.091 C 
ATOM     85  O4S SGN d 302     133.266  10.598  74.759  0.00  0.00    -0.572 OA
ATOM     86  O2S SGN d 302     139.304   4.681  70.833  0.00  0.00    -0.296 OA
ATOM     87  S1  SGN d 302     139.057   3.665  71.810  0.00  0.00     0.156 S 
ATOM     88  O5S SGN d 302     135.627  10.881  74.814  0.00  0.00    -0.572 OA
ATOM     89  O6S SGN d 302     134.505  10.730  72.711  0.00  0.00    -0.572 OA
ATOM     90  C6  SGN d 302     133.797   7.838  73.661  0.00  0.00     0.067 C 
ATOM     91  O3  SGN d 302     136.484   3.759  74.866  0.00  0.00    -0.391 OA
ATOM     92  C3  SGN d 302     135.819   4.487  73.847  0.00  0.00     0.083 C 
ATOM     93  O4  SGN d 302     134.392   5.242  75.495  0.00  0.00    -0.348 OA
ATOM     94  O3S SGN d 302     139.759   3.882  73.042  0.00  0.00    -0.296 OA
ATOM     95  C1  SGN d 302     136.153   5.709  71.665  0.00  0.00     0.150 C 
ATOM     96  O5  SGN d 302     135.456   6.832  72.216  0.00  0.00    -0.349 OA
ATOM     97  H   SGN d 302     138.770   2.265  70.440  0.00  0.00     0.231 HD
ATOM     98  H   SGN d 302     137.591   5.474  73.257  0.00  0.00     0.076 H 
ATOM     99  H   SGN d 302     136.965   3.498  71.323  0.00  0.00     0.140 HD
ATOM    100  H   SGN d 302     135.811   6.526  74.843  0.00  0.00     0.091 H 
ATOM    101  H   SGN d 302     133.723   5.856  72.909  0.00  0.00     0.090 H 
ATOM    102  H   SGN d 302     138.805   4.481  70.025  0.00  0.00     0.231 HD
ATOM    103  H   SGN d 302     133.265   8.226  72.818  0.00  0.00     0.080 H 
ATOM    104  H   SGN d 302     133.131   7.631  74.472  0.00  0.00     0.080 H 
ATOM    105  H   SGN d 302     136.879   2.960  74.487  0.00  0.00     0.210 HD
ATOM    106  H   SGN d 302     135.050   3.877  73.422  0.00  0.00     0.089 H 
ATOM    107  H   SGN d 302     139.552   3.165  73.662  0.00  0.00     0.231 HD
ATOM    108  H   SGN d 302     136.942   6.053  71.029  0.00  0.00     0.131 H 
ATOM    109  C1  IDS d 305     137.407   9.139  83.978  0.00  0.00     0.161 C 
ATOM    110  O1S IDS d 305     140.667   9.881  80.888  0.00  0.00    -0.572 OA
ATOM    111  S   IDS d 305     139.486  10.598  81.280  0.00  0.00     0.252 S 
ATOM    112  C4  IDS d 305     137.431  11.542  85.793  0.00  0.00    -0.005 C 
ATOM    113  O61 IDS d 305     134.282  10.927  86.915  0.00  0.00    -0.646 OA
ATOM    114  O3  IDS d 305     139.265  12.397  84.479  0.00  0.00    -0.393 OA
ATOM    115  O62 IDS d 305     135.740   9.776  87.839  0.00  0.00    -0.646 OA
ATOM    116  O2S IDS d 305     138.340  10.212  80.512  0.00  0.00    -0.572 OA
ATOM    117  O2  IDS d 305     139.236  10.157  82.760  0.00  0.00    -0.244 OA
ATOM    118  O5  IDS d 305     136.767   9.237  85.260  0.00  0.00    -0.343 OA
ATOM    119  C5  IDS d 305     136.245  10.535  85.624  0.00  0.00     0.127 C 
ATOM    120  C3  IDS d 305     138.619  11.194  84.851  0.00  0.00     0.069 C 
ATOM    121  C2  IDS d 305     138.123  10.460  83.588  0.00  0.00     0.132 C 
ATOM    122  C6  IDS d 305     135.373  10.402  86.869  0.00  0.00     0.203 C 
ATOM    123  O3S IDS d 305     139.688  12.016  81.323  0.00  0.00    -0.572 OA
ATOM    124  H   IDS d 305     138.124   8.349  84.068  0.00  0.00     0.133 H 
ATOM    125  H   IDS d 305     137.084  12.528  85.564  0.00  0.00     0.041 H 
ATOM    126  H   IDS d 305     137.778  11.483  86.803  0.00  0.00     0.041 H 
ATOM    127  H   IDS d 305     139.576  12.857  85.274  0.00  0.00     0.210 HD
ATOM    128  H   IDS d 305     135.616  10.927  84.852  0.00  0.00     0.100 H 
ATOM    129  H   IDS d 305     139.298  10.548  85.365  0.00  0.00     0.087 H 
ATOM    130  H   IDS d 305     137.433  11.091  83.066  0.00  0.00     0.097 H 
ENDROOT
TORSDOF 39
ENDMDL
MODEL 63
REMARK VINA RESULT:      -4.9      4.731      7.071
REMARK  0 active torsions:
REMARK  status: ('A' for Active; 'I' for Inactive)
REMARK       I    between atoms: C2_2  and  N_68 
REMARK       I    between atoms: C1_3  and  O4_24 
REMARK       I    between atoms: O1S_5  and  S1_58 
REMARK       I    between atoms: O1_6  and  C1_31 
REMARK       I    between atoms: C4_7  and  O4_36 
REMARK       I    between atoms: C1_8  and  O4_37 
REMARK       I    between atoms: O3_9  and  C3_74 
REMARK       I    between atoms: C5_10  and  C6_32 
REMARK       I    between atoms: C2_11  and  N_20 
REMARK       I    between atoms: C6_12  and  C5_53 
REMARK       I    between atoms: S2_14  and  O6_33 
REMARK       I    between atoms: O3S_16  and  S1_51 
REMARK       I    between atoms: S_17  and  O2_44 
REMARK       I    between atoms: N_20  and  S1_58 
REMARK       I    between atoms: O4_24  and  C4_38 
REMARK       I    between atoms: S_25  and  O2_64 
REMARK       I    between atoms: O2S_27  and  S1_51 
REMARK       I    between atoms: C4_28  and  O4_73 
REMARK       I    between atoms: C3_30  and  O3_62 
REMARK       I    between atoms: O6_33  and  C6_63 
REMARK       I    between atoms: O3_35  and  C3_55 
REMARK       I    between atoms: O4_36  and  C1_84 
REMARK       I    between atoms: O4_37  and  C4_54 
REMARK       I    between atoms: C3_39  and  O3_48 
REMARK       I    between atoms: C5_42  and  C6_63 
REMARK       I    between atoms: O2_44  and  C2_61 
REMARK       I    between atoms: O6_45  and  C6_77 
REMARK       I    between atoms: O6_45  and  S2_82 
REMARK       I    between atoms: C5_49  and  C6_76 
REMARK       I    between atoms: S1_51  and  N_68 
REMARK       I    between atoms: S1_51  and  O1S_81 
REMARK       I    between atoms: O2S_52  and  S1_58 
REMARK       I    between atoms: C2_57  and  O2_64 
REMARK       I    between atoms: S1_58  and  O3S_75 
REMARK       I    between atoms: O3_66  and  C3_67 
REMARK       I    between atoms: O2_69  and  C2_79 
REMARK       I    between atoms: O2_69  and  S_72 
REMARK       I    between atoms: C5_70  and  C6_77 
REMARK       I    between atoms: C1_71  and  O4_73 
ROOT
ATOM      1  O2S IDS d 303     136.122   4.025  75.314  0.00  0.00    -0.572 OA
ATOM      2  C6  IDS d 303     132.074   8.476  79.359  0.00  0.00     0.206 C 
ATOM      3  O1S IDS d 303     137.516   5.179  76.873  0.00  0.00    -0.572 OA
ATOM      4  O3S IDS d 303     136.501   3.099  77.501  0.00  0.00    -0.572 OA
ATOM      5  O4  IDS d 303     132.701   6.803  76.833  0.00  0.00    -0.348 OA
ATOM      6  O61 IDS d 303     130.904   8.631  79.644  0.00  0.00    -0.646 OA
ATOM      7  C4  IDS d 303     132.215   6.237  78.059  0.00  0.00     0.103 C 
ATOM      8  C3  IDS d 303     132.895   4.838  78.112  0.00  0.00     0.094 C 
ATOM      9  O62 IDS d 303     132.743   9.466  79.148  0.00  0.00    -0.646 OA
ATOM     10  O3  IDS d 303     132.249   4.069  79.112  0.00  0.00    -0.390 OA
ATOM     11  C5  IDS d 303     132.685   7.078  79.271  0.00  0.00     0.152 C 
ATOM     12  O2  IDS d 303     135.129   5.073  77.220  0.00  0.00    -0.244 OA
ATOM     13  C1  IDS d 303     134.854   5.996  79.426  0.00  0.00     0.161 C 
ATOM     14  S   IDS d 303     136.394   4.295  76.705  0.00  0.00     0.252 S 
ATOM     15  C2  IDS d 303     134.415   4.888  78.432  0.00  0.00     0.134 C 
ATOM     16  O5  IDS d 303     134.114   7.194  79.225  0.00  0.00    -0.340 OA
ATOM     17  H   IDS d 303     131.146   6.198  78.097  0.00  0.00     0.092 H 
ATOM     18  H   IDS d 303     132.800   4.408  77.138  0.00  0.00     0.091 H 
ATOM     19  H   IDS d 303     132.363   4.499  79.974  0.00  0.00     0.210 HD
ATOM     20  H   IDS d 303     132.349   6.558  80.143  0.00  0.00     0.104 H 
ATOM     21  H   IDS d 303     135.880   6.246  79.253  0.00  0.00     0.133 H 
ATOM     22  H   IDS d 303     134.635   3.957  78.911  0.00  0.00     0.097 H 
ATOM     23  C2  SGN d 304     132.498   6.962  74.393  0.00  0.00     0.081 C 
ATOM     24  C1  SGN d 304     131.784   6.971  75.773  0.00  0.00     0.150 C 
ATOM     25  O3  SGN d 304     134.026   8.204  72.995  0.00  0.00    -0.391 OA
ATOM     26  O3S SGN d 304     133.165   4.047  72.498  0.00  0.00    -0.296 OA
ATOM     27  O5S SGN d 304     127.753  10.814  73.870  0.00  0.00    -0.572 OA
ATOM     28  O2S SGN d 304     131.138   4.534  73.680  0.00  0.00    -0.296 OA
ATOM     29  O4S SGN d 304     129.141  12.633  74.579  0.00  0.00    -0.572 OA
ATOM     30  O4  SGN d 304     133.353  10.508  73.928  0.00  0.00    -0.348 OA
ATOM     31  O6  SGN d 304     129.630  10.364  75.251  0.00  0.00    -0.254 OA
ATOM     32  S1  SGN d 304     132.562   4.332  73.767  0.00  0.00     0.156 S 
ATOM     33  C4  SGN d 304     132.466   9.464  74.362  0.00  0.00     0.095 C 
ATOM     34  O6S SGN d 304     127.727  11.506  76.150  0.00  0.00    -0.572 OA
ATOM     35  N   SGN d 304     133.278   5.718  74.287  0.00  0.00    -0.210 NA
ATOM     36  C5  SGN d 304     131.775   9.419  75.765  0.00  0.00     0.091 C 
ATOM     37  C3  SGN d 304     133.384   8.217  74.258  0.00  0.00     0.083 C 
ATOM     38  C6  SGN d 304     130.787  10.562  76.037  0.00  0.00     0.067 C 
ATOM     39  O5  SGN d 304     131.042   8.179  75.944  0.00  0.00    -0.349 OA
ATOM     40  O1S SGN d 304     132.902   3.357  74.764  0.00  0.00    -0.296 OA
ATOM     41  S2  SGN d 304     128.501  11.401  74.948  0.00  0.00     0.251 S 
ATOM     42  H   SGN d 304     131.789   6.991  73.593  0.00  0.00     0.076 H 
ATOM     43  H   SGN d 304     131.106   6.142  75.794  0.00  0.00     0.131 H 
ATOM     44  H   SGN d 304     134.600   7.424  72.932  0.00  0.00     0.210 HD
ATOM     45  H   SGN d 304     132.910   4.729  71.858  0.00  0.00     0.231 HD
ATOM     46  H   SGN d 304     130.947   5.198  72.998  0.00  0.00     0.231 HD
ATOM     47  H   SGN d 304     131.590   9.584  73.760  0.00  0.00     0.091 H 
ATOM     48  H   SGN d 304     133.650   5.524  75.218  0.00  0.00     0.140 HD
ATOM     49  H   SGN d 304     132.589   9.513  76.452  0.00  0.00     0.090 H 
ATOM     50  H   SGN d 304     134.128   8.237  75.027  0.00  0.00     0.089 H 
ATOM     51  H   SGN d 304     130.521  10.568  77.073  0.00  0.00     0.080 H 
ATOM     52  H   SGN d 304     131.239  11.499  75.787  0.00  0.00     0.080 H 
ATOM     53  H   SGN d 304     132.512   2.501  74.527  0.00  0.00     0.231 HD
ATOM     54  O62 IDS d 301     139.745   4.570  83.698  0.00  0.00    -0.646 OA
ATOM     55  O1  IDS d 301     140.270   3.253  88.515  0.00  0.00    -0.368 OA
ATOM     56  C4  IDS d 301     137.546   4.934  85.970  0.00  0.00     0.103 C 
ATOM     57  C5  IDS d 301     139.116   4.817  85.993  0.00  0.00     0.152 C 
ATOM     58  O61 IDS d 301     140.474   6.249  84.664  0.00  0.00    -0.646 OA
ATOM     59  S   IDS d 301     137.205   3.545  90.796  0.00  0.00     0.252 S 
ATOM     60  C3  IDS d 301     136.920   4.132  87.154  0.00  0.00     0.094 C 
ATOM     61  C1  IDS d 301     139.170   3.054  87.670  0.00  0.00     0.158 C 
ATOM     62  C6  IDS d 301     139.819   5.232  84.706  0.00  0.00     0.206 C 
ATOM     63  O5  IDS d 301     139.477   3.460  86.332  0.00  0.00    -0.340 OA
ATOM     64  O4  IDS d 301     136.415   5.204  85.125  0.00  0.00    -0.348 OA
ATOM     65  O3S IDS d 301     137.110   2.291  91.500  0.00  0.00    -0.572 OA
ATOM     66  O1S IDS d 301     138.379   4.290  91.164  0.00  0.00    -0.572 OA
ATOM     67  C2  IDS d 301     137.970   3.861  88.250  0.00  0.00     0.134 C 
ATOM     68  O3  IDS d 301     135.847   4.874  87.711  0.00  0.00    -0.390 OA
ATOM     69  O2  IDS d 301     137.363   3.126  89.295  0.00  0.00    -0.244 OA
ATOM     70  O2S IDS d 301     135.995   4.323  90.861  0.00  0.00    -0.572 OA
ATOM     71  H   IDS d 301     140.042   2.972  89.415  0.00  0.00     0.212 HD
ATOM     72  H   IDS d 301     137.969   5.826  85.557  0.00  0.00     0.092 H 
ATOM     73  H   IDS d 301     139.453   5.517  86.729  0.00  0.00     0.104 H 
ATOM     74  H   IDS d 301     136.567   3.194  86.778  0.00  0.00     0.091 H 
ATOM     75  H   IDS d 301     138.919   2.015  87.626  0.00  0.00     0.133 H 
ATOM     76  H   IDS d 301     138.337   4.795  88.621  0.00  0.00     0.097 H 
ATOM     77  H   IDS d 301     136.179   5.721  88.047  0.00  0.00     0.210 HD
ATOM     78  O1S SGN d 302     132.791   7.479  87.234  0.00  0.00    -0.296 OA
ATOM     79  C2  SGN d 302     134.919   6.889  84.120  0.00  0.00     0.081 C 
ATOM     80  S2  SGN d 302     139.494   7.737  80.205  0.00  0.00     0.251 S 
ATOM     81  N   SGN d 302     134.029   6.753  85.286  0.00  0.00    -0.210 NA
ATOM     82  C4  SGN d 302     135.392   6.219  81.762  0.00  0.00     0.095 C 
ATOM     83  O6  SGN d 302     138.166   7.194  80.825  0.00  0.00    -0.254 OA
ATOM     84  C5  SGN d 302     136.804   5.740  82.231  0.00  0.00     0.091 C 
ATOM     85  O4S SGN d 302     139.792   6.918  79.062  0.00  0.00    -0.572 OA
ATOM     86  O2S SGN d 302     134.875   8.520  86.817  0.00  0.00    -0.296 OA
ATOM     87  S1  SGN d 302     133.663   8.027  86.239  0.00  0.00     0.156 S 
ATOM     88  O5S SGN d 302     139.211   9.090  79.839  0.00  0.00    -0.572 OA
ATOM     89  O6S SGN d 302     140.473   7.631  81.247  0.00  0.00    -0.572 OA
ATOM     90  C6  SGN d 302     137.905   5.852  81.161  0.00  0.00     0.067 C 
ATOM     91  O3  SGN d 302     133.124   6.479  82.594  0.00  0.00    -0.391 OA
ATOM     92  C3  SGN d 302     134.425   6.046  82.952  0.00  0.00     0.083 C 
ATOM     93  O4  SGN d 302     134.719   5.509  80.727  0.00  0.00    -0.348 OA
ATOM     94  O3S SGN d 302     133.013   8.980  85.387  0.00  0.00    -0.296 OA
ATOM     95  C1  SGN d 302     136.356   6.467  84.521  0.00  0.00     0.150 C 
ATOM     96  O5  SGN d 302     137.233   6.509  83.389  0.00  0.00    -0.349 OA
ATOM     97  H   SGN d 302     133.282   6.843  87.779  0.00  0.00     0.231 HD
ATOM     98  H   SGN d 302     134.921   7.912  83.805  0.00  0.00     0.076 H 
ATOM     99  H   SGN d 302     134.457   6.054  85.895  0.00  0.00     0.140 HD
ATOM    100  H   SGN d 302     135.603   7.201  81.393  0.00  0.00     0.091 H 
ATOM    101  H   SGN d 302     136.683   4.702  82.459  0.00  0.00     0.090 H 
ATOM    102  H   SGN d 302     135.267   7.834  87.380  0.00  0.00     0.231 HD
ATOM    103  H   SGN d 302     138.802   5.407  81.538  0.00  0.00     0.080 H 
ATOM    104  H   SGN d 302     137.568   5.346  80.280  0.00  0.00     0.080 H 
ATOM    105  H   SGN d 302     132.526   6.365  83.349  0.00  0.00     0.210 HD
ATOM    106  H   SGN d 302     134.390   5.012  83.225  0.00  0.00     0.089 H 
ATOM    107  H   SGN d 302     132.202   8.590  85.026  0.00  0.00     0.231 HD
ATOM    108  H   SGN d 302     136.678   7.178  85.252  0.00  0.00     0.131 H 
ATOM    109  C1  IDS d 305     132.797  11.648  73.321  0.00  0.00     0.161 C 
ATOM    110  O1S IDS d 305     133.803  14.172  76.974  0.00  0.00    -0.572 OA
ATOM    111  S   IDS d 305     134.588  13.575  75.930  0.00  0.00     0.252 S 
ATOM    112  C4  IDS d 305     133.865  13.168  70.951  0.00  0.00    -0.005 C 
ATOM    113  O61 IDS d 305     133.872  10.401  68.975  0.00  0.00    -0.646 OA
ATOM    114  O3  IDS d 305     134.582  14.880  72.492  0.00  0.00    -0.393 OA
ATOM    115  O62 IDS d 305     132.009  11.298  69.155  0.00  0.00    -0.646 OA
ATOM    116  O2S IDS d 305     135.025  12.255  76.271  0.00  0.00    -0.572 OA
ATOM    117  O2  IDS d 305     133.601  13.452  74.722  0.00  0.00    -0.244 OA
ATOM    118  O5  IDS d 305     132.472  11.404  71.943  0.00  0.00    -0.343 OA
ATOM    119  C5  IDS d 305     133.523  11.641  70.979  0.00  0.00     0.127 C 
ATOM    120  C3  IDS d 305     133.642  13.834  72.339  0.00  0.00     0.069 C 
ATOM    121  C2  IDS d 305     133.819  12.807  73.476  0.00  0.00     0.132 C 
ATOM    122  C6  IDS d 305     133.106  11.082  69.623  0.00  0.00     0.203 C 
ATOM    123  O3S IDS d 305     135.651  14.426  75.481  0.00  0.00    -0.572 OA
ATOM    124  H   IDS d 305     131.875  11.909  73.797  0.00  0.00     0.133 H 
ATOM    125  H   IDS d 305     134.891  13.288  70.669  0.00  0.00     0.041 H 
ATOM    126  H   IDS d 305     133.216  13.643  70.245  0.00  0.00     0.041 H 
ATOM    127  H   IDS d 305     134.469  15.524  71.776  0.00  0.00     0.210 HD
ATOM    128  H   IDS d 305     134.421  11.130  71.256  0.00  0.00     0.100 H 
ATOM    129  H   IDS d 305     132.644  14.216  72.389  0.00  0.00     0.087 H 
ATOM    130  H   IDS d 305     134.810  12.407  73.433  0.00  0.00     0.097 H 
ENDROOT
TORSDOF 39
ENDMDL
MODEL 64
REMARK VINA RESULT:      -4.9      4.469      7.189
REMARK  0 active torsions:
REMARK  status: ('A' for Active; 'I' for Inactive)
REMARK       I    between atoms: C2_2  and  N_68 
REMARK       I    between atoms: C1_3  and  O4_24 
REMARK       I    between atoms: O1S_5  and  S1_58 
REMARK       I    between atoms: O1_6  and  C1_31 
REMARK       I    between atoms: C4_7  and  O4_36 
REMARK       I    between atoms: C1_8  and  O4_37 
REMARK       I    between atoms: O3_9  and  C3_74 
REMARK       I    between atoms: C5_10  and  C6_32 
REMARK       I    between atoms: C2_11  and  N_20 
REMARK       I    between atoms: C6_12  and  C5_53 
REMARK       I    between atoms: S2_14  and  O6_33 
REMARK       I    between atoms: O3S_16  and  S1_51 
REMARK       I    between atoms: S_17  and  O2_44 
REMARK       I    between atoms: N_20  and  S1_58 
REMARK       I    between atoms: O4_24  and  C4_38 
REMARK       I    between atoms: S_25  and  O2_64 
REMARK       I    between atoms: O2S_27  and  S1_51 
REMARK       I    between atoms: C4_28  and  O4_73 
REMARK       I    between atoms: C3_30  and  O3_62 
REMARK       I    between atoms: O6_33  and  C6_63 
REMARK       I    between atoms: O3_35  and  C3_55 
REMARK       I    between atoms: O4_36  and  C1_84 
REMARK       I    between atoms: O4_37  and  C4_54 
REMARK       I    between atoms: C3_39  and  O3_48 
REMARK       I    between atoms: C5_42  and  C6_63 
REMARK       I    between atoms: O2_44  and  C2_61 
REMARK       I    between atoms: O6_45  and  C6_77 
REMARK       I    between atoms: O6_45  and  S2_82 
REMARK       I    between atoms: C5_49  and  C6_76 
REMARK       I    between atoms: S1_51  and  N_68 
REMARK       I    between atoms: S1_51  and  O1S_81 
REMARK       I    between atoms: O2S_52  and  S1_58 
REMARK       I    between atoms: C2_57  and  O2_64 
REMARK       I    between atoms: S1_58  and  O3S_75 
REMARK       I    between atoms: O3_66  and  C3_67 
REMARK       I    between atoms: O2_69  and  C2_79 
REMARK       I    between atoms: O2_69  and  S_72 
REMARK       I    between atoms: C5_70  and  C6_77 
REMARK       I    between atoms: C1_71  and  O4_73 
ROOT
ATOM      1  O2S IDS d 303     130.373  15.161  76.997  0.00  0.00    -0.572 OA
ATOM      2  C6  IDS d 303     135.532  10.594  74.744  0.00  0.00     0.206 C 
ATOM      3  O1S IDS d 303     129.845  12.944  77.711  0.00  0.00    -0.572 OA
ATOM      4  O3S IDS d 303     131.195  14.351  79.106  0.00  0.00    -0.572 OA
ATOM      5  O4  IDS d 303     133.871  13.201  74.620  0.00  0.00    -0.348 OA
ATOM      6  O61 IDS d 303     136.675  10.645  74.335  0.00  0.00    -0.646 OA
ATOM      7  C4  IDS d 303     134.941  12.985  75.553  0.00  0.00     0.103 C 
ATOM      8  C3  IDS d 303     134.487  13.765  76.820  0.00  0.00     0.094 C 
ATOM      9  O62 IDS d 303     134.772   9.815  74.208  0.00  0.00    -0.646 OA
ATOM     10  O3  IDS d 303     135.599  13.885  77.690  0.00  0.00    -0.390 OA
ATOM     11  C5  IDS d 303     135.067  11.481  75.898  0.00  0.00     0.152 C 
ATOM     12  O2  IDS d 303     132.092  13.501  77.026  0.00  0.00    -0.244 OA
ATOM     13  C1  IDS d 303     133.349  11.534  77.613  0.00  0.00     0.161 C 
ATOM     14  S   IDS d 303     130.802  14.016  77.762  0.00  0.00     0.252 S 
ATOM     15  C2  IDS d 303     133.324  13.085  77.595  0.00  0.00     0.134 C 
ATOM     16  O5  IDS d 303     133.798  11.008  76.370  0.00  0.00    -0.340 OA
ATOM     17  H   IDS d 303     135.889  13.302  75.169  0.00  0.00     0.092 H 
ATOM     18  H   IDS d 303     134.121  14.714  76.489  0.00  0.00     0.091 H 
ATOM     19  H   IDS d 303     135.893  13.001  77.962  0.00  0.00     0.210 HD
ATOM     20  H   IDS d 303     135.829  11.410  76.645  0.00  0.00     0.104 H 
ATOM     21  H   IDS d 303     132.356  11.161  77.753  0.00  0.00     0.133 H 
ATOM     22  H   IDS d 303     133.442  13.394  78.613  0.00  0.00     0.097 H 
ATOM     23  C2  SGN d 304     132.830  14.672  72.956  0.00  0.00     0.081 C 
ATOM     24  C1  SGN d 304     134.130  14.011  73.494  0.00  0.00     0.150 C 
ATOM     25  O3  SGN d 304     130.720  14.202  71.879  0.00  0.00    -0.391 OA
ATOM     26  O3S SGN d 304     131.542  17.771  74.083  0.00  0.00    -0.296 OA
ATOM     27  O5S SGN d 304     136.384  13.600  68.073  0.00  0.00    -0.572 OA
ATOM     28  O2S SGN d 304     133.844  17.272  73.640  0.00  0.00    -0.296 OA
ATOM     29  O4S SGN d 304     135.391  11.436  67.816  0.00  0.00    -0.572 OA
ATOM     30  O4  SGN d 304     131.586  12.149  70.588  0.00  0.00    -0.348 OA
ATOM     31  O6  SGN d 304     135.475  12.513  69.976  0.00  0.00    -0.254 OA
ATOM     32  S1  SGN d 304     132.669  16.948  74.408  0.00  0.00     0.156 S 
ATOM     33  C4  SGN d 304     132.649  12.892  71.208  0.00  0.00     0.095 C 
ATOM     34  O6S SGN d 304     137.479  11.681  68.965  0.00  0.00    -0.572 OA
ATOM     35  N   SGN d 304     132.198  15.410  74.062  0.00  0.00    -0.210 NA
ATOM     36  C5  SGN d 304     133.944  12.248  71.805  0.00  0.00     0.091 C 
ATOM     37  C3  SGN d 304     131.899  13.590  72.372  0.00  0.00     0.083 C 
ATOM     38  C6  SGN d 304     134.846  11.540  70.784  0.00  0.00     0.067 C 
ATOM     39  O5  SGN d 304     134.763  13.247  72.467  0.00  0.00    -0.349 OA
ATOM     40  O1S SGN d 304     132.942  16.929  75.818  0.00  0.00    -0.296 OA
ATOM     41  S2  SGN d 304     136.224  12.283  68.625  0.00  0.00     0.251 S 
ATOM     42  H   SGN d 304     133.047  15.360  72.165  0.00  0.00     0.076 H 
ATOM     43  H   SGN d 304     134.790  14.795  73.801  0.00  0.00     0.131 H 
ATOM     44  H   SGN d 304     130.252  14.638  72.609  0.00  0.00     0.210 HD
ATOM     45  H   SGN d 304     131.395  17.754  73.125  0.00  0.00     0.231 HD
ATOM     46  H   SGN d 304     133.622  17.275  72.696  0.00  0.00     0.231 HD
ATOM     47  H   SGN d 304     133.101  13.438  70.406  0.00  0.00     0.091 H 
ATOM     48  H   SGN d 304     132.351  14.860  74.907  0.00  0.00     0.140 HD
ATOM     49  H   SGN d 304     133.571  11.513  72.486  0.00  0.00     0.090 H 
ATOM     50  H   SGN d 304     131.633  12.877  73.124  0.00  0.00     0.089 H 
ATOM     51  H   SGN d 304     135.587  10.965  71.298  0.00  0.00     0.080 H 
ATOM     52  H   SGN d 304     134.258  10.887  70.173  0.00  0.00     0.080 H 
ATOM     53  H   SGN d 304     133.229  17.811  76.104  0.00  0.00     0.231 HD
ATOM     54  O62 IDS d 301     131.331   8.462  83.154  0.00  0.00    -0.646 OA
ATOM     55  O1  IDS d 301     133.356   6.247  87.179  0.00  0.00    -0.368 OA
ATOM     56  C4  IDS d 301     134.330   7.420  83.385  0.00  0.00     0.103 C 
ATOM     57  C5  IDS d 301     132.990   7.031  84.115  0.00  0.00     0.152 C 
ATOM     58  O61 IDS d 301     131.047   6.430  82.881  0.00  0.00    -0.646 OA
ATOM     59  S   IDS d 301     137.115   5.504  87.114  0.00  0.00     0.252 S 
ATOM     60  C3  IDS d 301     135.518   7.442  84.397  0.00  0.00     0.094 C 
ATOM     61  C1  IDS d 301     133.907   7.241  86.361  0.00  0.00     0.158 C 
ATOM     62  C6  IDS d 301     131.713   7.331  83.339  0.00  0.00     0.206 C 
ATOM     63  O5  IDS d 301     132.950   7.695  85.398  0.00  0.00    -0.340 OA
ATOM     64  O4  IDS d 301     134.871   8.084  82.232  0.00  0.00    -0.348 OA
ATOM     65  O3S IDS d 301     137.642   5.998  88.362  0.00  0.00    -0.572 OA
ATOM     66  O1S IDS d 301     136.222   4.392  87.301  0.00  0.00    -0.572 OA
ATOM     67  C2  IDS d 301     135.171   6.645  85.670  0.00  0.00     0.134 C 
ATOM     68  O3  IDS d 301     136.666   6.870  83.789  0.00  0.00    -0.390 OA
ATOM     69  O2  IDS d 301     136.269   6.700  86.560  0.00  0.00    -0.244 OA
ATOM     70  O2S IDS d 301     138.136   5.254  86.130  0.00  0.00    -0.572 OA
ATOM     71  H   IDS d 301     134.020   5.954  87.823  0.00  0.00     0.212 HD
ATOM     72  H   IDS d 301     133.691   6.909  82.695  0.00  0.00     0.092 H 
ATOM     73  H   IDS d 301     133.007   5.966  84.216  0.00  0.00     0.104 H 
ATOM     74  H   IDS d 301     135.711   8.459  84.671  0.00  0.00     0.091 H 
ATOM     75  H   IDS d 301     134.183   8.093  86.945  0.00  0.00     0.133 H 
ATOM     76  H   IDS d 301     134.964   5.630  85.403  0.00  0.00     0.097 H 
ATOM     77  H   IDS d 301     136.478   5.950  83.546  0.00  0.00     0.210 HD
ATOM     78  O1S SGN d 302     138.876   6.177  80.475  0.00  0.00    -0.296 OA
ATOM     79  C2  SGN d 302     135.541   7.931  79.862  0.00  0.00     0.081 C 
ATOM     80  S2  SGN d 302     129.579   8.431  78.770  0.00  0.00     0.251 S 
ATOM     81  N   SGN d 302     136.898   7.560  80.298  0.00  0.00    -0.210 NA
ATOM     82  C4  SGN d 302     134.018   9.753  79.089  0.00  0.00     0.095 C 
ATOM     83  O6  SGN d 302     131.078   8.824  78.978  0.00  0.00    -0.254 OA
ATOM     84  C5  SGN d 302     133.064   9.393  80.274  0.00  0.00     0.091 C 
ATOM     85  O4S SGN d 302     128.820   9.651  78.762  0.00  0.00    -0.572 OA
ATOM     86  O2S SGN d 302     136.785   5.077  80.353  0.00  0.00    -0.296 OA
ATOM     87  S1  SGN d 302     137.587   6.149  79.851  0.00  0.00     0.156 S 
ATOM     88  O5S SGN d 302     129.540   7.764  77.505  0.00  0.00    -0.572 OA
ATOM     89  O6S SGN d 302     129.255   7.570  79.869  0.00  0.00    -0.572 OA
ATOM     90  C6  SGN d 302     131.574   9.661  79.997  0.00  0.00     0.067 C 
ATOM     91  O3  SGN d 302     136.374   9.707  78.493  0.00  0.00    -0.391 OA
ATOM     92  C3  SGN d 302     135.457   9.416  79.535  0.00  0.00     0.083 C 
ATOM     93  O4  SGN d 302     134.146  11.111  78.678  0.00  0.00    -0.348 OA
ATOM     94  O3S SGN d 302     137.656   6.183  78.418  0.00  0.00    -0.296 OA
ATOM     95  C1  SGN d 302     134.527   7.566  80.975  0.00  0.00     0.150 C 
ATOM     96  O5  SGN d 302     133.205   7.987  80.619  0.00  0.00    -0.349 OA
ATOM     97  H   SGN d 302     138.769   6.153  81.439  0.00  0.00     0.231 HD
ATOM     98  H   SGN d 302     135.305   7.387  78.970  0.00  0.00     0.076 H 
ATOM     99  H   SGN d 302     136.882   7.560  81.319  0.00  0.00     0.140 HD
ATOM    100  H   SGN d 302     133.578   9.212  78.278  0.00  0.00     0.091 H 
ATOM    101  H   SGN d 302     133.361  10.037  81.074  0.00  0.00     0.090 H 
ATOM    102  H   SGN d 302     136.776   5.105  81.323  0.00  0.00     0.231 HD
ATOM    103  H   SGN d 302     131.017   9.484  80.893  0.00  0.00     0.080 H 
ATOM    104  H   SGN d 302     131.470  10.676  79.675  0.00  0.00     0.080 H 
ATOM    105  H   SGN d 302     137.273   9.492  78.785  0.00  0.00     0.210 HD
ATOM    106  H   SGN d 302     135.702  10.003  80.395  0.00  0.00     0.089 H 
ATOM    107  H   SGN d 302     138.210   6.928  78.140  0.00  0.00     0.231 HD
ATOM    108  H   SGN d 302     134.554   6.499  81.060  0.00  0.00     0.131 H 
ATOM    109  C1  IDS d 305     131.680  11.867  69.214  0.00  0.00     0.161 C 
ATOM    110  O1S IDS d 305     132.417   7.462  70.095  0.00  0.00    -0.572 OA
ATOM    111  S   IDS d 305     131.268   8.317  70.193  0.00  0.00     0.252 S 
ATOM    112  C4  IDS d 305     129.467  11.939  67.172  0.00  0.00    -0.005 C 
ATOM    113  O61 IDS d 305     128.700  15.174  67.881  0.00  0.00    -0.646 OA
ATOM    114  O3  IDS d 305     129.475   9.527  67.219  0.00  0.00    -0.393 OA
ATOM    115  O62 IDS d 305     130.333  14.957  66.619  0.00  0.00    -0.646 OA
ATOM    116  O2S IDS d 305     131.160   8.931  71.482  0.00  0.00    -0.572 OA
ATOM    117  O2  IDS d 305     131.536   9.451  69.148  0.00  0.00    -0.244 OA
ATOM    118  O5  IDS d 305     131.300  13.001  68.417  0.00  0.00    -0.343 OA
ATOM    119  C5  IDS d 305     129.896  13.125  68.099  0.00  0.00     0.127 C 
ATOM    120  C3  IDS d 305     130.295  10.654  67.463  0.00  0.00     0.069 C 
ATOM    121  C2  IDS d 305     130.782  10.633  68.926  0.00  0.00     0.132 C 
ATOM    122  C6  IDS d 305     129.630  14.501  67.495  0.00  0.00     0.203 C 
ATOM    123  O3S IDS d 305     130.060   7.673  69.768  0.00  0.00    -0.572 OA
ATOM    124  H   IDS d 305     132.694  11.649  68.948  0.00  0.00     0.133 H 
ATOM    125  H   IDS d 305     128.431  11.728  67.335  0.00  0.00     0.041 H 
ATOM    126  H   IDS d 305     129.645  12.227  66.157  0.00  0.00     0.041 H 
ATOM    127  H   IDS d 305     129.170   9.542  66.298  0.00  0.00     0.210 HD
ATOM    128  H   IDS d 305     129.294  13.059  68.981  0.00  0.00     0.100 H 
ATOM    129  H   IDS d 305     131.154  10.638  66.826  0.00  0.00     0.087 H 
ATOM    130  H   IDS d 305     129.933  10.660  69.577  0.00  0.00     0.097 H 
ENDROOT
TORSDOF 39
ENDMDL
MODEL 65
REMARK VINA RESULT:      -4.9      3.258      5.012
REMARK  0 active torsions:
REMARK  status: ('A' for Active; 'I' for Inactive)
REMARK       I    between atoms: C2_2  and  N_68 
REMARK       I    between atoms: C1_3  and  O4_24 
REMARK       I    between atoms: O1S_5  and  S1_58 
REMARK       I    between atoms: O1_6  and  C1_31 
REMARK       I    between atoms: C4_7  and  O4_36 
REMARK       I    between atoms: C1_8  and  O4_37 
REMARK       I    between atoms: O3_9  and  C3_74 
REMARK       I    between atoms: C5_10  and  C6_32 
REMARK       I    between atoms: C2_11  and  N_20 
REMARK       I    between atoms: C6_12  and  C5_53 
REMARK       I    between atoms: S2_14  and  O6_33 
REMARK       I    between atoms: O3S_16  and  S1_51 
REMARK       I    between atoms: S_17  and  O2_44 
REMARK       I    between atoms: N_20  and  S1_58 
REMARK       I    between atoms: O4_24  and  C4_38 
REMARK       I    between atoms: S_25  and  O2_64 
REMARK       I    between atoms: O2S_27  and  S1_51 
REMARK       I    between atoms: C4_28  and  O4_73 
REMARK       I    between atoms: C3_30  and  O3_62 
REMARK       I    between atoms: O6_33  and  C6_63 
REMARK       I    between atoms: O3_35  and  C3_55 
REMARK       I    between atoms: O4_36  and  C1_84 
REMARK       I    between atoms: O4_37  and  C4_54 
REMARK       I    between atoms: C3_39  and  O3_48 
REMARK       I    between atoms: C5_42  and  C6_63 
REMARK       I    between atoms: O2_44  and  C2_61 
REMARK       I    between atoms: O6_45  and  C6_77 
REMARK       I    between atoms: O6_45  and  S2_82 
REMARK       I    between atoms: C5_49  and  C6_76 
REMARK       I    between atoms: S1_51  and  N_68 
REMARK       I    between atoms: S1_51  and  O1S_81 
REMARK       I    between atoms: O2S_52  and  S1_58 
REMARK       I    between atoms: C2_57  and  O2_64 
REMARK       I    between atoms: S1_58  and  O3S_75 
REMARK       I    between atoms: O3_66  and  C3_67 
REMARK       I    between atoms: O2_69  and  C2_79 
REMARK       I    between atoms: O2_69  and  S_72 
REMARK       I    between atoms: C5_70  and  C6_77 
REMARK       I    between atoms: C1_71  and  O4_73 
ROOT
ATOM      1  O2S IDS d 303     128.836  12.946  77.534  0.00  0.00    -0.572 OA
ATOM      2  C6  IDS d 303     135.746  11.879  75.618  0.00  0.00     0.206 C 
ATOM      3  O1S IDS d 303     129.638  10.926  78.525  0.00  0.00    -0.572 OA
ATOM      4  O3S IDS d 303     129.904  13.007  79.687  0.00  0.00    -0.572 OA
ATOM      5  O4  IDS d 303     132.904  13.047  75.259  0.00  0.00    -0.348 OA
ATOM      6  O61 IDS d 303     136.670  12.520  75.159  0.00  0.00    -0.646 OA
ATOM      7  C4  IDS d 303     133.876  13.590  76.165  0.00  0.00     0.103 C 
ATOM      8  C3  IDS d 303     133.019  14.120  77.350  0.00  0.00     0.094 C 
ATOM      9  O62 IDS d 303     135.581  10.749  75.210  0.00  0.00    -0.646 OA
ATOM     10  O3  IDS d 303     133.837  14.953  78.152  0.00  0.00    -0.390 OA
ATOM     11  C5  IDS d 303     134.822  12.477  76.678  0.00  0.00     0.152 C 
ATOM     12  O2  IDS d 303     131.192  12.572  77.685  0.00  0.00    -0.244 OA
ATOM     13  C1  IDS d 303     133.323  11.752  78.446  0.00  0.00     0.161 C 
ATOM     14  S   IDS d 303     129.815  12.349  78.409  0.00  0.00     0.252 S 
ATOM     15  C2  IDS d 303     132.423  13.000  78.247  0.00  0.00     0.134 C 
ATOM     16  O5  IDS d 303     134.031  11.429  77.255  0.00  0.00    -0.340 OA
ATOM     17  H   IDS d 303     134.488  14.339  75.707  0.00  0.00     0.092 H 
ATOM     18  H   IDS d 303     132.190  14.646  76.925  0.00  0.00     0.091 H 
ATOM     19  H   IDS d 303     134.572  14.432  78.513  0.00  0.00     0.210 HD
ATOM     20  H   IDS d 303     135.465  12.941  77.396  0.00  0.00     0.104 H 
ATOM     21  H   IDS d 303     132.714  10.902  78.670  0.00  0.00     0.133 H 
ATOM     22  H   IDS d 303     132.311  13.441  79.216  0.00  0.00     0.097 H 
ATOM     23  C2  SGN d 304     131.266  13.455  73.479  0.00  0.00     0.081 C 
ATOM     24  C1  SGN d 304     132.693  13.718  74.035  0.00  0.00     0.150 C 
ATOM     25  O3  SGN d 304     129.832  11.746  72.553  0.00  0.00    -0.391 OA
ATOM     26  O3S SGN d 304     128.410  15.385  74.287  0.00  0.00    -0.296 OA
ATOM     27  O5S SGN d 304     134.956  14.008  68.610  0.00  0.00    -0.572 OA
ATOM     28  O2S SGN d 304     130.602  16.230  73.810  0.00  0.00    -0.296 OA
ATOM     29  O4S SGN d 304     135.377  11.651  68.651  0.00  0.00    -0.572 OA
ATOM     30  O4  SGN d 304     131.752  10.408  71.477  0.00  0.00    -0.348 OA
ATOM     31  O6  SGN d 304     134.764  12.837  70.665  0.00  0.00    -0.254 OA
ATOM     32  S1  SGN d 304     129.794  15.392  74.659  0.00  0.00     0.156 S 
ATOM     33  C4  SGN d 304     132.185  11.691  71.960  0.00  0.00     0.095 C 
ATOM     34  O6S SGN d 304     136.918  13.173  69.675  0.00  0.00    -0.572 OA
ATOM     35  N   SGN d 304     130.292  13.831  74.516  0.00  0.00    -0.210 NA
ATOM     36  C5  SGN d 304     133.595  11.973  72.574  0.00  0.00     0.091 C 
ATOM     37  C3  SGN d 304     131.133  11.975  73.066  0.00  0.00     0.083 C 
ATOM     38  C6  SGN d 304     134.772  11.784  71.607  0.00  0.00     0.067 C 
ATOM     39  O5  SGN d 304     133.681  13.331  73.079  0.00  0.00    -0.349 OA
ATOM     40  O1S SGN d 304     129.984  15.702  76.049  0.00  0.00    -0.296 OA
ATOM     41  S2  SGN d 304     135.555  12.911  69.319  0.00  0.00     0.251 S 
ATOM     42  H   SGN d 304     131.080  14.043  72.604  0.00  0.00     0.076 H 
ATOM     43  H   SGN d 304     132.781  14.768  74.220  0.00  0.00     0.131 H 
ATOM     44  H   SGN d 304     129.176  11.923  73.246  0.00  0.00     0.210 HD
ATOM     45  H   SGN d 304     128.330  15.172  73.344  0.00  0.00     0.231 HD
ATOM     46  H   SGN d 304     130.448  15.993  72.882  0.00  0.00     0.231 HD
ATOM     47  H   SGN d 304     132.273  12.296  71.082  0.00  0.00     0.091 H 
ATOM     48  H   SGN d 304     130.702  13.571  75.413  0.00  0.00     0.140 HD
ATOM     49  H   SGN d 304     133.684  11.243  73.352  0.00  0.00     0.090 H 
ATOM     50  H   SGN d 304     131.294  11.333  73.906  0.00  0.00     0.089 H 
ATOM     51  H   SGN d 304     135.692  11.798  72.153  0.00  0.00     0.080 H 
ATOM     52  H   SGN d 304     134.680  10.845  71.102  0.00  0.00     0.080 H 
ATOM     53  H   SGN d 304     129.710  16.617  76.217  0.00  0.00     0.231 HD
ATOM     54  O62 IDS d 301     133.227   8.772  84.389  0.00  0.00    -0.646 OA
ATOM     55  O1  IDS d 301     136.021   8.600  88.558  0.00  0.00    -0.368 OA
ATOM     56  C4  IDS d 301     136.279   9.651  84.614  0.00  0.00     0.103 C 
ATOM     57  C5  IDS d 301     135.373   8.662  85.441  0.00  0.00     0.152 C 
ATOM     58  O61 IDS d 301     134.156   6.922  84.369  0.00  0.00    -0.646 OA
ATOM     59  S   IDS d 301     139.536  10.118  88.423  0.00  0.00     0.252 S 
ATOM     60  C3  IDS d 301     137.211  10.465  85.567  0.00  0.00     0.094 C 
ATOM     61  C1  IDS d 301     135.936   9.623  87.606  0.00  0.00     0.158 C 
ATOM     62  C6  IDS d 301     134.178   8.089  84.689  0.00  0.00     0.206 C 
ATOM     63  O5  IDS d 301     134.922   9.335  86.637  0.00  0.00    -0.340 OA
ATOM     64  O4  IDS d 301     136.385  10.360  83.370  0.00  0.00    -0.348 OA
ATOM     65  O3S IDS d 301     139.649  10.970  89.581  0.00  0.00    -0.572 OA
ATOM     66  O1S IDS d 301     139.427   8.728  88.777  0.00  0.00    -0.572 OA
ATOM     67  C2  IDS d 301     137.336   9.771  86.938  0.00  0.00     0.134 C 
ATOM     68  O3  IDS d 301     138.499  10.576  84.982  0.00  0.00    -0.390 OA
ATOM     69  O2  IDS d 301     138.180  10.546  87.769  0.00  0.00    -0.244 OA
ATOM     70  O2S IDS d 301     140.550  10.374  87.433  0.00  0.00    -0.572 OA
ATOM     71  H   IDS d 301     136.712   8.815  89.204  0.00  0.00     0.212 HD
ATOM     72  H   IDS d 301     136.065   8.790  84.017  0.00  0.00     0.092 H 
ATOM     73  H   IDS d 301     135.989   7.817  85.666  0.00  0.00     0.104 H 
ATOM     74  H   IDS d 301     136.784  11.435  85.711  0.00  0.00     0.091 H 
ATOM     75  H   IDS d 301     135.661  10.545  88.075  0.00  0.00     0.133 H 
ATOM     76  H   IDS d 301     137.751   8.795  86.800  0.00  0.00     0.097 H 
ATOM     77  H   IDS d 301     138.875   9.691  84.857  0.00  0.00     0.210 HD
ATOM     78  O1S SGN d 302     140.818  10.866  81.682  0.00  0.00    -0.296 OA
ATOM     79  C2  SGN d 302     137.099  10.330  81.008  0.00  0.00     0.081 C 
ATOM     80  S2  SGN d 302     131.946   7.226  80.116  0.00  0.00     0.251 S 
ATOM     81  N   SGN d 302     138.412  10.849  81.428  0.00  0.00    -0.210 NA
ATOM     82  C4  SGN d 302     134.837  10.858  80.091  0.00  0.00     0.095 C 
ATOM     83  O6  SGN d 302     132.949   8.420  80.214  0.00  0.00    -0.254 OA
ATOM     84  C5  SGN d 302     134.218  10.167  81.349  0.00  0.00     0.091 C 
ATOM     85  O4S SGN d 302     130.630   7.788  79.997  0.00  0.00    -0.572 OA
ATOM     86  O2S SGN d 302     139.727   8.769  81.779  0.00  0.00    -0.296 OA
ATOM     87  S1  SGN d 302     139.794  10.037  81.121  0.00  0.00     0.156 S 
ATOM     88  O5S SGN d 302     132.334   6.507  78.941  0.00  0.00    -0.572 OA
ATOM     89  O6S SGN d 302     132.133   6.472  81.321  0.00  0.00    -0.572 OA
ATOM     90  C6  SGN d 302     132.849   9.506  81.105  0.00  0.00     0.067 C 
ATOM     91  O3  SGN d 302     136.820  12.085  79.407  0.00  0.00    -0.391 OA
ATOM     92  C3  SGN d 302     136.198  11.453  80.513  0.00  0.00     0.083 C 
ATOM     93  O4  SGN d 302     134.185  11.987  79.519  0.00  0.00    -0.348 OA
ATOM     94  O3S SGN d 302     139.878   9.931  79.693  0.00  0.00    -0.296 OA
ATOM     95  C1  SGN d 302     136.436   9.591  82.199  0.00  0.00     0.150 C 
ATOM     96  O5  SGN d 302     135.121   9.142  81.851  0.00  0.00    -0.349 OA
ATOM     97  H   SGN d 302     140.713  10.901  82.646  0.00  0.00     0.231 HD
ATOM     98  H   SGN d 302     137.242   9.646  80.197  0.00  0.00     0.076 H 
ATOM     99  H   SGN d 302     138.366  10.963  82.441  0.00  0.00     0.140 HD
ATOM    100  H   SGN d 302     134.809  10.070  79.368  0.00  0.00     0.091 H 
ATOM    101  H   SGN d 302     134.071  10.956  82.056  0.00  0.00     0.090 H 
ATOM    102  H   SGN d 302     139.671   8.904  82.738  0.00  0.00     0.231 HD
ATOM    103  H   SGN d 302     132.462   9.154  82.039  0.00  0.00     0.080 H 
ATOM    104  H   SGN d 302     132.198  10.236  80.672  0.00  0.00     0.080 H 
ATOM    105  H   SGN d 302     137.673  12.455  79.684  0.00  0.00     0.210 HD
ATOM    106  H   SGN d 302     136.038  12.174  81.287  0.00  0.00     0.089 H 
ATOM    107  H   SGN d 302     139.920  10.819  79.305  0.00  0.00     0.231 HD
ATOM    108  H   SGN d 302     137.061   8.748  82.407  0.00  0.00     0.131 H 
ATOM    109  C1  IDS d 305     132.034  10.066  70.143  0.00  0.00     0.161 C 
ATOM    110  O1S IDS d 305     135.112   7.001  71.504  0.00  0.00    -0.572 OA
ATOM    111  S   IDS d 305     133.678   7.058  71.548  0.00  0.00     0.252 S 
ATOM    112  C4  IDS d 305     130.239   8.624  68.202  0.00  0.00    -0.005 C 
ATOM    113  O61 IDS d 305     127.748  10.911  68.557  0.00  0.00    -0.646 OA
ATOM    114  O3  IDS d 305     131.613   6.669  68.531  0.00  0.00    -0.393 OA
ATOM    115  O62 IDS d 305     129.255  11.508  67.263  0.00  0.00    -0.646 OA
ATOM    116  O2S IDS d 305     133.198   7.652  72.760  0.00  0.00    -0.572 OA
ATOM    117  O2  IDS d 305     133.289   8.008  70.367  0.00  0.00    -0.244 OA
ATOM    118  O5  IDS d 305     131.103  10.679  69.236  0.00  0.00    -0.343 OA
ATOM    119  C5  IDS d 305     129.888   9.945  68.964  0.00  0.00     0.127 C 
ATOM    120  C3  IDS d 305     131.639   8.082  68.606  0.00  0.00     0.069 C 
ATOM    121  C2  IDS d 305     132.005   8.517  70.040  0.00  0.00     0.132 C 
ATOM    122  C6  IDS d 305     128.908  10.843  68.214  0.00  0.00     0.203 C 
ATOM    123  O3S IDS d 305     133.064   5.796  71.254  0.00  0.00    -0.572 OA
ATOM    124  H   IDS d 305     133.000  10.432  69.863  0.00  0.00     0.133 H 
ATOM    125  H   IDS d 305     129.500   7.885  68.432  0.00  0.00     0.041 H 
ATOM    126  H   IDS d 305     130.254   8.838  67.153  0.00  0.00     0.041 H 
ATOM    127  H   IDS d 305     131.383   6.398  67.628  0.00  0.00     0.210 HD
ATOM    128  H   IDS d 305     129.402   9.656  69.872  0.00  0.00     0.100 H 
ATOM    129  H   IDS d 305     132.376   8.479  67.940  0.00  0.00     0.087 H 
ATOM    130  H   IDS d 305     131.270   8.136  70.719  0.00  0.00     0.097 H 
ENDROOT
TORSDOF 39
ENDMDL
MODEL 66
REMARK VINA RESULT:      -4.9      3.539     13.928
REMARK  0 active torsions:
REMARK  status: ('A' for Active; 'I' for Inactive)
REMARK       I    between atoms: C2_2  and  N_68 
REMARK       I    between atoms: C1_3  and  O4_24 
REMARK       I    between atoms: O1S_5  and  S1_58 
REMARK       I    between atoms: O1_6  and  C1_31 
REMARK       I    between atoms: C4_7  and  O4_36 
REMARK       I    between atoms: C1_8  and  O4_37 
REMARK       I    between atoms: O3_9  and  C3_74 
REMARK       I    between atoms: C5_10  and  C6_32 
REMARK       I    between atoms: C2_11  and  N_20 
REMARK       I    between atoms: C6_12  and  C5_53 
REMARK       I    between atoms: S2_14  and  O6_33 
REMARK       I    between atoms: O3S_16  and  S1_51 
REMARK       I    between atoms: S_17  and  O2_44 
REMARK       I    between atoms: N_20  and  S1_58 
REMARK       I    between atoms: O4_24  and  C4_38 
REMARK       I    between atoms: S_25  and  O2_64 
REMARK       I    between atoms: O2S_27  and  S1_51 
REMARK       I    between atoms: C4_28  and  O4_73 
REMARK       I    between atoms: C3_30  and  O3_62 
REMARK       I    between atoms: O6_33  and  C6_63 
REMARK       I    between atoms: O3_35  and  C3_55 
REMARK       I    between atoms: O4_36  and  C1_84 
REMARK       I    between atoms: O4_37  and  C4_54 
REMARK       I    between atoms: C3_39  and  O3_48 
REMARK       I    between atoms: C5_42  and  C6_63 
REMARK       I    between atoms: O2_44  and  C2_61 
REMARK       I    between atoms: O6_45  and  C6_77 
REMARK       I    between atoms: O6_45  and  S2_82 
REMARK       I    between atoms: C5_49  and  C6_76 
REMARK       I    between atoms: S1_51  and  N_68 
REMARK       I    between atoms: S1_51  and  O1S_81 
REMARK       I    between atoms: O2S_52  and  S1_58 
REMARK       I    between atoms: C2_57  and  O2_64 
REMARK       I    between atoms: S1_58  and  O3S_75 
REMARK       I    between atoms: O3_66  and  C3_67 
REMARK       I    between atoms: O2_69  and  C2_79 
REMARK       I    between atoms: O2_69  and  S_72 
REMARK       I    between atoms: C5_70  and  C6_77 
REMARK       I    between atoms: C1_71  and  O4_73 
ROOT
ATOM      1  O2S IDS d 303     134.808   5.889  83.024  0.00  0.00    -0.572 OA
ATOM      2  C6  IDS d 303     137.130  12.019  79.926  0.00  0.00     0.206 C 
ATOM      3  O1S IDS d 303     132.949   7.075  82.105  0.00  0.00    -0.572 OA
ATOM      4  O3S IDS d 303     134.148   5.507  80.744  0.00  0.00    -0.572 OA
ATOM      5  O4  IDS d 303     137.326   9.649  81.906  0.00  0.00    -0.348 OA
ATOM      6  O61 IDS d 303     138.173  12.496  79.529  0.00  0.00    -0.646 OA
ATOM      7  C4  IDS d 303     137.637   9.544  80.508  0.00  0.00     0.103 C 
ATOM      8  C3  IDS d 303     137.206   8.094  80.145  0.00  0.00     0.094 C 
ATOM      9  O62 IDS d 303     136.361  12.747  80.519  0.00  0.00    -0.646 OA
ATOM     10  O3  IDS d 303     137.753   7.773  78.877  0.00  0.00    -0.390 OA
ATOM     11  C5  IDS d 303     136.793  10.548  79.685  0.00  0.00     0.152 C 
ATOM     12  O2  IDS d 303     135.196   7.591  81.390  0.00  0.00    -0.244 OA
ATOM     13  C1  IDS d 303     134.853   9.094  79.542  0.00  0.00     0.161 C 
ATOM     14  S   IDS d 303     134.214   6.446  81.834  0.00  0.00     0.252 S 
ATOM     15  C2  IDS d 303     135.667   7.890  80.085  0.00  0.00     0.134 C 
ATOM     16  O5  IDS d 303     135.405  10.331  79.977  0.00  0.00    -0.340 OA
ATOM     17  H   IDS d 303     138.667   9.752  80.302  0.00  0.00     0.092 H 
ATOM     18  H   IDS d 303     137.571   7.455  80.922  0.00  0.00     0.091 H 
ATOM     19  H   IDS d 303     137.394   8.377  78.209  0.00  0.00     0.210 HD
ATOM     20  H   IDS d 303     137.026  10.360  78.658  0.00  0.00     0.104 H 
ATOM     21  H   IDS d 303     133.857   9.059  79.932  0.00  0.00     0.133 H 
ATOM     22  H   IDS d 303     135.513   7.091  79.390  0.00  0.00     0.097 H 
ATOM     23  C2  SGN d 304     137.996   9.207  84.224  0.00  0.00     0.081 C 
ATOM     24  C1  SGN d 304     138.400   9.732  82.818  0.00  0.00     0.150 C 
ATOM     25  O3  SGN d 304     136.601   9.673  86.139  0.00  0.00    -0.391 OA
ATOM     26  O3S SGN d 304     138.233   5.825  85.245  0.00  0.00    -0.296 OA
ATOM     27  O5S SGN d 304     142.029  13.734  85.152  0.00  0.00    -0.572 OA
ATOM     28  O2S SGN d 304     139.863   7.037  83.973  0.00  0.00    -0.296 OA
ATOM     29  O4S SGN d 304     140.239  15.323  85.231  0.00  0.00    -0.572 OA
ATOM     30  O4  SGN d 304     136.671  12.230  85.843  0.00  0.00    -0.348 OA
ATOM     31  O6  SGN d 304     140.013  13.259  83.997  0.00  0.00    -0.254 OA
ATOM     32  S1  SGN d 304     138.506   6.557  84.044  0.00  0.00     0.156 S 
ATOM     33  C4  SGN d 304     137.612  11.557  84.991  0.00  0.00     0.095 C 
ATOM     34  O6S SGN d 304     141.470  14.985  83.203  0.00  0.00    -0.572 OA
ATOM     35  N   SGN d 304     137.475   7.838  84.071  0.00  0.00    -0.210 NA
ATOM     36  C5  SGN d 304     137.998  12.033  83.552  0.00  0.00     0.091 C 
ATOM     37  C3  SGN d 304     136.958  10.156  84.856  0.00  0.00     0.083 C 
ATOM     38  C6  SGN d 304     138.702  13.396  83.487  0.00  0.00     0.067 C 
ATOM     39  O5  SGN d 304     138.876  11.075  82.905  0.00  0.00    -0.349 OA
ATOM     40  O1S SGN d 304     138.137   5.826  82.864  0.00  0.00    -0.296 OA
ATOM     41  S2  SGN d 304     140.989  14.402  84.421  0.00  0.00     0.251 S 
ATOM     42  H   SGN d 304     138.840   9.180  84.882  0.00  0.00     0.076 H 
ATOM     43  H   SGN d 304     139.188   9.107  82.451  0.00  0.00     0.131 H 
ATOM     44  H   SGN d 304     136.192   8.798  86.053  0.00  0.00     0.210 HD
ATOM     45  H   SGN d 304     138.497   6.355  86.013  0.00  0.00     0.231 HD
ATOM     46  H   SGN d 304     140.076   7.525  84.784  0.00  0.00     0.231 HD
ATOM     47  H   SGN d 304     138.560  11.705  85.464  0.00  0.00     0.091 H 
ATOM     48  H   SGN d 304     136.959   7.817  83.191  0.00  0.00     0.140 HD
ATOM     49  H   SGN d 304     137.056  12.121  83.053  0.00  0.00     0.090 H 
ATOM     50  H   SGN d 304     136.080  10.212  84.248  0.00  0.00     0.089 H 
ATOM     51  H   SGN d 304     138.744  13.730  82.472  0.00  0.00     0.080 H 
ATOM     52  H   SGN d 304     138.159  14.112  84.068  0.00  0.00     0.080 H 
ATOM     53  H   SGN d 304     138.706   5.045  82.775  0.00  0.00     0.231 HD
ATOM     54  O62 IDS d 301     129.499   7.794  75.820  0.00  0.00    -0.646 OA
ATOM     55  O1  IDS d 301     128.224   7.698  70.965  0.00  0.00    -0.368 OA
ATOM     56  C4  IDS d 301     131.091   9.213  73.457  0.00  0.00     0.103 C 
ATOM     57  C5  IDS d 301     129.592   8.764  73.635  0.00  0.00     0.152 C 
ATOM     58  O61 IDS d 301     128.315   9.464  75.516  0.00  0.00    -0.646 OA
ATOM     59  S   IDS d 301     130.661   9.242  68.442  0.00  0.00     0.252 S 
ATOM     60  C3  IDS d 301     131.585   8.905  72.008  0.00  0.00     0.094 C 
ATOM     61  C1  IDS d 301     129.491   7.532  71.538  0.00  0.00     0.158 C 
ATOM     62  C6  IDS d 301     129.109   8.663  75.077  0.00  0.00     0.206 C 
ATOM     63  O5  IDS d 301     129.403   7.497  72.967  0.00  0.00    -0.340 OA
ATOM     64  O4  IDS d 301     132.309   9.494  74.165  0.00  0.00    -0.348 OA
ATOM     65  O3S IDS d 301     130.819   8.267  67.391  0.00  0.00    -0.572 OA
ATOM     66  O1S IDS d 301     129.328   9.780  68.491  0.00  0.00    -0.572 OA
ATOM     67  C2  IDS d 301     130.393   8.706  71.052  0.00  0.00     0.134 C 
ATOM     68  O3  IDS d 301     132.381   9.984  71.543  0.00  0.00    -0.390 OA
ATOM     69  O2  IDS d 301     130.887   8.421  69.756  0.00  0.00    -0.244 OA
ATOM     70  O2S IDS d 301     131.683  10.256  68.430  0.00  0.00    -0.572 OA
ATOM     71  H   IDS d 301     128.307   7.719  69.998  0.00  0.00     0.212 HD
ATOM     72  H   IDS d 301     130.618   9.850  74.174  0.00  0.00     0.092 H 
ATOM     73  H   IDS d 301     128.998   9.539  73.199  0.00  0.00     0.104 H 
ATOM     74  H   IDS d 301     132.161   8.003  72.032  0.00  0.00     0.091 H 
ATOM     75  H   IDS d 301     129.917   6.599  71.233  0.00  0.00     0.133 H 
ATOM     76  H   IDS d 301     129.806   9.599  71.033  0.00  0.00     0.097 H 
ATOM     77  H   IDS d 301     131.849  10.795  71.527  0.00  0.00     0.210 HD
ATOM     78  O1S SGN d 302     134.986  12.979  72.310  0.00  0.00    -0.296 OA
ATOM     79  C2  SGN d 302     133.674  11.145  75.389  0.00  0.00     0.081 C 
ATOM     80  S2  SGN d 302     129.926   9.914  80.017  0.00  0.00     0.251 S 
ATOM     81  N   SGN d 302     134.315  11.517  74.116  0.00  0.00    -0.210 NA
ATOM     82  C4  SGN d 302     133.816   9.795  77.486  0.00  0.00     0.095 C 
ATOM     83  O6  SGN d 302     131.170   9.858  79.073  0.00  0.00    -0.254 OA
ATOM     84  C5  SGN d 302     132.439   9.157  77.112  0.00  0.00     0.091 C 
ATOM     85  O4S SGN d 302     130.012   8.781  80.897  0.00  0.00    -0.572 OA
ATOM     86  O2S SGN d 302     132.888  13.391  73.323  0.00  0.00    -0.296 OA
ATOM     87  S1  SGN d 302     134.258  13.043  73.541  0.00  0.00     0.156 S 
ATOM     88  O5S SGN d 302     130.047  11.153  80.721  0.00  0.00    -0.572 OA
ATOM     89  O6S SGN d 302     128.786   9.871  79.149  0.00  0.00    -0.572 OA
ATOM     90  C6  SGN d 302     131.579   8.741  78.319  0.00  0.00     0.067 C 
ATOM     91  O3  SGN d 302     135.788  10.755  76.439  0.00  0.00    -0.391 OA
ATOM     92  C3  SGN d 302     134.533  10.155  76.167  0.00  0.00     0.083 C 
ATOM     93  O4  SGN d 302     134.798   9.006  78.150  0.00  0.00    -0.348 OA
ATOM     94  O3S SGN d 302     134.900  13.860  74.531  0.00  0.00    -0.296 OA
ATOM     95  C1  SGN d 302     132.278  10.537  75.101  0.00  0.00     0.150 C 
ATOM     96  O5  SGN d 302     131.658  10.088  76.312  0.00  0.00    -0.349 OA
ATOM     97  H   SGN d 302     134.508  12.417  71.680  0.00  0.00     0.231 HD
ATOM     98  H   SGN d 302     133.565  12.024  75.990  0.00  0.00     0.076 H 
ATOM     99  H   SGN d 302     133.896  10.924  73.399  0.00  0.00     0.140 HD
ATOM    100  H   SGN d 302     133.524  10.576  78.156  0.00  0.00     0.091 H 
ATOM    101  H   SGN d 302     132.683   8.267  76.571  0.00  0.00     0.090 H 
ATOM    102  H   SGN d 302     132.509  12.807  72.647  0.00  0.00     0.231 HD
ATOM    103  H   SGN d 302     130.711   8.224  77.965  0.00  0.00     0.080 H 
ATOM    104  H   SGN d 302     132.170   8.109  78.949  0.00  0.00     0.080 H 
ATOM    105  H   SGN d 302     136.228  10.977  75.604  0.00  0.00     0.210 HD
ATOM    106  H   SGN d 302     134.685   9.263  75.597  0.00  0.00     0.089 H 
ATOM    107  H   SGN d 302     135.822  13.577  74.634  0.00  0.00     0.231 HD
ATOM    108  H   SGN d 302     131.697  11.325  74.670  0.00  0.00     0.131 H 
ATOM    109  C1  IDS d 305     137.140  13.265  86.671  0.00  0.00     0.161 C 
ATOM    110  O1S IDS d 305     134.994  16.370  84.125  0.00  0.00    -0.572 OA
ATOM    111  S   IDS d 305     134.552  15.364  85.050  0.00  0.00     0.252 S 
ATOM    112  C4  IDS d 305     136.342  13.841  89.517  0.00  0.00    -0.005 C 
ATOM    113  O61 IDS d 305     137.207  10.723  90.560  0.00  0.00    -0.646 OA
ATOM    114  O3  IDS d 305     135.046  15.695  88.678  0.00  0.00    -0.393 OA
ATOM    115  O62 IDS d 305     138.815  12.022  90.378  0.00  0.00    -0.646 OA
ATOM    116  O2S IDS d 305     134.283  14.116  84.401  0.00  0.00    -0.572 OA
ATOM    117  O2  IDS d 305     135.773  15.150  86.005  0.00  0.00    -0.244 OA
ATOM    118  O5  IDS d 305     137.778  12.748  87.850  0.00  0.00    -0.343 OA
ATOM    119  C5  IDS d 305     136.923  12.488  88.986  0.00  0.00     0.127 C 
ATOM    120  C3  IDS d 305     136.160  14.878  88.372  0.00  0.00     0.069 C 
ATOM    121  C2  IDS d 305     135.928  14.171  87.021  0.00  0.00     0.132 C 
ATOM    122  C6  IDS d 305     137.698  11.700  90.037  0.00  0.00     0.203 C 
ATOM    123  O3S IDS d 305     133.477  15.813  85.885  0.00  0.00    -0.572 OA
ATOM    124  H   IDS d 305     137.887  13.838  86.161  0.00  0.00     0.133 H 
ATOM    125  H   IDS d 305     135.391  13.655  89.972  0.00  0.00     0.041 H 
ATOM    126  H   IDS d 305     137.033  14.245  90.226  0.00  0.00     0.041 H 
ATOM    127  H   IDS d 305     135.194  16.138  89.528  0.00  0.00     0.210 HD
ATOM    128  H   IDS d 305     136.086  11.883  88.707  0.00  0.00     0.100 H 
ATOM    129  H   IDS d 305     137.047  15.470  88.290  0.00  0.00     0.087 H 
ATOM    130  H   IDS d 305     135.048  13.565  87.090  0.00  0.00     0.097 H 
ENDROOT
TORSDOF 39
ENDMDL
MODEL 67
REMARK VINA RESULT:      -4.9      3.558     13.663
REMARK  0 active torsions:
REMARK  status: ('A' for Active; 'I' for Inactive)
REMARK       I    between atoms: C2_2  and  N_68 
REMARK       I    between atoms: C1_3  and  O4_24 
REMARK       I    between atoms: O1S_5  and  S1_58 
REMARK       I    between atoms: O1_6  and  C1_31 
REMARK       I    between atoms: C4_7  and  O4_36 
REMARK       I    between atoms: C1_8  and  O4_37 
REMARK       I    between atoms: O3_9  and  C3_74 
REMARK       I    between atoms: C5_10  and  C6_32 
REMARK       I    between atoms: C2_11  and  N_20 
REMARK       I    between atoms: C6_12  and  C5_53 
REMARK       I    between atoms: S2_14  and  O6_33 
REMARK       I    between atoms: O3S_16  and  S1_51 
REMARK       I    between atoms: S_17  and  O2_44 
REMARK       I    between atoms: N_20  and  S1_58 
REMARK       I    between atoms: O4_24  and  C4_38 
REMARK       I    between atoms: S_25  and  O2_64 
REMARK       I    between atoms: O2S_27  and  S1_51 
REMARK       I    between atoms: C4_28  and  O4_73 
REMARK       I    between atoms: C3_30  and  O3_62 
REMARK       I    between atoms: O6_33  and  C6_63 
REMARK       I    between atoms: O3_35  and  C3_55 
REMARK       I    between atoms: O4_36  and  C1_84 
REMARK       I    between atoms: O4_37  and  C4_54 
REMARK       I    between atoms: C3_39  and  O3_48 
REMARK       I    between atoms: C5_42  and  C6_63 
REMARK       I    between atoms: O2_44  and  C2_61 
REMARK       I    between atoms: O6_45  and  C6_77 
REMARK       I    between atoms: O6_45  and  S2_82 
REMARK       I    between atoms: C5_49  and  C6_76 
REMARK       I    between atoms: S1_51  and  N_68 
REMARK       I    between atoms: S1_51  and  O1S_81 
REMARK       I    between atoms: O2S_52  and  S1_58 
REMARK       I    between atoms: C2_57  and  O2_64 
REMARK       I    between atoms: S1_58  and  O3S_75 
REMARK       I    between atoms: O3_66  and  C3_67 
REMARK       I    between atoms: O2_69  and  C2_79 
REMARK       I    between atoms: O2_69  and  S_72 
REMARK       I    between atoms: C5_70  and  C6_77 
REMARK       I    between atoms: C1_71  and  O4_73 
ROOT
ATOM      1  O2S IDS d 303     130.976  10.639  83.386  0.00  0.00    -0.572 OA
ATOM      2  C6  IDS d 303     136.684   9.919  78.975  0.00  0.00     0.206 C 
ATOM      3  O1S IDS d 303     130.958  12.392  81.764  0.00  0.00    -0.572 OA
ATOM      4  O3S IDS d 303     129.865  10.313  81.279  0.00  0.00    -0.572 OA
ATOM      5  O4  IDS d 303     135.141   9.508  81.625  0.00  0.00    -0.348 OA
ATOM      6  O61 IDS d 303     137.489   9.065  78.664  0.00  0.00    -0.646 OA
ATOM      7  C4  IDS d 303     134.898   8.738  80.438  0.00  0.00     0.103 C 
ATOM      8  C3  IDS d 303     133.371   8.444  80.496  0.00  0.00     0.094 C 
ATOM      9  O62 IDS d 303     137.087  11.054  79.120  0.00  0.00    -0.646 OA
ATOM     10  O3  IDS d 303     133.078   7.432  79.549  0.00  0.00    -0.390 OA
ATOM     11  C5  IDS d 303     135.207   9.576  79.173  0.00  0.00     0.152 C 
ATOM     12  O2  IDS d 303     132.281  10.405  81.397  0.00  0.00    -0.244 OA
ATOM     13  C1  IDS d 303     133.035  10.660  79.125  0.00  0.00     0.161 C 
ATOM     14  S   IDS d 303     130.936  10.971  81.983  0.00  0.00     0.252 S 
ATOM     15  C2  IDS d 303     132.480   9.680  80.193  0.00  0.00     0.134 C 
ATOM     16  O5  IDS d 303     134.448  10.791  79.227  0.00  0.00    -0.340 OA
ATOM     17  H   IDS d 303     135.505   7.858  80.390  0.00  0.00     0.092 H 
ATOM     18  H   IDS d 303     133.149   8.145  81.499  0.00  0.00     0.091 H 
ATOM     19  H   IDS d 303     133.295   7.751  78.659  0.00  0.00     0.210 HD
ATOM     20  H   IDS d 303     134.935   8.965  78.338  0.00  0.00     0.104 H 
ATOM     21  H   IDS d 303     132.632  11.637  79.291  0.00  0.00     0.133 H 
ATOM     22  H   IDS d 303     131.573   9.283  79.786  0.00  0.00     0.097 H 
ATOM     23  C2  SGN d 304     135.552   9.525  84.043  0.00  0.00     0.081 C 
ATOM     24  C1  SGN d 304     135.894   8.910  82.658  0.00  0.00     0.150 C 
ATOM     25  O3  SGN d 304     135.721  11.540  85.364  0.00  0.00    -0.391 OA
ATOM     26  O3S SGN d 304     132.951   8.382  86.157  0.00  0.00    -0.296 OA
ATOM     27  O5S SGN d 304     141.502   8.047  84.223  0.00  0.00    -0.572 OA
ATOM     28  O2S SGN d 304     134.476   7.009  84.918  0.00  0.00    -0.296 OA
ATOM     29  O4S SGN d 304     142.075  10.222  83.398  0.00  0.00    -0.572 OA
ATOM     30  O4  SGN d 304     137.901  12.346  84.255  0.00  0.00    -0.348 OA
ATOM     31  O6  SGN d 304     139.927   9.233  82.902  0.00  0.00    -0.254 OA
ATOM     32  S1  SGN d 304     133.456   8.026  84.863  0.00  0.00     0.156 S 
ATOM     33  C4  SGN d 304     137.569  10.997  83.889  0.00  0.00     0.095 C 
ATOM     34  O6S SGN d 304     141.918   8.361  81.897  0.00  0.00    -0.572 OA
ATOM     35  N   SGN d 304     134.099   9.410  84.250  0.00  0.00    -0.210 NA
ATOM     36  C5  SGN d 304     137.854  10.368  82.485  0.00  0.00     0.091 C 
ATOM     37  C3  SGN d 304     136.031  10.990  84.096  0.00  0.00     0.083 C 
ATOM     38  C6  SGN d 304     139.340  10.251  82.118  0.00  0.00     0.067 C 
ATOM     39  O5  SGN d 304     137.292   9.033  82.390  0.00  0.00    -0.349 OA
ATOM     40  O1S SGN d 304     132.407   7.680  83.945  0.00  0.00    -0.296 OA
ATOM     41  S2  SGN d 304     141.451   8.959  83.113  0.00  0.00     0.251 S 
ATOM     42  H   SGN d 304     136.053   9.002  84.831  0.00  0.00     0.076 H 
ATOM     43  H   SGN d 304     135.637   7.872  82.690  0.00  0.00     0.131 H 
ATOM     44  H   SGN d 304     134.759  11.535  85.491  0.00  0.00     0.210 HD
ATOM     45  H   SGN d 304     133.691   8.607  86.742  0.00  0.00     0.231 HD
ATOM     46  H   SGN d 304     135.165   7.276  85.546  0.00  0.00     0.231 HD
ATOM     47  H   SGN d 304     138.230  10.388  84.470  0.00  0.00     0.091 H 
ATOM     48  H   SGN d 304     133.660   9.559  83.342  0.00  0.00     0.140 HD
ATOM     49  H   SGN d 304     137.396  11.052  81.803  0.00  0.00     0.090 H 
ATOM     50  H   SGN d 304     135.551  11.571  83.337  0.00  0.00     0.089 H 
ATOM     51  H   SGN d 304     139.436  10.006  81.080  0.00  0.00     0.080 H 
ATOM     52  H   SGN d 304     139.834  11.182  82.303  0.00  0.00     0.080 H 
ATOM     53  H   SGN d 304     131.974   6.864  84.240  0.00  0.00     0.231 HD
ATOM     54  O62 IDS d 301     128.684  13.577  75.030  0.00  0.00    -0.646 OA
ATOM     55  O1  IDS d 301     126.998  13.043  70.330  0.00  0.00    -0.368 OA
ATOM     56  C4  IDS d 301     130.141  11.954  72.711  0.00  0.00     0.103 C 
ATOM     57  C5  IDS d 301     129.105  13.141  72.716  0.00  0.00     0.152 C 
ATOM     58  O61 IDS d 301     129.523  15.131  73.951  0.00  0.00    -0.646 OA
ATOM     59  S   IDS d 301     128.915  10.684  67.997  0.00  0.00     0.252 S 
ATOM     60  C3  IDS d 301     129.796  10.933  71.582  0.00  0.00     0.094 C 
ATOM     61  C1  IDS d 301     127.554  12.072  71.174  0.00  0.00     0.158 C 
ATOM     62  C6  IDS d 301     129.101  13.997  73.977  0.00  0.00     0.206 C 
ATOM     63  O5  IDS d 301     127.784  12.607  72.482  0.00  0.00    -0.340 OA
ATOM     64  O4  IDS d 301     131.089  11.239  73.519  0.00  0.00    -0.348 OA
ATOM     65  O3S IDS d 301     127.924   9.833  67.386  0.00  0.00    -0.572 OA
ATOM     66  O1S IDS d 301     128.782  12.057  67.589  0.00  0.00    -0.572 OA
ATOM     67  C2  IDS d 301     128.878  11.574  70.522  0.00  0.00     0.134 C 
ATOM     68  O3  IDS d 301     130.994  10.498  70.958  0.00  0.00    -0.390 OA
ATOM     69  O2  IDS d 301     128.585  10.612  69.526  0.00  0.00    -0.244 OA
ATOM     70  O2S IDS d 301     130.256  10.177  67.859  0.00  0.00    -0.572 OA
ATOM     71  H   IDS d 301     126.851  12.661  69.451  0.00  0.00     0.212 HD
ATOM     72  H   IDS d 301     130.626  12.841  73.061  0.00  0.00     0.092 H 
ATOM     73  H   IDS d 301     129.413  13.804  71.934  0.00  0.00     0.104 H 
ATOM     74  H   IDS d 301     129.284  10.102  72.021  0.00  0.00     0.091 H 
ATOM     75  H   IDS d 301     126.878  11.251  71.291  0.00  0.00     0.133 H 
ATOM     76  H   IDS d 301     129.379  12.413  70.087  0.00  0.00     0.097 H 
ATOM     77  H   IDS d 301     131.448  11.259  70.564  0.00  0.00     0.210 HD
ATOM     78  O1S SGN d 302     134.934   9.625  71.204  0.00  0.00    -0.296 OA
ATOM     79  C2  SGN d 302     133.396  11.084  74.378  0.00  0.00     0.081 C 
ATOM     80  S2  SGN d 302     131.594  15.390  78.276  0.00  0.00     0.251 S 
ATOM     81  N   SGN d 302     133.743  10.249  73.215  0.00  0.00    -0.210 NA
ATOM     82  C4  SGN d 302     132.735  11.144  76.786  0.00  0.00     0.095 C 
ATOM     83  O6  SGN d 302     131.915  13.980  77.682  0.00  0.00    -0.254 OA
ATOM     84  C5  SGN d 302     131.476  11.972  76.370  0.00  0.00     0.091 C 
ATOM     85  O4S SGN d 302     130.838  15.179  79.480  0.00  0.00    -0.572 OA
ATOM     86  O2S SGN d 302     134.545  11.930  71.568  0.00  0.00    -0.296 OA
ATOM     87  S1  SGN d 302     134.916  10.685  72.167  0.00  0.00     0.156 S 
ATOM     88  O5S SGN d 302     132.868  15.985  78.537  0.00  0.00    -0.572 OA
ATOM     89  O6S SGN d 302     130.854  16.074  77.256  0.00  0.00    -0.572 OA
ATOM     90  C6  SGN d 302     130.978  12.957  77.443  0.00  0.00     0.067 C 
ATOM     91  O3  SGN d 302     134.246   9.454  75.909  0.00  0.00    -0.391 OA
ATOM     92  C3  SGN d 302     133.097  10.224  75.600  0.00  0.00     0.083 C 
ATOM     93  O4  SGN d 302     132.641  10.216  77.862  0.00  0.00    -0.348 OA
ATOM     94  O3S SGN d 302     136.123  10.764  72.938  0.00  0.00    -0.296 OA
ATOM     95  C1  SGN d 302     132.173  11.968  74.028  0.00  0.00     0.150 C 
ATOM     96  O5  SGN d 302     131.756  12.735  75.164  0.00  0.00    -0.349 OA
ATOM     97  H   SGN d 302     134.097   9.619  70.713  0.00  0.00     0.231 HD
ATOM     98  H   SGN d 302     134.233  11.708  74.617  0.00  0.00     0.076 H 
ATOM     99  H   SGN d 302     132.889  10.153  72.665  0.00  0.00     0.140 HD
ATOM    100  H   SGN d 302     133.418  11.912  77.083  0.00  0.00     0.091 H 
ATOM    101  H   SGN d 302     130.705  11.246  76.219  0.00  0.00     0.090 H 
ATOM    102  H   SGN d 302     133.725  11.815  71.062  0.00  0.00     0.231 HD
ATOM    103  H   SGN d 302     130.060  13.397  77.111  0.00  0.00     0.080 H 
ATOM    104  H   SGN d 302     130.834  12.415  78.354  0.00  0.00     0.080 H 
ATOM    105  H   SGN d 302     134.463   8.881  75.158  0.00  0.00     0.210 HD
ATOM    106  H   SGN d 302     132.275   9.568  75.404  0.00  0.00     0.089 H 
ATOM    107  H   SGN d 302     136.321   9.893  73.317  0.00  0.00     0.231 HD
ATOM    108  H   SGN d 302     132.498  12.626  73.250  0.00  0.00     0.131 H 
ATOM    109  C1  IDS d 305     139.184  12.604  84.770  0.00  0.00     0.161 C 
ATOM    110  O1S IDS d 305     140.353  14.792  80.953  0.00  0.00    -0.572 OA
ATOM    111  S   IDS d 305     139.476  15.100  82.047  0.00  0.00     0.252 S 
ATOM    112  C4  IDS d 305     139.915  14.450  87.034  0.00  0.00    -0.005 C 
ATOM    113  O61 IDS d 305     137.834  12.869  89.208  0.00  0.00    -0.646 OA
ATOM    114  O3  IDS d 305     140.750  15.994  85.379  0.00  0.00    -0.393 OA
ATOM    115  O62 IDS d 305     139.653  11.907  88.940  0.00  0.00    -0.646 OA
ATOM    116  O2S IDS d 305     138.138  14.649  81.810  0.00  0.00    -0.572 OA
ATOM    117  O2  IDS d 305     140.049  14.277  83.249  0.00  0.00    -0.244 OA
ATOM    118  O5  IDS d 305     139.275  12.245  86.158  0.00  0.00    -0.343 OA
ATOM    119  C5  IDS d 305     138.899  13.262  87.114  0.00  0.00     0.127 C 
ATOM    120  C3  IDS d 305     140.488  14.621  85.598  0.00  0.00     0.069 C 
ATOM    121  C2  IDS d 305     139.487  14.109  84.542  0.00  0.00     0.132 C 
ATOM    122  C6  IDS d 305     138.792  12.640  88.503  0.00  0.00     0.203 C 
ATOM    123  O3S IDS d 305     139.548  16.475  82.445  0.00  0.00    -0.572 OA
ATOM    124  H   IDS d 305     139.913  12.005  84.264  0.00  0.00     0.133 H 
ATOM    125  H   IDS d 305     139.415  15.353  87.318  0.00  0.00     0.041 H 
ATOM    126  H   IDS d 305     140.729  14.238  87.695  0.00  0.00     0.041 H 
ATOM    127  H   IDS d 305     141.379  16.313  86.044  0.00  0.00     0.210 HD
ATOM    128  H   IDS d 305     137.935  13.666  86.887  0.00  0.00     0.100 H 
ATOM    129  H   IDS d 305     141.387  14.049  85.508  0.00  0.00     0.087 H 
ATOM    130  H   IDS d 305     138.576  14.665  84.626  0.00  0.00     0.097 H 
ENDROOT
TORSDOF 39
ENDMDL
MODEL 68
REMARK VINA RESULT:      -4.9      3.829     13.657
REMARK  0 active torsions:
REMARK  status: ('A' for Active; 'I' for Inactive)
REMARK       I    between atoms: C2_2  and  N_68 
REMARK       I    between atoms: C1_3  and  O4_24 
REMARK       I    between atoms: O1S_5  and  S1_58 
REMARK       I    between atoms: O1_6  and  C1_31 
REMARK       I    between atoms: C4_7  and  O4_36 
REMARK       I    between atoms: C1_8  and  O4_37 
REMARK       I    between atoms: O3_9  and  C3_74 
REMARK       I    between atoms: C5_10  and  C6_32 
REMARK       I    between atoms: C2_11  and  N_20 
REMARK       I    between atoms: C6_12  and  C5_53 
REMARK       I    between atoms: S2_14  and  O6_33 
REMARK       I    between atoms: O3S_16  and  S1_51 
REMARK       I    between atoms: S_17  and  O2_44 
REMARK       I    between atoms: N_20  and  S1_58 
REMARK       I    between atoms: O4_24  and  C4_38 
REMARK       I    between atoms: S_25  and  O2_64 
REMARK       I    between atoms: O2S_27  and  S1_51 
REMARK       I    between atoms: C4_28  and  O4_73 
REMARK       I    between atoms: C3_30  and  O3_62 
REMARK       I    between atoms: O6_33  and  C6_63 
REMARK       I    between atoms: O3_35  and  C3_55 
REMARK       I    between atoms: O4_36  and  C1_84 
REMARK       I    between atoms: O4_37  and  C4_54 
REMARK       I    between atoms: C3_39  and  O3_48 
REMARK       I    between atoms: C5_42  and  C6_63 
REMARK       I    between atoms: O2_44  and  C2_61 
REMARK       I    between atoms: O6_45  and  C6_77 
REMARK       I    between atoms: O6_45  and  S2_82 
REMARK       I    between atoms: C5_49  and  C6_76 
REMARK       I    between atoms: S1_51  and  N_68 
REMARK       I    between atoms: S1_51  and  O1S_81 
REMARK       I    between atoms: O2S_52  and  S1_58 
REMARK       I    between atoms: C2_57  and  O2_64 
REMARK       I    between atoms: S1_58  and  O3S_75 
REMARK       I    between atoms: O3_66  and  C3_67 
REMARK       I    between atoms: O2_69  and  C2_79 
REMARK       I    between atoms: O2_69  and  S_72 
REMARK       I    between atoms: C5_70  and  C6_77 
REMARK       I    between atoms: C1_71  and  O4_73 
ROOT
ATOM      1  O2S IDS d 303     131.152  13.065  81.258  0.00  0.00    -0.572 OA
ATOM      2  C6  IDS d 303     134.287   7.171  78.431  0.00  0.00     0.206 C 
ATOM      3  O1S IDS d 303     132.362  13.670  79.290  0.00  0.00    -0.572 OA
ATOM      4  O3S IDS d 303     130.073  12.979  79.111  0.00  0.00    -0.572 OA
ATOM      5  O4  IDS d 303     133.056   8.844  80.724  0.00  0.00    -0.348 OA
ATOM      6  O61 IDS d 303     134.189   5.964  78.511  0.00  0.00    -0.646 OA
ATOM      7  C4  IDS d 303     132.275   8.154  79.736  0.00  0.00     0.103 C 
ATOM      8  C3  IDS d 303     131.030   9.069  79.549  0.00  0.00     0.094 C 
ATOM      9  O62 IDS d 303     135.402   7.647  78.375  0.00  0.00    -0.646 OA
ATOM     10  O3  IDS d 303     130.046   8.338  78.837  0.00  0.00    -0.390 OA
ATOM     11  C5  IDS d 303     133.047   8.063  78.398  0.00  0.00     0.152 C 
ATOM     12  O2  IDS d 303     131.776  11.364  79.699  0.00  0.00    -0.244 OA
ATOM     13  C1  IDS d 303     132.376  10.271  77.640  0.00  0.00     0.161 C 
ATOM     14  S   IDS d 303     131.310  12.858  79.839  0.00  0.00     0.252 S 
ATOM     15  C2  IDS d 303     131.326  10.384  78.776  0.00  0.00     0.134 C 
ATOM     16  O5  IDS d 303     133.431   9.385  77.996  0.00  0.00    -0.340 OA
ATOM     17  H   IDS d 303     132.034   7.154  80.032  0.00  0.00     0.092 H 
ATOM     18  H   IDS d 303     130.702   9.354  80.526  0.00  0.00     0.091 H 
ATOM     19  H   IDS d 303     130.390   8.103  77.961  0.00  0.00     0.210 HD
ATOM     20  H   IDS d 303     132.378   7.606  77.699  0.00  0.00     0.104 H 
ATOM     21  H   IDS d 303     132.831  11.225  77.476  0.00  0.00     0.133 H 
ATOM     22  H   IDS d 303     130.404  10.647  78.300  0.00  0.00     0.097 H 
ATOM     23  C2  SGN d 304     133.449   9.329  83.096  0.00  0.00     0.081 C 
ATOM     24  C1  SGN d 304     133.168   8.260  82.004  0.00  0.00     0.150 C 
ATOM     25  O3  SGN d 304     135.103  10.899  83.892  0.00  0.00    -0.391 OA
ATOM     26  O3S SGN d 304     130.941  11.119  84.841  0.00  0.00    -0.296 OA
ATOM     27  O5S SGN d 304     136.385   4.239  84.855  0.00  0.00    -0.572 OA
ATOM     28  O2S SGN d 304     130.906   8.780  84.316  0.00  0.00    -0.296 OA
ATOM     29  O4S SGN d 304     138.338   4.944  83.662  0.00  0.00    -0.572 OA
ATOM     30  O4  SGN d 304     137.121   9.512  83.095  0.00  0.00    -0.348 OA
ATOM     31  O6  SGN d 304     136.139   5.684  82.989  0.00  0.00    -0.254 OA
ATOM     32  S1  SGN d 304     130.964  10.127  83.807  0.00  0.00     0.156 S 
ATOM     33  C4  SGN d 304     135.888   8.780  83.008  0.00  0.00     0.095 C 
ATOM     34  O6S SGN d 304     136.797   3.406  82.660  0.00  0.00    -0.572 OA
ATOM     35  N   SGN d 304     132.392  10.351  83.021  0.00  0.00    -0.210 NA
ATOM     36  C5  SGN d 304     135.557   7.737  81.890  0.00  0.00     0.091 C 
ATOM     37  C3  SGN d 304     134.854   9.930  82.888  0.00  0.00     0.083 C 
ATOM     38  C6  SGN d 304     136.459   6.494  81.876  0.00  0.00     0.067 C 
ATOM     39  O5  SGN d 304     134.191   7.263  82.008  0.00  0.00    -0.349 OA
ATOM     40  O1S SGN d 304     129.963  10.361  82.804  0.00  0.00    -0.296 OA
ATOM     41  S2  SGN d 304     136.974   4.499  83.570  0.00  0.00     0.251 S 
ATOM     42  H   SGN d 304     133.435   8.894  84.074  0.00  0.00     0.076 H 
ATOM     43  H   SGN d 304     132.231   7.797  82.235  0.00  0.00     0.131 H 
ATOM     44  H   SGN d 304     134.455  11.618  83.815  0.00  0.00     0.210 HD
ATOM     45  H   SGN d 304     131.631  10.922  85.493  0.00  0.00     0.231 HD
ATOM     46  H   SGN d 304     131.595   8.660  84.989  0.00  0.00     0.231 HD
ATOM     47  H   SGN d 304     135.910   8.112  83.843  0.00  0.00     0.091 H 
ATOM     48  H   SGN d 304     132.167  10.469  82.033  0.00  0.00     0.140 HD
ATOM     49  H   SGN d 304     135.723   8.277  80.982  0.00  0.00     0.090 H 
ATOM     50  H   SGN d 304     134.925  10.397  81.929  0.00  0.00     0.089 H 
ATOM     51  H   SGN d 304     136.298   5.943  80.973  0.00  0.00     0.080 H 
ATOM     52  H   SGN d 304     137.486   6.791  81.927  0.00  0.00     0.080 H 
ATOM     53  H   SGN d 304     129.082  10.247  83.193  0.00  0.00     0.231 HD
ATOM     54  O62 IDS d 301     131.414  13.897  72.150  0.00  0.00    -0.646 OA
ATOM     55  O1  IDS d 301     129.683  13.266  67.479  0.00  0.00    -0.368 OA
ATOM     56  C4  IDS d 301     131.104  11.107  70.649  0.00  0.00     0.103 C 
ATOM     57  C5  IDS d 301     131.280  12.591  70.150  0.00  0.00     0.152 C 
ATOM     58  O61 IDS d 301     133.079  13.941  70.922  0.00  0.00    -0.646 OA
ATOM     59  S   IDS d 301     129.141   9.682  66.238  0.00  0.00     0.252 S 
ATOM     60  C3  IDS d 301     130.071  10.349  69.757  0.00  0.00     0.094 C 
ATOM     61  C1  IDS d 301     129.379  12.527  68.630  0.00  0.00     0.158 C 
ATOM     62  C6  IDS d 301     131.960  13.533  71.136  0.00  0.00     0.206 C 
ATOM     63  O5  IDS d 301     129.984  13.116  69.787  0.00  0.00    -0.340 OA
ATOM     64  O4  IDS d 301     131.252  10.240  71.785  0.00  0.00    -0.348 OA
ATOM     65  O3S IDS d 301     127.820   9.653  65.663  0.00  0.00    -0.572 OA
ATOM     66  O1S IDS d 301     130.045  10.513  65.489  0.00  0.00    -0.572 OA
ATOM     67  C2  IDS d 301     129.879  11.068  68.407  0.00  0.00     0.134 C 
ATOM     68  O3  IDS d 301     130.533   9.029  69.519  0.00  0.00    -0.390 OA
ATOM     69  O2  IDS d 301     128.930  10.354  67.637  0.00  0.00    -0.244 OA
ATOM     70  O2S IDS d 301     129.667   8.369  66.508  0.00  0.00    -0.572 OA
ATOM     71  H   IDS d 301     129.265  12.851  66.708  0.00  0.00     0.212 HD
ATOM     72  H   IDS d 301     132.100  11.433  70.865  0.00  0.00     0.092 H 
ATOM     73  H   IDS d 301     131.942  12.544  69.312  0.00  0.00     0.104 H 
ATOM     74  H   IDS d 301     129.132  10.327  70.270  0.00  0.00     0.091 H 
ATOM     75  H   IDS d 301     128.324  12.525  68.801  0.00  0.00     0.133 H 
ATOM     76  H   IDS d 301     130.816  11.106  67.893  0.00  0.00     0.097 H 
ATOM     77  H   IDS d 301     131.383   9.062  69.054  0.00  0.00     0.210 HD
ATOM     78  O1S SGN d 302     132.560   5.765  70.778  0.00  0.00    -0.296 OA
ATOM     79  C2  SGN d 302     132.732   8.780  73.113  0.00  0.00     0.081 C 
ATOM     80  S2  SGN d 302     134.852  14.007  75.385  0.00  0.00     0.251 S 
ATOM     81  N   SGN d 302     132.302   7.639  72.285  0.00  0.00    -0.210 NA
ATOM     82  C4  SGN d 302     132.432  10.048  75.243  0.00  0.00     0.095 C 
ATOM     83  O6  SGN d 302     134.005  12.702  75.232  0.00  0.00    -0.254 OA
ATOM     84  C5  SGN d 302     132.174  11.331  74.388  0.00  0.00     0.091 C 
ATOM     85  O4S SGN d 302     134.237  14.790  76.421  0.00  0.00    -0.572 OA
ATOM     86  O2S SGN d 302     134.011   7.610  70.481  0.00  0.00    -0.296 OA
ATOM     87  S1  SGN d 302     133.369   6.752  71.428  0.00  0.00     0.156 S 
ATOM     88  O5S SGN d 302     136.161  13.563  75.750  0.00  0.00    -0.572 OA
ATOM     89  O6S SGN d 302     134.812  14.640  74.099  0.00  0.00    -0.572 OA
ATOM     90  C6  SGN d 302     132.608  12.645  75.061  0.00  0.00     0.067 C 
ATOM     91  O3  SGN d 302     132.169   7.634  75.136  0.00  0.00    -0.391 OA
ATOM     92  C3  SGN d 302     131.948   8.836  74.418  0.00  0.00     0.083 C 
ATOM     93  O4  SGN d 302     131.730   9.870  76.470  0.00  0.00    -0.348 OA
ATOM     94  O3S SGN d 302     134.275   6.191  72.389  0.00  0.00    -0.296 OA
ATOM     95  C1  SGN d 302     132.542  10.094  72.313  0.00  0.00     0.150 C 
ATOM     96  O5  SGN d 302     132.874  11.232  73.116  0.00  0.00    -0.349 OA
ATOM     97  H   SGN d 302     131.970   6.199  70.142  0.00  0.00     0.231 HD
ATOM     98  H   SGN d 302     133.766   8.657  73.360  0.00  0.00     0.076 H 
ATOM     99  H   SGN d 302     131.630   8.010  71.612  0.00  0.00     0.140 HD
ATOM    100  H   SGN d 302     133.471  10.144  75.479  0.00  0.00     0.091 H 
ATOM    101  H   SGN d 302     131.112  11.371  74.262  0.00  0.00     0.090 H 
ATOM    102  H   SGN d 302     133.352   7.958  69.860  0.00  0.00     0.231 HD
ATOM    103  H   SGN d 302     132.299  13.467  74.450  0.00  0.00     0.080 H 
ATOM    104  H   SGN d 302     132.151  12.693  76.027  0.00  0.00     0.080 H 
ATOM    105  H   SGN d 302     131.862   6.881  74.608  0.00  0.00     0.210 HD
ATOM    106  H   SGN d 302     130.902   8.943  74.223  0.00  0.00     0.089 H 
ATOM    107  H   SGN d 302     133.784   5.621  73.001  0.00  0.00     0.231 HD
ATOM    108  H   SGN d 302     133.213  10.032  71.482  0.00  0.00     0.131 H 
ATOM    109  C1  IDS d 305     138.199   8.929  83.784  0.00  0.00     0.161 C 
ATOM    110  O1S IDS d 305     140.437   8.273  79.875  0.00  0.00    -0.572 OA
ATOM    111  S   IDS d 305     140.119   9.435  80.656  0.00  0.00     0.252 S 
ATOM    112  C4  IDS d 305     140.148  10.292  85.630  0.00  0.00    -0.005 C 
ATOM    113  O61 IDS d 305     137.671  11.457  87.647  0.00  0.00    -0.646 OA
ATOM    114  O3  IDS d 305     141.779  10.151  83.858  0.00  0.00    -0.393 OA
ATOM    115  O62 IDS d 305     138.179   9.477  88.002  0.00  0.00    -0.646 OA
ATOM    116  O2S IDS d 305     138.873  10.023  80.265  0.00  0.00    -0.572 OA
ATOM    117  O2  IDS d 305     139.951   8.891  82.114  0.00  0.00    -0.244 OA
ATOM    118  O5  IDS d 305     138.055   9.077  85.206  0.00  0.00    -0.343 OA
ATOM    119  C5  IDS d 305     138.591  10.288  85.786  0.00  0.00     0.127 C 
ATOM    120  C3  IDS d 305     140.600   9.540  84.346  0.00  0.00     0.069 C 
ATOM    121  C2  IDS d 305     139.502   9.592  83.263  0.00  0.00     0.132 C 
ATOM    122  C6  IDS d 305     138.120  10.411  87.232  0.00  0.00     0.203 C 
ATOM    123  O3S IDS d 305     141.198  10.377  80.713  0.00  0.00    -0.572 OA
ATOM    124  H   IDS d 305     138.228   7.874  83.601  0.00  0.00     0.133 H 
ATOM    125  H   IDS d 305     140.488  11.306  85.577  0.00  0.00     0.041 H 
ATOM    126  H   IDS d 305     140.570   9.791  86.476  0.00  0.00     0.041 H 
ATOM    127  H   IDS d 305     142.467  10.118  84.540  0.00  0.00     0.210 HD
ATOM    128  H   IDS d 305     138.228  11.154  85.273  0.00  0.00     0.100 H 
ATOM    129  H   IDS d 305     140.782   8.514  84.586  0.00  0.00     0.087 H 
ATOM    130  H   IDS d 305     139.301  10.614  83.020  0.00  0.00     0.097 H 
ENDROOT
TORSDOF 39
ENDMDL
MODEL 69
REMARK VINA RESULT:      -4.9      4.579     14.032
REMARK  0 active torsions:
REMARK  status: ('A' for Active; 'I' for Inactive)
REMARK       I    between atoms: C2_2  and  N_68 
REMARK       I    between atoms: C1_3  and  O4_24 
REMARK       I    between atoms: O1S_5  and  S1_58 
REMARK       I    between atoms: O1_6  and  C1_31 
REMARK       I    between atoms: C4_7  and  O4_36 
REMARK       I    between atoms: C1_8  and  O4_37 
REMARK       I    between atoms: O3_9  and  C3_74 
REMARK       I    between atoms: C5_10  and  C6_32 
REMARK       I    between atoms: C2_11  and  N_20 
REMARK       I    between atoms: C6_12  and  C5_53 
REMARK       I    between atoms: S2_14  and  O6_33 
REMARK       I    between atoms: O3S_16  and  S1_51 
REMARK       I    between atoms: S_17  and  O2_44 
REMARK       I    between atoms: N_20  and  S1_58 
REMARK       I    between atoms: O4_24  and  C4_38 
REMARK       I    between atoms: S_25  and  O2_64 
REMARK       I    between atoms: O2S_27  and  S1_51 
REMARK       I    between atoms: C4_28  and  O4_73 
REMARK       I    between atoms: C3_30  and  O3_62 
REMARK       I    between atoms: O6_33  and  C6_63 
REMARK       I    between atoms: O3_35  and  C3_55 
REMARK       I    between atoms: O4_36  and  C1_84 
REMARK       I    between atoms: O4_37  and  C4_54 
REMARK       I    between atoms: C3_39  and  O3_48 
REMARK       I    between atoms: C5_42  and  C6_63 
REMARK       I    between atoms: O2_44  and  C2_61 
REMARK       I    between atoms: O6_45  and  C6_77 
REMARK       I    between atoms: O6_45  and  S2_82 
REMARK       I    between atoms: C5_49  and  C6_76 
REMARK       I    between atoms: S1_51  and  N_68 
REMARK       I    between atoms: S1_51  and  O1S_81 
REMARK       I    between atoms: O2S_52  and  S1_58 
REMARK       I    between atoms: C2_57  and  O2_64 
REMARK       I    between atoms: S1_58  and  O3S_75 
REMARK       I    between atoms: O3_66  and  C3_67 
REMARK       I    between atoms: O2_69  and  C2_79 
REMARK       I    between atoms: O2_69  and  S_72 
REMARK       I    between atoms: C5_70  and  C6_77 
REMARK       I    between atoms: C1_71  and  O4_73 
ROOT
ATOM      1  O2S IDS d 303     136.145   7.235  83.043  0.00  0.00    -0.572 OA
ATOM      2  C6  IDS d 303     134.367  14.092  81.500  0.00  0.00     0.206 C 
ATOM      3  O1S IDS d 303     134.442   7.262  81.368  0.00  0.00    -0.572 OA
ATOM      4  O3S IDS d 303     136.749   7.334  80.718  0.00  0.00    -0.572 OA
ATOM      5  O4  IDS d 303     135.489  11.843  83.304  0.00  0.00    -0.348 OA
ATOM      6  O61 IDS d 303     134.828  15.205  81.651  0.00  0.00    -0.646 OA
ATOM      7  C4  IDS d 303     136.224  12.432  82.220  0.00  0.00     0.103 C 
ATOM      8  C3  IDS d 303     137.083  11.255  81.676  0.00  0.00     0.094 C 
ATOM      9  O62 IDS d 303     133.175  13.944  81.667  0.00  0.00    -0.646 OA
ATOM     10  O3  IDS d 303     138.074  11.789  80.815  0.00  0.00    -0.390 OA
ATOM     11  C5  IDS d 303     135.260  12.915  81.109  0.00  0.00     0.152 C 
ATOM     12  O2  IDS d 303     135.746   9.245  81.812  0.00  0.00    -0.244 OA
ATOM     13  C1  IDS d 303     135.091  10.740  80.043  0.00  0.00     0.161 C 
ATOM     14  S   IDS d 303     135.773   7.676  81.721  0.00  0.00     0.252 S 
ATOM     15  C2  IDS d 303     136.268  10.190  80.891  0.00  0.00     0.134 C 
ATOM     16  O5  IDS d 303     134.434  11.815  80.704  0.00  0.00    -0.340 OA
ATOM     17  H   IDS d 303     136.800  13.279  82.529  0.00  0.00     0.092 H 
ATOM     18  H   IDS d 303     137.503  10.756  82.524  0.00  0.00     0.091 H 
ATOM     19  H   IDS d 303     137.646  12.229  80.064  0.00  0.00     0.210 HD
ATOM     20  H   IDS d 303     135.879  13.272  80.312  0.00  0.00     0.104 H 
ATOM     21  H   IDS d 303     134.354   9.975  79.913  0.00  0.00     0.133 H 
ATOM     22  H   IDS d 303     136.958   9.761  80.195  0.00  0.00     0.097 H 
ATOM     23  C2  SGN d 304     135.456  11.148  85.656  0.00  0.00     0.081 C 
ATOM     24  C1  SGN d 304     135.811  12.247  84.617  0.00  0.00     0.150 C 
ATOM     25  O3  SGN d 304     133.610   9.980  86.687  0.00  0.00    -0.391 OA
ATOM     26  O3S SGN d 304     137.628   8.524  86.622  0.00  0.00    -0.296 OA
ATOM     27  O5S SGN d 304     134.548  16.534  88.447  0.00  0.00    -0.572 OA
ATOM     28  O2S SGN d 304     138.238  10.818  86.291  0.00  0.00    -0.296 OA
ATOM     29  O4S SGN d 304     132.277  16.553  87.689  0.00  0.00    -0.572 OA
ATOM     30  O4  SGN d 304     131.967  11.955  86.493  0.00  0.00    -0.348 OA
ATOM     31  O6  SGN d 304     133.983  15.356  86.467  0.00  0.00    -0.254 OA
ATOM     32  S1  SGN d 304     137.689   9.623  85.704  0.00  0.00     0.156 S 
ATOM     33  C4  SGN d 304     133.317  12.336  86.180  0.00  0.00     0.095 C 
ATOM     34  O6S SGN d 304     133.966  17.750  86.482  0.00  0.00    -0.572 OA
ATOM     35  N   SGN d 304     136.131   9.902  85.256  0.00  0.00    -0.210 NA
ATOM     36  C5  SGN d 304     133.707  13.401  85.103  0.00  0.00     0.091 C 
ATOM     37  C3  SGN d 304     133.925  10.980  85.733  0.00  0.00     0.083 C 
ATOM     38  C6  SGN d 304     133.224  14.828  85.398  0.00  0.00     0.067 C 
ATOM     39  O5  SGN d 304     135.147  13.470  84.938  0.00  0.00    -0.349 OA
ATOM     40  O1S SGN d 304     138.356   9.275  84.481  0.00  0.00    -0.296 OA
ATOM     41  S2  SGN d 304     133.664  16.626  87.319  0.00  0.00     0.251 S 
ATOM     42  H   SGN d 304     135.791  11.420  86.635  0.00  0.00     0.076 H 
ATOM     43  H   SGN d 304     136.869  12.405  84.660  0.00  0.00     0.131 H 
ATOM     44  H   SGN d 304     133.990   9.134  86.405  0.00  0.00     0.210 HD
ATOM     45  H   SGN d 304     137.171   8.803  87.431  0.00  0.00     0.231 HD
ATOM     46  H   SGN d 304     137.764  11.022  87.113  0.00  0.00     0.231 HD
ATOM     47  H   SGN d 304     133.659  12.860  87.049  0.00  0.00     0.091 H 
ATOM     48  H   SGN d 304     136.109   9.871  84.236  0.00  0.00     0.140 HD
ATOM     49  H   SGN d 304     133.212  13.059  84.218  0.00  0.00     0.090 H 
ATOM     50  H   SGN d 304     133.529  10.691  84.782  0.00  0.00     0.089 H 
ATOM     51  H   SGN d 304     133.354  15.438  84.529  0.00  0.00     0.080 H 
ATOM     52  H   SGN d 304     132.187  14.812  85.662  0.00  0.00     0.080 H 
ATOM     53  H   SGN d 304     139.291   9.093  84.662  0.00  0.00     0.231 HD
ATOM     54  O62 IDS d 301     133.834   7.807  74.209  0.00  0.00    -0.646 OA
ATOM     55  O1  IDS d 301     134.701   8.611  69.329  0.00  0.00    -0.368 OA
ATOM     56  C4  IDS d 301     134.637  10.597  72.903  0.00  0.00     0.103 C 
ATOM     57  C5  IDS d 301     133.940   9.301  72.343  0.00  0.00     0.152 C 
ATOM     58  O61 IDS d 301     132.017   8.384  73.402  0.00  0.00    -0.646 OA
ATOM     59  S   IDS d 301     136.006  12.059  68.285  0.00  0.00     0.252 S 
ATOM     60  C3  IDS d 301     135.646  11.170  71.859  0.00  0.00     0.094 C 
ATOM     61  C1  IDS d 301     135.431   9.070  70.432  0.00  0.00     0.158 C 
ATOM     62  C6  IDS d 301     133.226   8.444  73.382  0.00  0.00     0.206 C 
ATOM     63  O5  IDS d 301     134.926   8.506  71.648  0.00  0.00    -0.340 OA
ATOM     64  O4  IDS d 301     134.980  11.301  74.108  0.00  0.00    -0.348 OA
ATOM     65  O3S IDS d 301     137.135  11.814  67.423  0.00  0.00    -0.572 OA
ATOM     66  O1S IDS d 301     134.768  11.614  67.703  0.00  0.00    -0.572 OA
ATOM     67  C2  IDS d 301     135.345  10.626  70.448  0.00  0.00     0.134 C 
ATOM     68  O3  IDS d 301     135.552  12.586  71.841  0.00  0.00    -0.390 OA
ATOM     69  O2  IDS d 301     136.287  11.163  69.539  0.00  0.00    -0.244 OA
ATOM     70  O2S IDS d 301     135.951  13.412  68.774  0.00  0.00    -0.572 OA
ATOM     71  H   IDS d 301     135.059   9.004  68.518  0.00  0.00     0.212 HD
ATOM     72  H   IDS d 301     133.654  10.521  73.318  0.00  0.00     0.092 H 
ATOM     73  H   IDS d 301     133.166   9.642  71.688  0.00  0.00     0.104 H 
ATOM     74  H   IDS d 301     136.634  10.868  72.140  0.00  0.00     0.091 H 
ATOM     75  H   IDS d 301     136.454   8.765  70.354  0.00  0.00     0.133 H 
ATOM     76  H   IDS d 301     134.355  10.913  70.165  0.00  0.00     0.097 H 
ATOM     77  H   IDS d 301     134.654  12.847  71.585  0.00  0.00     0.210 HD
ATOM     78  O1S SGN d 302     134.861  16.059  73.792  0.00  0.00    -0.296 OA
ATOM     79  C2  SGN d 302     134.288  12.900  75.855  0.00  0.00     0.081 C 
ATOM     80  S2  SGN d 302     131.234   8.160  78.135  0.00  0.00     0.251 S 
ATOM     81  N   SGN d 302     134.857  13.989  75.044  0.00  0.00    -0.210 NA
ATOM     82  C4  SGN d 302     134.625  11.308  77.750  0.00  0.00     0.095 C 
ATOM     83  O6  SGN d 302     132.376   9.200  77.893  0.00  0.00    -0.254 OA
ATOM     84  C5  SGN d 302     134.320  10.138  76.759  0.00  0.00     0.091 C 
ATOM     85  O4S SGN d 302     131.787   7.103  78.934  0.00  0.00    -0.572 OA
ATOM     86  O2S SGN d 302     132.905  14.730  73.694  0.00  0.00    -0.296 OA
ATOM     87  S1  SGN d 302     133.946  15.242  74.531  0.00  0.00     0.156 S 
ATOM     88  O5S SGN d 302     130.212   8.882  78.828  0.00  0.00    -0.572 OA
ATOM     89  O6S SGN d 302     130.828   7.730  76.829  0.00  0.00    -0.572 OA
ATOM     90  C6  SGN d 302     133.665   8.906  77.408  0.00  0.00     0.067 C 
ATOM     91  O3  SGN d 302     135.554  13.554  77.777  0.00  0.00    -0.391 OA
ATOM     92  C3  SGN d 302     135.266  12.451  76.934  0.00  0.00     0.083 C 
ATOM     93  O4  SGN d 302     135.579  11.116  78.790  0.00  0.00    -0.348 OA
ATOM     94  O3S SGN d 302     133.455  15.882  75.718  0.00  0.00    -0.296 OA
ATOM     95  C1  SGN d 302     133.921  11.711  74.931  0.00  0.00     0.150 C 
ATOM     96  O5  SGN d 302     133.439  10.600  75.697  0.00  0.00    -0.349 OA
ATOM     97  H   SGN d 302     135.159  15.579  73.003  0.00  0.00     0.231 HD
ATOM     98  H   SGN d 302     133.406  13.258  76.345  0.00  0.00     0.076 H 
ATOM     99  H   SGN d 302     135.242  13.553  74.206  0.00  0.00     0.140 HD
ATOM    100  H   SGN d 302     133.672  11.461  78.212  0.00  0.00     0.091 H 
ATOM    101  H   SGN d 302     135.276   9.834  76.387  0.00  0.00     0.090 H 
ATOM    102  H   SGN d 302     133.297  14.311  72.911  0.00  0.00     0.231 HD
ATOM    103  H   SGN d 302     133.592   8.127  76.678  0.00  0.00     0.080 H 
ATOM    104  H   SGN d 302     134.272   8.600  78.235  0.00  0.00     0.080 H 
ATOM    105  H   SGN d 302     135.955  14.264  77.254  0.00  0.00     0.210 HD
ATOM    106  H   SGN d 302     136.174  12.098  76.493  0.00  0.00     0.089 H 
ATOM    107  H   SGN d 302     134.203  16.207  76.242  0.00  0.00     0.231 HD
ATOM    108  H   SGN d 302     133.145  12.067  74.287  0.00  0.00     0.131 H 
ATOM    109  C1  IDS d 305     131.268  12.700  87.458  0.00  0.00     0.161 C 
ATOM    110  O1S IDS d 305     128.583  14.479  84.241  0.00  0.00    -0.572 OA
ATOM    111  S   IDS d 305     128.698  13.176  84.832  0.00  0.00     0.252 S 
ATOM    112  C4  IDS d 305     129.416  11.659  89.593  0.00  0.00    -0.005 C 
ATOM    113  O61 IDS d 305     131.796   9.600  90.879  0.00  0.00    -0.646 OA
ATOM    114  O3  IDS d 305     127.578  12.481  88.264  0.00  0.00    -0.393 OA
ATOM    115  O62 IDS d 305     131.970  11.573  91.499  0.00  0.00    -0.646 OA
ATOM    116  O2S IDS d 305     129.613  12.338  84.117  0.00  0.00    -0.572 OA
ATOM    117  O2  IDS d 305     129.306  13.442  86.249  0.00  0.00    -0.244 OA
ATOM    118  O5  IDS d 305     131.644  12.319  88.791  0.00  0.00    -0.343 OA
ATOM    119  C5  IDS d 305     130.905  11.225  89.382  0.00  0.00     0.127 C 
ATOM    120  C3  IDS d 305     128.956  12.679  88.512  0.00  0.00     0.069 C 
ATOM    121  C2  IDS d 305     129.751  12.491  87.203  0.00  0.00     0.132 C 
ATOM    122  C6  IDS d 305     131.599  10.776  90.665  0.00  0.00     0.203 C 
ATOM    123  O3S IDS d 305     127.425  12.558  85.063  0.00  0.00    -0.572 OA
ATOM    124  H   IDS d 305     131.512  13.739  87.371  0.00  0.00     0.133 H 
ATOM    125  H   IDS d 305     128.792  10.791  89.539  0.00  0.00     0.041 H 
ATOM    126  H   IDS d 305     129.338  12.129  90.550  0.00  0.00     0.041 H 
ATOM    127  H   IDS d 305     127.080  12.600  89.088  0.00  0.00     0.210 HD
ATOM    128  H   IDS d 305     130.889  10.376  88.732  0.00  0.00     0.100 H 
ATOM    129  H   IDS d 305     129.134  13.672  88.868  0.00  0.00     0.087 H 
ATOM    130  H   IDS d 305     129.592  11.497  86.839  0.00  0.00     0.097 H 
ENDROOT
TORSDOF 39
ENDMDL
MODEL 70
REMARK VINA RESULT:      -4.9      4.317     13.675
REMARK  0 active torsions:
REMARK  status: ('A' for Active; 'I' for Inactive)
REMARK       I    between atoms: C2_2  and  N_68 
REMARK       I    between atoms: C1_3  and  O4_24 
REMARK       I    between atoms: O1S_5  and  S1_58 
REMARK       I    between atoms: O1_6  and  C1_31 
REMARK       I    between atoms: C4_7  and  O4_36 
REMARK       I    between atoms: C1_8  and  O4_37 
REMARK       I    between atoms: O3_9  and  C3_74 
REMARK       I    between atoms: C5_10  and  C6_32 
REMARK       I    between atoms: C2_11  and  N_20 
REMARK       I    between atoms: C6_12  and  C5_53 
REMARK       I    between atoms: S2_14  and  O6_33 
REMARK       I    between atoms: O3S_16  and  S1_51 
REMARK       I    between atoms: S_17  and  O2_44 
REMARK       I    between atoms: N_20  and  S1_58 
REMARK       I    between atoms: O4_24  and  C4_38 
REMARK       I    between atoms: S_25  and  O2_64 
REMARK       I    between atoms: O2S_27  and  S1_51 
REMARK       I    between atoms: C4_28  and  O4_73 
REMARK       I    between atoms: C3_30  and  O3_62 
REMARK       I    between atoms: O6_33  and  C6_63 
REMARK       I    between atoms: O3_35  and  C3_55 
REMARK       I    between atoms: O4_36  and  C1_84 
REMARK       I    between atoms: O4_37  and  C4_54 
REMARK       I    between atoms: C3_39  and  O3_48 
REMARK       I    between atoms: C5_42  and  C6_63 
REMARK       I    between atoms: O2_44  and  C2_61 
REMARK       I    between atoms: O6_45  and  C6_77 
REMARK       I    between atoms: O6_45  and  S2_82 
REMARK       I    between atoms: C5_49  and  C6_76 
REMARK       I    between atoms: S1_51  and  N_68 
REMARK       I    between atoms: S1_51  and  O1S_81 
REMARK       I    between atoms: O2S_52  and  S1_58 
REMARK       I    between atoms: C2_57  and  O2_64 
REMARK       I    between atoms: S1_58  and  O3S_75 
REMARK       I    between atoms: O3_66  and  C3_67 
REMARK       I    between atoms: O2_69  and  C2_79 
REMARK       I    between atoms: O2_69  and  S_72 
REMARK       I    between atoms: C5_70  and  C6_77 
REMARK       I    between atoms: C1_71  and  O4_73 
ROOT
ATOM      1  O2S IDS d 303     133.696   4.631  82.509  0.00  0.00    -0.572 OA
ATOM      2  C6  IDS d 303     137.449  10.394  80.215  0.00  0.00     0.206 C 
ATOM      3  O1S IDS d 303     132.198   6.441  82.078  0.00  0.00    -0.572 OA
ATOM      4  O3S IDS d 303     132.762   4.919  80.313  0.00  0.00    -0.572 OA
ATOM      5  O4  IDS d 303     137.106   7.708  81.711  0.00  0.00    -0.348 OA
ATOM      6  O61 IDS d 303     138.549  10.640  79.763  0.00  0.00    -0.646 OA
ATOM      7  C4  IDS d 303     137.252   7.810  80.287  0.00  0.00     0.103 C 
ATOM      8  C3  IDS d 303     136.384   6.639  79.744  0.00  0.00     0.094 C 
ATOM      9  O62 IDS d 303     136.983  11.167  81.026  0.00  0.00    -0.646 OA
ATOM     10  O3  IDS d 303     136.702   6.448  78.376  0.00  0.00    -0.390 OA
ATOM     11  C5  IDS d 303     136.675   9.152  79.775  0.00  0.00     0.152 C 
ATOM     12  O2  IDS d 303     134.428   6.459  81.154  0.00  0.00    -0.244 OA
ATOM     13  C1  IDS d 303     134.387   8.344  79.658  0.00  0.00     0.161 C 
ATOM     14  S   IDS d 303     133.193   5.561  81.528  0.00  0.00     0.252 S 
ATOM     15  C2  IDS d 303     134.853   6.879  79.867  0.00  0.00     0.134 C 
ATOM     16  O5  IDS d 303     135.315   9.267  80.217  0.00  0.00    -0.340 OA
ATOM     17  H   IDS d 303     138.276   7.767  79.977  0.00  0.00     0.092 H 
ATOM     18  H   IDS d 303     136.608   5.780  80.341  0.00  0.00     0.091 H 
ATOM     19  H   IDS d 303     136.481   7.251  77.878  0.00  0.00     0.210 HD
ATOM     20  H   IDS d 303     136.753   9.123  78.709  0.00  0.00     0.104 H 
ATOM     21  H   IDS d 303     133.463   8.503  80.172  0.00  0.00     0.133 H 
ATOM     22  H   IDS d 303     134.412   6.313  79.073  0.00  0.00     0.097 H 
ATOM     23  C2  SGN d 304     137.811   6.634  83.801  0.00  0.00     0.081 C 
ATOM     24  C1  SGN d 304     138.230   7.306  82.464  0.00  0.00     0.150 C 
ATOM     25  O3  SGN d 304     136.783   7.061  85.945  0.00  0.00    -0.391 OA
ATOM     26  O3S SGN d 304     137.126   3.181  84.183  0.00  0.00    -0.296 OA
ATOM     27  O5S SGN d 304     143.062   9.599  84.918  0.00  0.00    -0.572 OA
ATOM     28  O2S SGN d 304     138.926   4.137  82.922  0.00  0.00    -0.296 OA
ATOM     29  O4S SGN d 304     141.834  11.565  85.519  0.00  0.00    -0.572 OA
ATOM     30  O4  SGN d 304     137.578   9.506  86.085  0.00  0.00    -0.348 OA
ATOM     31  O6  SGN d 304     140.904   9.940  83.993  0.00  0.00    -0.254 OA
ATOM     32  S1  SGN d 304     137.499   4.041  83.099  0.00  0.00     0.156 S 
ATOM     33  C4  SGN d 304     138.203   8.791  85.007  0.00  0.00     0.095 C 
ATOM     34  O6S SGN d 304     142.733  11.327  83.311  0.00  0.00    -0.572 OA
ATOM     35  N   SGN d 304     136.898   5.521  83.490  0.00  0.00    -0.210 NA
ATOM     36  C5  SGN d 304     138.588   9.428  83.631  0.00  0.00     0.091 C 
ATOM     37  C3  SGN d 304     137.156   7.680  84.727  0.00  0.00     0.083 C 
ATOM     38  C6  SGN d 304     139.654  10.530  83.703  0.00  0.00     0.067 C 
ATOM     39  O5  SGN d 304     139.087   8.421  82.713  0.00  0.00    -0.349 OA
ATOM     40  O1S SGN d 304     136.832   3.696  81.875  0.00  0.00    -0.296 OA
ATOM     41  S2  SGN d 304     142.207  10.661  84.466  0.00  0.00     0.251 S 
ATOM     42  H   SGN d 304     138.662   6.245  84.320  0.00  0.00     0.076 H 
ATOM     43  H   SGN d 304     138.764   6.578  81.889  0.00  0.00     0.131 H 
ATOM     44  H   SGN d 304     136.128   6.367  85.768  0.00  0.00     0.210 HD
ATOM     45  H   SGN d 304     137.598   3.450  84.986  0.00  0.00     0.231 HD
ATOM     46  H   SGN d 304     139.341   4.371  83.767  0.00  0.00     0.231 HD
ATOM     47  H   SGN d 304     139.189   8.575  85.361  0.00  0.00     0.091 H 
ATOM     48  H   SGN d 304     136.325   5.822  82.702  0.00  0.00     0.140 HD
ATOM     49  H   SGN d 304     137.675   9.871  83.292  0.00  0.00     0.090 H 
ATOM     50  H   SGN d 304     136.285   8.097  84.267  0.00  0.00     0.089 H 
ATOM     51  H   SGN d 304     139.707  11.041  82.765  0.00  0.00     0.080 H 
ATOM     52  H   SGN d 304     139.398  11.232  84.469  0.00  0.00     0.080 H 
ATOM     53  H   SGN d 304     137.137   2.825  81.575  0.00  0.00     0.231 HD
ATOM     54  O62 IDS d 301     128.592   9.345  76.557  0.00  0.00    -0.646 OA
ATOM     55  O1  IDS d 301     126.938  10.598  71.984  0.00  0.00    -0.368 OA
ATOM     56  C4  IDS d 301     130.324  10.729  74.273  0.00  0.00     0.103 C 
ATOM     57  C5  IDS d 301     128.780  10.679  74.580  0.00  0.00     0.152 C 
ATOM     58  O61 IDS d 301     127.931  11.301  76.713  0.00  0.00    -0.646 OA
ATOM     59  S   IDS d 301     129.497  11.901  69.448  0.00  0.00     0.252 S 
ATOM     60  C3  IDS d 301     130.581  10.601  72.738  0.00  0.00     0.094 C 
ATOM     61  C1  IDS d 301     128.143   9.978  72.337  0.00  0.00     0.158 C 
ATOM     62  C6  IDS d 301     128.413  10.421  76.036  0.00  0.00     0.206 C 
ATOM     63  O5  IDS d 301     128.170   9.677  73.737  0.00  0.00    -0.340 OA
ATOM     64  O4  IDS d 301     131.627  10.516  74.840  0.00  0.00    -0.348 OA
ATOM     65  O3S IDS d 301     129.271  11.157  68.234  0.00  0.00    -0.572 OA
ATOM     66  O1S IDS d 301     128.391  12.760  69.775  0.00  0.00    -0.572 OA
ATOM     67  C2  IDS d 301     129.307  10.935  71.938  0.00  0.00     0.134 C 
ATOM     68  O3  IDS d 301     131.617  11.494  72.358  0.00  0.00    -0.390 OA
ATOM     69  O2  IDS d 301     129.582  10.798  70.556  0.00  0.00    -0.244 OA
ATOM     70  O2S IDS d 301     130.768  12.577  69.467  0.00  0.00    -0.572 OA
ATOM     71  H   IDS d 301     126.940  10.793  71.034  0.00  0.00     0.212 HD
ATOM     72  H   IDS d 301     130.123  11.310  75.148  0.00  0.00     0.092 H 
ATOM     73  H   IDS d 301     128.406  11.659  74.371  0.00  0.00     0.104 H 
ATOM     74  H   IDS d 301     130.865   9.591  72.525  0.00  0.00     0.091 H 
ATOM     75  H   IDS d 301     128.248   9.048  71.820  0.00  0.00     0.133 H 
ATOM     76  H   IDS d 301     129.009  11.939  72.156  0.00  0.00     0.097 H 
ATOM     77  H   IDS d 301     131.348  12.404  72.556  0.00  0.00     0.210 HD
ATOM     78  O1S SGN d 302     135.044  13.442  73.254  0.00  0.00    -0.296 OA
ATOM     79  C2  SGN d 302     133.517  11.444  76.126  0.00  0.00     0.081 C 
ATOM     80  S2  SGN d 302     129.980  10.362  80.953  0.00  0.00     0.251 S 
ATOM     81  N   SGN d 302     134.128  11.880  74.859  0.00  0.00    -0.210 NA
ATOM     82  C4  SGN d 302     133.432   9.708  77.919  0.00  0.00     0.095 C 
ATOM     83  O6  SGN d 302     131.067  10.163  79.848  0.00  0.00    -0.254 OA
ATOM     84  C5  SGN d 302     131.901   9.560  77.638  0.00  0.00     0.091 C 
ATOM     85  O4S SGN d 302     129.802   9.093  81.604  0.00  0.00    -0.572 OA
ATOM     86  O2S SGN d 302     133.255  14.194  74.608  0.00  0.00    -0.296 OA
ATOM     87  S1  SGN d 302     134.475  13.448  74.568  0.00  0.00     0.156 S 
ATOM     88  O5S SGN d 302     130.520  11.350  81.836  0.00  0.00    -0.572 OA
ATOM     89  O6S SGN d 302     128.809  10.811  80.259  0.00  0.00    -0.572 OA
ATOM     90  C6  SGN d 302     131.063   9.156  78.864  0.00  0.00     0.067 C 
ATOM     91  O3  SGN d 302     135.503  10.287  76.786  0.00  0.00    -0.391 OA
ATOM     92  C3  SGN d 302     134.108  10.121  76.594  0.00  0.00     0.083 C 
ATOM     93  O4  SGN d 302     134.190   8.562  78.293  0.00  0.00    -0.348 OA
ATOM     94  O3S SGN d 302     135.410  13.838  75.583  0.00  0.00    -0.296 OA
ATOM     95  C1  SGN d 302     131.984  11.313  75.937  0.00  0.00     0.150 C 
ATOM     96  O5  SGN d 302     131.365  10.812  77.127  0.00  0.00    -0.349 OA
ATOM     97  H   SGN d 302     134.370  13.172  72.611  0.00  0.00     0.231 HD
ATOM     98  H   SGN d 302     133.723  12.178  76.879  0.00  0.00     0.076 H 
ATOM     99  H   SGN d 302     133.493  11.584  74.116  0.00  0.00     0.140 HD
ATOM    100  H   SGN d 302     133.441  10.384  78.748  0.00  0.00     0.091 H 
ATOM    101  H   SGN d 302     131.826   8.768  76.923  0.00  0.00     0.090 H 
ATOM    102  H   SGN d 302     132.665  13.887  73.901  0.00  0.00     0.231 HD
ATOM    103  H   SGN d 302     130.055   8.980  78.552  0.00  0.00     0.080 H 
ATOM    104  H   SGN d 302     131.493   8.272  79.287  0.00  0.00     0.080 H 
ATOM    105  H   SGN d 302     135.916  10.546  75.948  0.00  0.00     0.210 HD
ATOM    106  H   SGN d 302     133.941   9.357  75.864  0.00  0.00     0.089 H 
ATOM    107  H   SGN d 302     136.213  13.300  75.506  0.00  0.00     0.231 HD
ATOM    108  H   SGN d 302     131.627  12.301  75.733  0.00  0.00     0.131 H 
ATOM    109  C1  IDS d 305     138.400  10.182  87.005  0.00  0.00     0.161 C 
ATOM    110  O1S IDS d 305     137.056  14.207  85.356  0.00  0.00    -0.572 OA
ATOM    111  S   IDS d 305     136.418  13.193  86.147  0.00  0.00     0.252 S 
ATOM    112  C4  IDS d 305     138.052  10.358  89.991  0.00  0.00    -0.005 C 
ATOM    113  O61 IDS d 305     138.045   6.977  90.351  0.00  0.00    -0.646 OA
ATOM    114  O3  IDS d 305     137.293  12.626  89.673  0.00  0.00    -0.393 OA
ATOM    115  O62 IDS d 305     139.943   7.797  90.171  0.00  0.00    -0.646 OA
ATOM    116  O2S IDS d 305     135.739  12.226  85.339  0.00  0.00    -0.572 OA
ATOM    117  O2  IDS d 305     137.598  12.462  86.871  0.00  0.00    -0.244 OA
ATOM    118  O5  IDS d 305     138.955   9.280  87.976  0.00  0.00    -0.343 OA
ATOM    119  C5  IDS d 305     138.161   9.037  89.159  0.00  0.00     0.127 C 
ATOM    120  C3  IDS d 305     138.087  11.617  89.078  0.00  0.00     0.069 C 
ATOM    121  C2  IDS d 305     137.543  11.292  87.671  0.00  0.00     0.132 C 
ATOM    122  C6  IDS d 305     138.755   7.868  89.940  0.00  0.00     0.203 C 
ATOM    123  O3S IDS d 305     135.598  13.737  87.189  0.00  0.00    -0.572 OA
ATOM    124  H   IDS d 305     139.236  10.621  86.501  0.00  0.00     0.133 H 
ATOM    125  H   IDS d 305     137.130  10.349  90.535  0.00  0.00     0.041 H 
ATOM    126  H   IDS d 305     138.889  10.404  90.655  0.00  0.00     0.041 H 
ATOM    127  H   IDS d 305     137.637  12.828  90.557  0.00  0.00     0.210 HD
ATOM    128  H   IDS d 305     137.162   8.753  88.901  0.00  0.00     0.100 H 
ATOM    129  H   IDS d 305     139.098  11.948  88.975  0.00  0.00     0.087 H 
ATOM    130  H   IDS d 305     136.533  10.948  87.759  0.00  0.00     0.097 H 
ENDROOT
TORSDOF 39
ENDMDL
MODEL 71
REMARK VINA RESULT:      -4.9      4.889     13.959
REMARK  0 active torsions:
REMARK  status: ('A' for Active; 'I' for Inactive)
REMARK       I    between atoms: C2_2  and  N_68 
REMARK       I    between atoms: C1_3  and  O4_24 
REMARK       I    between atoms: O1S_5  and  S1_58 
REMARK       I    between atoms: O1_6  and  C1_31 
REMARK       I    between atoms: C4_7  and  O4_36 
REMARK       I    between atoms: C1_8  and  O4_37 
REMARK       I    between atoms: O3_9  and  C3_74 
REMARK       I    between atoms: C5_10  and  C6_32 
REMARK       I    between atoms: C2_11  and  N_20 
REMARK       I    between atoms: C6_12  and  C5_53 
REMARK       I    between atoms: S2_14  and  O6_33 
REMARK       I    between atoms: O3S_16  and  S1_51 
REMARK       I    between atoms: S_17  and  O2_44 
REMARK       I    between atoms: N_20  and  S1_58 
REMARK       I    between atoms: O4_24  and  C4_38 
REMARK       I    between atoms: S_25  and  O2_64 
REMARK       I    between atoms: O2S_27  and  S1_51 
REMARK       I    between atoms: C4_28  and  O4_73 
REMARK       I    between atoms: C3_30  and  O3_62 
REMARK       I    between atoms: O6_33  and  C6_63 
REMARK       I    between atoms: O3_35  and  C3_55 
REMARK       I    between atoms: O4_36  and  C1_84 
REMARK       I    between atoms: O4_37  and  C4_54 
REMARK       I    between atoms: C3_39  and  O3_48 
REMARK       I    between atoms: C5_42  and  C6_63 
REMARK       I    between atoms: O2_44  and  C2_61 
REMARK       I    between atoms: O6_45  and  C6_77 
REMARK       I    between atoms: O6_45  and  S2_82 
REMARK       I    between atoms: C5_49  and  C6_76 
REMARK       I    between atoms: S1_51  and  N_68 
REMARK       I    between atoms: S1_51  and  O1S_81 
REMARK       I    between atoms: O2S_52  and  S1_58 
REMARK       I    between atoms: C2_57  and  O2_64 
REMARK       I    between atoms: S1_58  and  O3S_75 
REMARK       I    between atoms: O3_66  and  C3_67 
REMARK       I    between atoms: O2_69  and  C2_79 
REMARK       I    between atoms: O2_69  and  S_72 
REMARK       I    between atoms: C5_70  and  C6_77 
REMARK       I    between atoms: C1_71  and  O4_73 
ROOT
ATOM      1  O2S IDS d 303     137.870  15.840  82.179  0.00  0.00    -0.572 OA
ATOM      2  C6  IDS d 303     131.741  11.968  82.169  0.00  0.00     0.206 C 
ATOM      3  O1S IDS d 303     137.705  14.610  80.138  0.00  0.00    -0.572 OA
ATOM      4  O3S IDS d 303     136.745  16.803  80.284  0.00  0.00    -0.572 OA
ATOM      5  O4  IDS d 303     134.083  13.475  83.517  0.00  0.00    -0.348 OA
ATOM      6  O61 IDS d 303     130.684  11.941  82.765  0.00  0.00    -0.646 OA
ATOM      7  C4  IDS d 303     132.950  14.132  82.929  0.00  0.00     0.103 C 
ATOM      8  C3  IDS d 303     133.543  15.457  82.369  0.00  0.00     0.094 C 
ATOM      9  O62 IDS d 303     132.273  10.909  81.908  0.00  0.00    -0.646 OA
ATOM     10  O3  IDS d 303     132.469  16.323  82.047  0.00  0.00    -0.390 OA
ATOM     11  C5  IDS d 303     132.382  13.293  81.758  0.00  0.00     0.152 C 
ATOM     12  O2  IDS d 303     135.749  14.967  81.507  0.00  0.00    -0.244 OA
ATOM     13  C1  IDS d 303     133.954  14.158  80.122  0.00  0.00     0.161 C 
ATOM     14  S   IDS d 303     137.093  15.595  80.989  0.00  0.00     0.252 S 
ATOM     15  C2  IDS d 303     134.422  15.267  81.101  0.00  0.00     0.134 C 
ATOM     16  O5  IDS d 303     133.437  13.033  80.823  0.00  0.00    -0.340 OA
ATOM     17  H   IDS d 303     132.153  14.279  83.629  0.00  0.00     0.092 H 
ATOM     18  H   IDS d 303     134.182  15.859  83.127  0.00  0.00     0.091 H 
ATOM     19  H   IDS d 303     131.922  15.916  81.358  0.00  0.00     0.210 HD
ATOM     20  H   IDS d 303     131.594  13.877  81.329  0.00  0.00     0.104 H 
ATOM     21  H   IDS d 303     134.790  13.800  79.559  0.00  0.00     0.133 H 
ATOM     22  H   IDS d 303     134.346  16.188  80.563  0.00  0.00     0.097 H 
ATOM     23  C2  SGN d 304     135.584  13.248  85.444  0.00  0.00     0.081 C 
ATOM     24  C1  SGN d 304     134.124  13.362  84.923  0.00  0.00     0.150 C 
ATOM     25  O3  SGN d 304     137.523  11.809  85.475  0.00  0.00    -0.391 OA
ATOM     26  O3S SGN d 304     137.646  16.010  86.252  0.00  0.00    -0.296 OA
ATOM     27  O5S SGN d 304     132.125   9.873  89.221  0.00  0.00    -0.572 OA
ATOM     28  O2S SGN d 304     135.323  15.772  86.791  0.00  0.00    -0.296 OA
ATOM     29  O4S SGN d 304     132.469   7.952  87.833  0.00  0.00    -0.572 OA
ATOM     30  O4  SGN d 304     136.173   9.619  85.349  0.00  0.00    -0.348 OA
ATOM     31  O6  SGN d 304     132.587  10.184  86.915  0.00  0.00    -0.254 OA
ATOM     32  S1  SGN d 304     136.316  15.833  85.749  0.00  0.00     0.156 S 
ATOM     33  C4  SGN d 304     135.337  10.763  85.592  0.00  0.00     0.095 C 
ATOM     34  O6S SGN d 304     130.482   9.272  87.602  0.00  0.00    -0.572 OA
ATOM     35  N   SGN d 304     136.344  14.403  84.938  0.00  0.00    -0.210 NA
ATOM     36  C5  SGN d 304     133.884  10.928  85.037  0.00  0.00     0.091 C 
ATOM     37  C3  SGN d 304     136.195  11.907  84.991  0.00  0.00     0.083 C 
ATOM     38  C6  SGN d 304     132.870   9.900  85.560  0.00  0.00     0.067 C 
ATOM     39  O5  SGN d 304     133.352  12.240  85.355  0.00  0.00    -0.349 OA
ATOM     40  O1S SGN d 304     135.977  16.806  84.748  0.00  0.00    -0.296 OA
ATOM     41  S2  SGN d 304     131.873   9.255  87.948  0.00  0.00     0.251 S 
ATOM     42  H   SGN d 304     135.613  13.261  86.514  0.00  0.00     0.076 H 
ATOM     43  H   SGN d 304     133.701  14.254  85.336  0.00  0.00     0.131 H 
ATOM     44  H   SGN d 304     138.059  12.524  85.097  0.00  0.00     0.210 HD
ATOM     45  H   SGN d 304     137.831  15.334  86.922  0.00  0.00     0.231 HD
ATOM     46  H   SGN d 304     135.584  15.106  87.447  0.00  0.00     0.231 HD
ATOM     47  H   SGN d 304     135.101  10.708  86.635  0.00  0.00     0.091 H 
ATOM     48  H   SGN d 304     135.997  14.593  83.997  0.00  0.00     0.140 HD
ATOM     49  H   SGN d 304     133.996  10.778  83.984  0.00  0.00     0.090 H 
ATOM     50  H   SGN d 304     136.208  11.840  83.923  0.00  0.00     0.089 H 
ATOM     51  H   SGN d 304     131.970   9.958  84.985  0.00  0.00     0.080 H 
ATOM     52  H   SGN d 304     133.277   8.914  85.473  0.00  0.00     0.080 H 
ATOM     53  H   SGN d 304     135.940  17.687  85.152  0.00  0.00     0.231 HD
ATOM     54  O62 IDS d 301     134.725  15.244  73.608  0.00  0.00    -0.646 OA
ATOM     55  O1  IDS d 301     131.949  16.678  69.677  0.00  0.00    -0.368 OA
ATOM     56  C4  IDS d 301     131.546  15.185  73.463  0.00  0.00     0.103 C 
ATOM     57  C5  IDS d 301     132.680  15.145  72.371  0.00  0.00     0.152 C 
ATOM     58  O61 IDS d 301     134.430  13.537  72.475  0.00  0.00    -0.646 OA
ATOM     59  S   IDS d 301     128.144  16.778  70.113  0.00  0.00     0.252 S 
ATOM     60  C3  IDS d 301     130.364  16.089  72.991  0.00  0.00     0.094 C 
ATOM     61  C1  IDS d 301     131.748  16.955  71.035  0.00  0.00     0.158 C 
ATOM     62  C6  IDS d 301     134.026  14.615  72.849  0.00  0.00     0.206 C 
ATOM     63  O5  IDS d 301     132.843  16.471  71.821  0.00  0.00    -0.340 OA
ATOM     64  O4  IDS d 301     131.276  14.999  74.862  0.00  0.00    -0.348 OA
ATOM     65  O3S IDS d 301     127.717  18.060  69.611  0.00  0.00    -0.572 OA
ATOM     66  O1S IDS d 301     128.670  15.933  69.074  0.00  0.00    -0.572 OA
ATOM     67  C2  IDS d 301     130.404  16.293  71.464  0.00  0.00     0.134 C 
ATOM     68  O3  IDS d 301     129.133  15.479  73.347  0.00  0.00    -0.390 OA
ATOM     69  O2  IDS d 301     129.323  17.124  71.083  0.00  0.00    -0.244 OA
ATOM     70  O2S IDS d 301     127.145  16.128  70.922  0.00  0.00    -0.572 OA
ATOM     71  H   IDS d 301     131.197  17.013  69.164  0.00  0.00     0.212 HD
ATOM     72  H   IDS d 301     132.046  14.241  73.513  0.00  0.00     0.092 H 
ATOM     73  H   IDS d 301     132.353  14.443  71.633  0.00  0.00     0.104 H 
ATOM     74  H   IDS d 301     130.456  17.044  73.468  0.00  0.00     0.091 H 
ATOM     75  H   IDS d 301     131.698  18.011  71.195  0.00  0.00     0.133 H 
ATOM     76  H   IDS d 301     130.325  15.342  70.981  0.00  0.00     0.097 H 
ATOM     77  H   IDS d 301     129.061  14.616  72.910  0.00  0.00     0.210 HD
ATOM     78  O1S SGN d 302     126.988  13.177  75.887  0.00  0.00    -0.296 OA
ATOM     79  C2  SGN d 302     130.712  13.436  76.686  0.00  0.00     0.081 C 
ATOM     80  S2  SGN d 302     136.615  11.992  76.462  0.00  0.00     0.251 S 
ATOM     81  N   SGN d 302     129.285  13.703  76.435  0.00  0.00    -0.210 NA
ATOM     82  C4  SGN d 302     132.729  13.968  78.058  0.00  0.00     0.095 C 
ATOM     83  O6  SGN d 302     135.283  12.687  76.892  0.00  0.00    -0.254 OA
ATOM     84  C5  SGN d 302     133.479  14.321  76.733  0.00  0.00     0.091 C 
ATOM     85  O4S SGN d 302     137.690  12.734  77.059  0.00  0.00    -0.572 OA
ATOM     86  O2S SGN d 302     128.680  11.918  74.814  0.00  0.00    -0.296 OA
ATOM     87  S1  SGN d 302     128.245  12.509  76.042  0.00  0.00     0.156 S 
ATOM     88  O5S SGN d 302     136.526  10.661  76.978  0.00  0.00    -0.572 OA
ATOM     89  O6S SGN d 302     136.623  12.038  75.029  0.00  0.00    -0.572 OA
ATOM     90  C6  SGN d 302     134.996  14.060  76.769  0.00  0.00     0.067 C 
ATOM     91  O3  SGN d 302     130.492  13.967  79.008  0.00  0.00    -0.391 OA
ATOM     92  C3  SGN d 302     131.233  14.281  77.841  0.00  0.00     0.083 C 
ATOM     93  O4  SGN d 302     133.016  14.704  79.243  0.00  0.00    -0.348 OA
ATOM     94  O3S SGN d 302     128.262  11.594  77.147  0.00  0.00    -0.296 OA
ATOM     95  C1  SGN d 302     131.521  13.727  75.396  0.00  0.00     0.150 C 
ATOM     96  O5  SGN d 302     132.925  13.555  75.626  0.00  0.00    -0.349 OA
ATOM     97  H   SGN d 302     127.034  13.780  75.128  0.00  0.00     0.231 HD
ATOM     98  H   SGN d 302     130.828  12.407  76.957  0.00  0.00     0.076 H 
ATOM     99  H   SGN d 302     129.248  14.378  75.670  0.00  0.00     0.140 HD
ATOM    100  H   SGN d 302     133.037  12.957  78.225  0.00  0.00     0.091 H 
ATOM    101  H   SGN d 302     133.338  15.373  76.606  0.00  0.00     0.090 H 
ATOM    102  H   SGN d 302     128.648  12.581  74.107  0.00  0.00     0.231 HD
ATOM    103  H   SGN d 302     135.433  14.426  75.863  0.00  0.00     0.080 H 
ATOM    104  H   SGN d 302     135.402  14.565  77.621  0.00  0.00     0.080 H 
ATOM    105  H   SGN d 302     129.555  14.168  78.859  0.00  0.00     0.210 HD
ATOM    106  H   SGN d 302     131.123  15.323  77.623  0.00  0.00     0.089 H 
ATOM    107  H   SGN d 302     127.958  12.050  77.948  0.00  0.00     0.231 HD
ATOM    108  H   SGN d 302     131.186  13.015  74.671  0.00  0.00     0.131 H 
ATOM    109  C1  IDS d 305     136.072   8.519  86.218  0.00  0.00     0.161 C 
ATOM    110  O1S IDS d 305     134.062   6.044  82.970  0.00  0.00    -0.572 OA
ATOM    111  S   IDS d 305     135.402   6.520  83.172  0.00  0.00     0.252 S 
ATOM    112  C4  IDS d 305     138.314   6.814  87.284  0.00  0.00    -0.005 C 
ATOM    113  O61 IDS d 305     139.938   9.492  88.608  0.00  0.00    -0.646 OA
ATOM    114  O3  IDS d 305     137.614   5.097  85.741  0.00  0.00    -0.393 OA
ATOM    115  O62 IDS d 305     138.377   8.793  89.783  0.00  0.00    -0.646 OA
ATOM    116  O2S IDS d 305     135.616   7.802  82.570  0.00  0.00    -0.572 OA
ATOM    117  O2  IDS d 305     135.523   6.697  84.722  0.00  0.00    -0.244 OA
ATOM    118  O5  IDS d 305     136.801   8.744  87.436  0.00  0.00    -0.343 OA
ATOM    119  C5  IDS d 305     138.196   8.368  87.433  0.00  0.00     0.127 C 
ATOM    120  C3  IDS d 305     137.140   6.226  86.451  0.00  0.00     0.069 C 
ATOM    121  C2  IDS d 305     136.593   7.271  85.456  0.00  0.00     0.132 C 
ATOM    122  C6  IDS d 305     138.874   8.916  88.685  0.00  0.00     0.203 C 
ATOM    123  O3S IDS d 305     136.395   5.551  82.811  0.00  0.00    -0.572 OA
ATOM    124  H   IDS d 305     135.053   8.370  86.510  0.00  0.00     0.133 H 
ATOM    125  H   IDS d 305     139.237   6.582  86.796  0.00  0.00     0.041 H 
ATOM    126  H   IDS d 305     138.278   6.381  88.262  0.00  0.00     0.041 H 
ATOM    127  H   IDS d 305     137.957   4.442  86.368  0.00  0.00     0.210 HD
ATOM    128  H   IDS d 305     138.709   8.796  86.597  0.00  0.00     0.100 H 
ATOM    129  H   IDS d 305     136.345   5.947  87.110  0.00  0.00     0.087 H 
ATOM    130  H   IDS d 305     137.380   7.568  84.795  0.00  0.00     0.097 H 
ENDROOT
TORSDOF 39
ENDMDL
MODEL 72
REMARK VINA RESULT:      -4.8      3.148     13.808
REMARK  0 active torsions:
REMARK  status: ('A' for Active; 'I' for Inactive)
REMARK       I    between atoms: C2_2  and  N_68 
REMARK       I    between atoms: C1_3  and  O4_24 
REMARK       I    between atoms: O1S_5  and  S1_58 
REMARK       I    between atoms: O1_6  and  C1_31 
REMARK       I    between atoms: C4_7  and  O4_36 
REMARK       I    between atoms: C1_8  and  O4_37 
REMARK       I    between atoms: O3_9  and  C3_74 
REMARK       I    between atoms: C5_10  and  C6_32 
REMARK       I    between atoms: C2_11  and  N_20 
REMARK       I    between atoms: C6_12  and  C5_53 
REMARK       I    between atoms: S2_14  and  O6_33 
REMARK       I    between atoms: O3S_16  and  S1_51 
REMARK       I    between atoms: S_17  and  O2_44 
REMARK       I    between atoms: N_20  and  S1_58 
REMARK       I    between atoms: O4_24  and  C4_38 
REMARK       I    between atoms: S_25  and  O2_64 
REMARK       I    between atoms: O2S_27  and  S1_51 
REMARK       I    between atoms: C4_28  and  O4_73 
REMARK       I    between atoms: C3_30  and  O3_62 
REMARK       I    between atoms: O6_33  and  C6_63 
REMARK       I    between atoms: O3_35  and  C3_55 
REMARK       I    between atoms: O4_36  and  C1_84 
REMARK       I    between atoms: O4_37  and  C4_54 
REMARK       I    between atoms: C3_39  and  O3_48 
REMARK       I    between atoms: C5_42  and  C6_63 
REMARK       I    between atoms: O2_44  and  C2_61 
REMARK       I    between atoms: O6_45  and  C6_77 
REMARK       I    between atoms: O6_45  and  S2_82 
REMARK       I    between atoms: C5_49  and  C6_76 
REMARK       I    between atoms: S1_51  and  N_68 
REMARK       I    between atoms: S1_51  and  O1S_81 
REMARK       I    between atoms: O2S_52  and  S1_58 
REMARK       I    between atoms: C2_57  and  O2_64 
REMARK       I    between atoms: S1_58  and  O3S_75 
REMARK       I    between atoms: O3_66  and  C3_67 
REMARK       I    between atoms: O2_69  and  C2_79 
REMARK       I    between atoms: O2_69  and  S_72 
REMARK       I    between atoms: C5_70  and  C6_77 
REMARK       I    between atoms: C1_71  and  O4_73 
ROOT
ATOM      1  O2S IDS d 303     129.648  12.503  79.627  0.00  0.00    -0.572 OA
ATOM      2  C6  IDS d 303     135.146   7.876  78.667  0.00  0.00     0.206 C 
ATOM      3  O1S IDS d 303     131.105  13.334  77.927  0.00  0.00    -0.572 OA
ATOM      4  O3S IDS d 303     129.298  11.874  77.333  0.00  0.00    -0.572 OA
ATOM      5  O4  IDS d 303     132.859   9.188  80.285  0.00  0.00    -0.348 OA
ATOM      6  O61 IDS d 303     135.416   6.721  78.926  0.00  0.00    -0.646 OA
ATOM      7  C4  IDS d 303     132.645   8.192  79.273  0.00  0.00     0.103 C 
ATOM      8  C3  IDS d 303     131.281   8.595  78.644  0.00  0.00     0.094 C 
ATOM      9  O62 IDS d 303     136.021   8.706  78.795  0.00  0.00    -0.646 OA
ATOM     10  O3  IDS d 303     130.819   7.512  77.856  0.00  0.00    -0.390 OA
ATOM     11  C5  IDS d 303     133.749   8.271  78.190  0.00  0.00     0.152 C 
ATOM     12  O2  IDS d 303     131.189  11.010  78.573  0.00  0.00    -0.244 OA
ATOM     13  C1  IDS d 303     132.655  10.036  76.931  0.00  0.00     0.161 C 
ATOM     14  S   IDS d 303     130.254  12.252  78.342  0.00  0.00     0.252 S 
ATOM     15  C2  IDS d 303     131.349   9.864  77.751  0.00  0.00     0.134 C 
ATOM     16  O5  IDS d 303     133.791   9.607  77.672  0.00  0.00    -0.340 OA
ATOM     17  H   IDS d 303     132.661   7.198  79.669  0.00  0.00     0.092 H 
ATOM     18  H   IDS d 303     130.619   8.824  79.453  0.00  0.00     0.091 H 
ATOM     19  H   IDS d 303     131.450   7.343  77.138  0.00  0.00     0.210 HD
ATOM     20  H   IDS d 303     133.483   7.554  77.442  0.00  0.00     0.104 H 
ATOM     21  H   IDS d 303     132.811  11.073  76.718  0.00  0.00     0.133 H 
ATOM     22  H   IDS d 303     130.563   9.748  77.033  0.00  0.00     0.097 H 
ATOM     23  C2  SGN d 304     132.397   9.968  82.565  0.00  0.00     0.081 C 
ATOM     24  C1  SGN d 304     132.787   8.785  81.636  0.00  0.00     0.150 C 
ATOM     25  O3  SGN d 304     133.177  12.076  83.449  0.00  0.00    -0.391 OA
ATOM     26  O3S SGN d 304     129.069  10.899  83.337  0.00  0.00    -0.296 OA
ATOM     27  O5S SGN d 304     136.176   6.387  85.807  0.00  0.00    -0.572 OA
ATOM     28  O2S SGN d 304     129.925   8.663  83.225  0.00  0.00    -0.296 OA
ATOM     29  O4S SGN d 304     138.057   7.634  85.007  0.00  0.00    -0.572 OA
ATOM     30  O4  SGN d 304     135.668  11.425  83.399  0.00  0.00    -0.348 OA
ATOM     31  O6  SGN d 304     136.018   7.500  83.718  0.00  0.00    -0.254 OA
ATOM     32  S1  SGN d 304     129.694   9.899  82.522  0.00  0.00     0.156 S 
ATOM     33  C4  SGN d 304     134.806  10.303  83.149  0.00  0.00     0.095 C 
ATOM     34  O6S SGN d 304     137.428   5.579  83.947  0.00  0.00    -0.572 OA
ATOM     35  N   SGN d 304     131.137  10.545  82.069  0.00  0.00    -0.210 NA
ATOM     36  C5  SGN d 304     135.150   9.125  82.179  0.00  0.00     0.091 C 
ATOM     37  C3  SGN d 304     133.539  11.005  82.595  0.00  0.00     0.083 C 
ATOM     38  C6  SGN d 304     136.364   8.279  82.591  0.00  0.00     0.067 C 
ATOM     39  O5  SGN d 304     134.028   8.213  82.051  0.00  0.00    -0.349 OA
ATOM     40  O1S SGN d 304     128.993   9.686  81.286  0.00  0.00    -0.296 OA
ATOM     41  S2  SGN d 304     136.988   6.733  84.673  0.00  0.00     0.251 S 
ATOM     42  H   SGN d 304     132.249   9.635  83.571  0.00  0.00     0.076 H 
ATOM     43  H   SGN d 304     132.019   8.043  81.714  0.00  0.00     0.131 H 
ATOM     44  H   SGN d 304     132.385  12.514  83.100  0.00  0.00     0.210 HD
ATOM     45  H   SGN d 304     129.574  11.009  84.157  0.00  0.00     0.231 HD
ATOM     46  H   SGN d 304     130.399   8.845  84.051  0.00  0.00     0.231 HD
ATOM     47  H   SGN d 304     134.804   9.754  84.068  0.00  0.00     0.091 H 
ATOM     48  H   SGN d 304     131.172  10.497  81.050  0.00  0.00     0.140 HD
ATOM     49  H   SGN d 304     135.383   9.615  81.258  0.00  0.00     0.090 H 
ATOM     50  H   SGN d 304     133.724  11.389  81.614  0.00  0.00     0.089 H 
ATOM     51  H   SGN d 304     136.646   7.637  81.783  0.00  0.00     0.080 H 
ATOM     52  H   SGN d 304     137.187   8.920  82.831  0.00  0.00     0.080 H 
ATOM     53  H   SGN d 304     128.122   9.302  81.470  0.00  0.00     0.231 HD
ATOM     54  O62 IDS d 301     132.172  12.644  70.834  0.00  0.00    -0.646 OA
ATOM     55  O1  IDS d 301     132.111  11.076  66.064  0.00  0.00    -0.368 OA
ATOM     56  C4  IDS d 301     133.194   9.812  69.800  0.00  0.00     0.103 C 
ATOM     57  C5  IDS d 301     133.024  11.219  69.111  0.00  0.00     0.152 C 
ATOM     58  O61 IDS d 301     134.011  13.171  70.044  0.00  0.00    -0.646 OA
ATOM     59  S   IDS d 301     133.101   7.442  65.360  0.00  0.00     0.252 S 
ATOM     60  C3  IDS d 301     132.747   8.672  68.831  0.00  0.00     0.094 C 
ATOM     61  C1  IDS d 301     131.747  10.372  67.219  0.00  0.00     0.158 C 
ATOM     62  C6  IDS d 301     133.066  12.415  70.054  0.00  0.00     0.206 C 
ATOM     63  O5  IDS d 301     131.785  11.226  68.368  0.00  0.00    -0.340 OA
ATOM     64  O4  IDS d 301     133.284   9.146  71.069  0.00  0.00    -0.348 OA
ATOM     65  O3S IDS d 301     132.073   6.907  64.502  0.00  0.00    -0.572 OA
ATOM     66  O1S IDS d 301     133.867   8.475  64.715  0.00  0.00    -0.572 OA
ATOM     67  C2  IDS d 301     132.724   9.168  67.372  0.00  0.00     0.134 C 
ATOM     68  O3  IDS d 301     133.650   7.583  68.938  0.00  0.00    -0.390 OA
ATOM     69  O2  IDS d 301     132.305   8.107  66.534  0.00  0.00    -0.244 OA
ATOM     70  O2S IDS d 301     133.917   6.423  65.966  0.00  0.00    -0.572 OA
ATOM     71  H   IDS d 301     132.079  10.481  65.299  0.00  0.00     0.212 HD
ATOM     72  H   IDS d 301     133.933  10.483  70.186  0.00  0.00     0.092 H 
ATOM     73  H   IDS d 301     133.874  11.340  68.473  0.00  0.00     0.104 H 
ATOM     74  H   IDS d 301     131.759   8.363  69.105  0.00  0.00     0.091 H 
ATOM     75  H   IDS d 301     130.743  10.014  67.135  0.00  0.00     0.133 H 
ATOM     76  H   IDS d 301     133.705   9.490  67.095  0.00  0.00     0.097 H 
ATOM     77  H   IDS d 301     134.541   7.875  68.688  0.00  0.00     0.210 HD
ATOM     78  O1S SGN d 302     136.168   5.348  71.177  0.00  0.00    -0.296 OA
ATOM     79  C2  SGN d 302     134.716   8.407  72.938  0.00  0.00     0.081 C 
ATOM     80  S2  SGN d 302     134.348  14.210  74.721  0.00  0.00     0.251 S 
ATOM     81  N   SGN d 302     134.919   7.126  72.239  0.00  0.00    -0.210 NA
ATOM     82  C4  SGN d 302     133.446   9.656  74.689  0.00  0.00     0.095 C 
ATOM     83  O6  SGN d 302     134.036  12.683  74.597  0.00  0.00    -0.254 OA
ATOM     84  C5  SGN d 302     133.046  10.694  73.591  0.00  0.00     0.091 C 
ATOM     85  O4S SGN d 302     133.253  14.808  75.434  0.00  0.00    -0.572 OA
ATOM     86  O2S SGN d 302     136.983   7.554  70.921  0.00  0.00    -0.296 OA
ATOM     87  S1  SGN d 302     136.407   6.604  71.822  0.00  0.00     0.156 S 
ATOM     88  O5S SGN d 302     135.573  14.283  75.455  0.00  0.00    -0.572 OA
ATOM     89  O6S SGN d 302     134.472  14.684  73.374  0.00  0.00    -0.572 OA
ATOM     90  C6  SGN d 302     132.836  12.127  74.114  0.00  0.00     0.067 C 
ATOM     91  O3  SGN d 302     134.002   7.303  74.936  0.00  0.00    -0.391 OA
ATOM     92  C3  SGN d 302     133.622   8.290  73.992  0.00  0.00     0.083 C 
ATOM     93  O4  SGN d 302     132.523   9.341  75.727  0.00  0.00    -0.348 OA
ATOM     94  O3S SGN d 302     137.136   6.474  73.051  0.00  0.00    -0.296 OA
ATOM     95  C1  SGN d 302     134.352   9.503  71.904  0.00  0.00     0.150 C 
ATOM     96  O5  SGN d 302     134.068  10.746  72.557  0.00  0.00    -0.349 OA
ATOM     97  H   SGN d 302     135.674   5.495  70.356  0.00  0.00     0.231 HD
ATOM     98  H   SGN d 302     135.624   8.674  73.439  0.00  0.00     0.076 H 
ATOM     99  H   SGN d 302     134.381   7.183  71.373  0.00  0.00     0.140 HD
ATOM    100  H   SGN d 302     134.292  10.128  75.143  0.00  0.00     0.091 H 
ATOM    101  H   SGN d 302     132.107  10.350  73.213  0.00  0.00     0.090 H 
ATOM    102  H   SGN d 302     136.448   7.598  70.112  0.00  0.00     0.231 HD
ATOM    103  H   SGN d 302     132.467  12.736  73.316  0.00  0.00     0.080 H 
ATOM    104  H   SGN d 302     132.136  12.088  74.922  0.00  0.00     0.080 H 
ATOM    105  H   SGN d 302     134.109   6.450  74.487  0.00  0.00     0.210 HD
ATOM    106  H   SGN d 302     132.695   8.007  73.540  0.00  0.00     0.089 H 
ATOM    107  H   SGN d 302     136.700   5.819  73.617  0.00  0.00     0.231 HD
ATOM    108  H   SGN d 302     135.213   9.614  71.278  0.00  0.00     0.131 H 
ATOM    109  C1  IDS d 305     136.637  11.313  84.412  0.00  0.00     0.161 C 
ATOM    110  O1S IDS d 305     139.968  11.174  81.312  0.00  0.00    -0.572 OA
ATOM    111  S   IDS d 305     139.093  12.209  81.786  0.00  0.00     0.252 S 
ATOM    112  C4  IDS d 305     137.455  13.416  86.406  0.00  0.00    -0.005 C 
ATOM    113  O61 IDS d 305     134.277  13.797  87.552  0.00  0.00    -0.646 OA
ATOM    114  O3  IDS d 305     139.474  13.715  85.119  0.00  0.00    -0.393 OA
ATOM    115  O62 IDS d 305     135.265  12.155  88.349  0.00  0.00    -0.646 OA
ATOM    116  O2S IDS d 305     137.887  12.290  81.018  0.00  0.00    -0.572 OA
ATOM    117  O2  IDS d 305     138.704  11.759  83.234  0.00  0.00    -0.244 OA
ATOM    118  O5  IDS d 305     136.062  11.515  85.713  0.00  0.00    -0.343 OA
ATOM    119  C5  IDS d 305     136.002  12.879  86.188  0.00  0.00     0.127 C 
ATOM    120  C3  IDS d 305     138.462  12.770  85.412  0.00  0.00     0.069 C 
ATOM    121  C2  IDS d 305     137.754  12.348  84.108  0.00  0.00     0.132 C 
ATOM    122  C6  IDS d 305     135.131  12.944  87.439  0.00  0.00     0.203 C 
ATOM    123  O3S IDS d 305     139.757  13.471  81.934  0.00  0.00    -0.572 OA
ATOM    124  H   IDS d 305     137.048  10.325  84.423  0.00  0.00     0.133 H 
ATOM    125  H   IDS d 305     137.458  14.477  86.262  0.00  0.00     0.041 H 
ATOM    126  H   IDS d 305     137.760  13.164  87.400  0.00  0.00     0.041 H 
ATOM    127  H   IDS d 305     139.917  13.979  85.940  0.00  0.00     0.210 HD
ATOM    128  H   IDS d 305     135.543  13.519  85.464  0.00  0.00     0.100 H 
ATOM    129  H   IDS d 305     138.885  11.895  85.859  0.00  0.00     0.087 H 
ATOM    130  H   IDS d 305     137.316  13.212  83.653  0.00  0.00     0.097 H 
ENDROOT
TORSDOF 39
ENDMDL
