MODEL 1
REMARK VINA RESULT:     -19.9      0.000      0.000
REMARK  0 active torsions:
REMARK  status: ('A' for Active; 'I' for Inactive)
REMARK       I    between atoms: C5_1  and  C6_56 
REMARK       I    between atoms: C3_2  and  O3_5 
REMARK       I    between atoms: C1_3  and  O3_8 
REMARK       I    between atoms: C2_4  and  N2_36 
REMARK       I    between atoms: C3_7  and  O3_52 
REMARK       I    between atoms: O3_8  and  C3_74 
REMARK       I    between atoms: C2_9  and  O2_66 
REMARK       I    between atoms: C2_10  and  O2_27 
REMARK       I    between atoms: C7_11  and  C8_38 
REMARK       I    between atoms: C7_11  and  N2_36 
REMARK       I    between atoms: C5_12  and  C6_60 
REMARK       I    between atoms: C6_13  and  C5_17 
REMARK       I    between atoms: C6_13  and  O6_46 
REMARK       I    between atoms: C5_14  and  C6_78 
REMARK       I    between atoms: C1_15  and  O4_79 
REMARK       I    between atoms: O4_18  and  C4_22 
REMARK       I    between atoms: O4_18  and  C1_67 
REMARK       I    between atoms: C3_19  and  O3_42 
REMARK       I    between atoms: C2_20  and  O2_64 
REMARK       I    between atoms: C2_23  and  N2_28 
REMARK       I    between atoms: C1_24  and  O1_61 
REMARK       I    between atoms: N2_25  and  C2_31 
REMARK       I    between atoms: N2_25  and  C7_34 
REMARK       I    between atoms: C5_26  and  C6_51 
REMARK       I    between atoms: N2_28  and  C7_32 
REMARK       I    between atoms: O4_29  and  C4_77 
REMARK       I    between atoms: C7_32  and  C8_44 
REMARK       I    between atoms: C7_34  and  C8_49 
REMARK       I    between atoms: O3_35  and  C3_59 
REMARK       I    between atoms: O3_35  and  C1_39 
REMARK       I    between atoms: C4_40  and  O4_79 
REMARK       I    between atoms: C6_41  and  C5_47 
REMARK       I    between atoms: O4_43  and  C4_71 
REMARK       I    between atoms: O4_48  and  C4_58 
REMARK       I    between atoms: C6_51  and  O6_73 
REMARK       I    between atoms: O3_52  and  C1_62 
REMARK       I    between atoms: C3_54  and  O3_75 
REMARK       I    between atoms: O6_72  and  C6_78 
ROOT
ATOM      1  C5  BDP d2001      12.654 -13.576  31.963  0.00  0.00     0.152 C 
ATOM      2  C3  BDP d2001      13.481 -11.146  32.807  0.00  0.00     0.092 C 
ATOM      3  C1  BDP d2001      15.132 -13.006  32.547  0.00  0.00     0.160 C 
ATOM      4  O3  BDP d2001      13.212  -9.728  32.649  0.00  0.00    -0.390 OA
ATOM      5  C2  BDP d2001      14.931 -11.462  32.314  0.00  0.00     0.110 C 
ATOM      6  O4  BDP d2001      11.064 -11.769  32.388  0.00  0.00    -0.348 OA
ATOM      7  C4  BDP d2001      12.456 -11.957  31.928  0.00  0.00     0.103 C 
ATOM      8  O6A BDP d2001      12.258 -15.582  31.150  0.00  0.00    -0.646 OA
ATOM      9  O6B BDP d2001      10.947 -13.802  30.550  0.00  0.00    -0.646 OA
ATOM     10  C6  BDP d2001      11.888 -14.378  31.178  0.00  0.00     0.206 C 
ATOM     11  O2  BDP d2001      15.899 -10.708  33.100  0.00  0.00    -0.388 OA
ATOM     12  O5  BDP d2001      14.162 -13.780  31.778  0.00  0.00    -0.340 OA
ATOM     13  H   BDP d2001      12.266 -13.925  32.898  0.00  0.00     0.104 H 
ATOM     14  H   BDP d2001      13.386 -11.419  33.837  0.00  0.00     0.091 H 
ATOM     15  H   BDP d2001      15.003 -13.158  33.598  0.00  0.00     0.133 H 
ATOM     16  H   BDP d2001      13.299  -9.485  31.714  0.00  0.00     0.210 HD
ATOM     17  H   BDP d2001      15.070 -11.195  31.288  0.00  0.00     0.094 H 
ATOM     18  H   BDP d2001      12.643 -11.571  30.948  0.00  0.00     0.092 H 
ATOM     19  H   BDP d2001      15.797 -10.931  34.039  0.00  0.00     0.210 HD
ATOM     20  C2  NAG d2004       1.831  -8.432  26.274  0.00  0.00     0.087 C 
ATOM     21  O5  NAG d2004       1.208 -10.509  27.512  0.00  0.00    -0.349 OA
ATOM     22  C3  NAG d2004       0.581  -8.565  25.388  0.00  0.00     0.093 C 
ATOM     23  C7  NAG d2004       1.704  -6.032  27.429  0.00  0.00     0.214 C 
ATOM     24  C1  NAG d2004       1.550  -9.058  27.678  0.00  0.00     0.154 C 
ATOM     25  C5  NAG d2004      -0.028 -10.701  26.697  0.00  0.00     0.089 C 
ATOM     26  N2  NAG d2004       2.176  -6.924  26.399  0.00  0.00    -0.349 N 
ATOM     27  C8  NAG d2004       2.218  -4.618  27.251  0.00  0.00    -0.003 C 
ATOM     28  O4  NAG d2004      -0.960 -10.334  24.419  0.00  0.00    -0.390 OA
ATOM     29  O7  NAG d2004       0.953  -6.328  28.380  0.00  0.00    -0.274 OA
ATOM     30  C6  NAG d2004      -0.334 -12.208  26.605  0.00  0.00     0.043 C 
ATOM     31  O3  NAG d2004       0.881  -7.981  24.064  0.00  0.00    -0.348 OA
ATOM     32  C4  NAG d2004       0.245 -10.109  25.244  0.00  0.00     0.089 C 
ATOM     33  O6  NAG d2004      -0.322 -12.720  25.255  0.00  0.00    -0.398 OA
ATOM     34  H   NAG d2004       2.659  -8.954  25.839  0.00  0.00     0.084 H 
ATOM     35  H   NAG d2004      -0.256  -8.053  25.816  0.00  0.00     0.091 H 
ATOM     36  H   NAG d2004       0.743  -8.580  28.193  0.00  0.00     0.132 H 
ATOM     37  H   NAG d2004      -0.863 -10.201  27.141  0.00  0.00     0.090 H 
ATOM     38  H   NAG d2004       2.771  -6.542  25.715  0.00  0.00     0.163 HD
ATOM     39  H   NAG d2004       2.842  -4.573  26.383  0.00  0.00     0.040 H 
ATOM     40  H   NAG d2004       2.785  -4.334  28.113  0.00  0.00     0.040 H 
ATOM     41  H   NAG d2004       1.390  -3.950  27.132  0.00  0.00     0.040 H 
ATOM     42  H   NAG d2004      -0.813  -9.979  23.529  0.00  0.00     0.210 HD
ATOM     43  H   NAG d2004      -1.303 -12.382  27.023  0.00  0.00     0.078 H 
ATOM     44  H   NAG d2004       0.439 -12.718  27.142  0.00  0.00     0.078 H 
ATOM     45  H   NAG d2004       1.074 -10.590  24.769  0.00  0.00     0.091 H 
ATOM     46  H   NAG d2004      -1.012 -12.280  24.736  0.00  0.00     0.209 HD
ATOM     47  O3  NAG d2000      16.415 -13.447  32.157  0.00  0.00    -0.348 OA
ATOM     48  C6  NAG d2000      17.136 -18.436  31.487  0.00  0.00     0.043 C 
ATOM     49  C5  NAG d2000      17.275 -17.206  32.428  0.00  0.00     0.089 C 
ATOM     50  O7  NAG d2000      18.921 -11.647  32.467  0.00  0.00    -0.274 OA
ATOM     51  C1  NAG d2000      18.950 -15.865  33.705  0.00  0.00     0.151 C 
ATOM     52  N2  NAG d2000      18.682 -13.385  34.053  0.00  0.00    -0.349 N 
ATOM     53  O4  NAG d2000      15.306 -16.079  31.471  0.00  0.00    -0.390 OA
ATOM     54  C2  NAG d2000      18.449 -14.527  33.070  0.00  0.00     0.087 C 
ATOM     55  C7  NAG d2000      18.894 -12.050  33.647  0.00  0.00     0.214 C 
ATOM     56  O5  NAG d2000      18.726 -17.042  32.762  0.00  0.00    -0.349 OA
ATOM     57  O6  NAG d2000      16.648 -19.633  32.161  0.00  0.00    -0.398 OA
ATOM     58  C8  NAG d2000      19.083 -11.115  34.816  0.00  0.00    -0.003 C 
ATOM     59  O1  NAG d2000      20.339 -15.778  33.976  0.00  0.00    -0.369 OA
ATOM     60  C3  NAG d2000      16.918 -14.680  32.775  0.00  0.00     0.093 C 
ATOM     61  C4  NAG d2000      16.718 -15.874  31.769  0.00  0.00     0.089 C 
ATOM     62  H   NAG d2000      18.097 -18.652  31.067  0.00  0.00     0.078 H 
ATOM     63  H   NAG d2000      16.415 -18.180  30.739  0.00  0.00     0.078 H 
ATOM     64  H   NAG d2000      16.692 -17.380  33.309  0.00  0.00     0.090 H 
ATOM     65  H   NAG d2000      18.396 -16.022  34.606  0.00  0.00     0.132 H 
ATOM     66  H   NAG d2000      18.685 -13.589  35.016  0.00  0.00     0.163 HD
ATOM     67  H   NAG d2000      15.210 -16.819  30.851  0.00  0.00     0.210 HD
ATOM     68  H   NAG d2000      18.978 -14.312  32.165  0.00  0.00     0.084 H 
ATOM     69  H   NAG d2000      17.279 -19.897  32.850  0.00  0.00     0.209 HD
ATOM     70  H   NAG d2000      19.240 -10.120  34.456  0.00  0.00     0.040 H 
ATOM     71  H   NAG d2000      19.932 -11.425  35.387  0.00  0.00     0.040 H 
ATOM     72  H   NAG d2000      18.210 -11.137  35.434  0.00  0.00     0.040 H 
ATOM     73  H   NAG d2000      20.822 -15.636  33.146  0.00  0.00     0.212 HD
ATOM     74  H   NAG d2000      16.388 -14.866  33.686  0.00  0.00     0.091 H 
ATOM     75  H   NAG d2000      17.239 -15.638  30.864  0.00  0.00     0.091 H 
ATOM     76  C2  BDP d2005       0.378  -7.037  21.986  0.00  0.00     0.114 C 
ATOM     77  C3  BDP d2005      -0.868  -6.671  21.166  0.00  0.00     0.125 C 
ATOM     78  O2  BDP d2005       1.198  -5.921  22.301  0.00  0.00    -0.388 OA
ATOM     79  O6A BDP d2005      -2.579 -10.209  20.812  0.00  0.00    -0.646 OA
ATOM     80  O6B BDP d2005      -3.735  -9.782  22.774  0.00  0.00    -0.646 OA
ATOM     81  C6  BDP d2005      -2.913  -9.521  21.835  0.00  0.00     0.211 C 
ATOM     82  O3  BDP d2005      -0.408  -6.239  19.840  0.00  0.00    -0.385 OA
ATOM     83  C5  BDP d2005      -2.222  -8.279  22.006  0.00  0.00     0.184 C 
ATOM     84  C4  BDP d2005      -2.195  -7.304  21.074  0.00  0.00     0.197 C 
ATOM     85  C1  BDP d2005      -0.189  -7.567  23.249  0.00  0.00     0.160 C 
ATOM     86  O4  BDP d2005      -2.816  -7.404  20.198  0.00  0.00    -0.292 OA
ATOM     87  O5  BDP d2005      -1.037  -8.656  22.864  0.00  0.00    -0.335 OA
ATOM     88  H   BDP d2005       1.003  -7.712  21.440  0.00  0.00     0.095 H 
ATOM     89  H   BDP d2005      -1.258  -6.018  21.918  0.00  0.00     0.099 H 
ATOM     90  H   BDP d2005       0.681  -5.270  22.801  0.00  0.00     0.210 HD
ATOM     91  H   BDP d2005      -0.100  -7.009  19.337  0.00  0.00     0.210 HD
ATOM     92  H   BDP d2005      -2.832  -7.531  22.467  0.00  0.00     0.113 H 
ATOM     93  H   BDP d2005      -0.756  -6.851  23.806  0.00  0.00     0.133 H 
ATOM     94  C5  BDP d2003       4.816  -8.863  29.314  0.00  0.00     0.152 C 
ATOM     95  O6B BDP d2003       4.986  -6.658  29.390  0.00  0.00    -0.646 OA
ATOM     96  C2  BDP d2003       3.959 -10.447  31.836  0.00  0.00     0.110 C 
ATOM     97  C1  BDP d2003       5.455 -10.261  31.390  0.00  0.00     0.160 C 
ATOM     98  C4  BDP d2003       3.316  -9.224  29.714  0.00  0.00     0.103 C 
ATOM     99  C3  BDP d2003       3.145 -10.604  30.480  0.00  0.00     0.092 C 
ATOM    100  C6  BDP d2003       5.085  -7.706  28.681  0.00  0.00     0.206 C 
ATOM    101  O6A BDP d2003       5.357  -7.848  27.469  0.00  0.00    -0.646 OA
ATOM    102  O2  BDP d2003       3.869 -11.649  32.637  0.00  0.00    -0.388 OA
ATOM    103  O5  BDP d2003       5.607  -9.085  30.570  0.00  0.00    -0.340 OA
ATOM    104  O3  BDP d2003       1.757 -10.811  30.807  0.00  0.00    -0.390 OA
ATOM    105  O4  BDP d2003       2.781  -8.946  28.356  0.00  0.00    -0.348 OA
ATOM    106  H   BDP d2003       5.098  -9.502  28.503  0.00  0.00     0.104 H 
ATOM    107  H   BDP d2003       3.582  -9.633  32.419  0.00  0.00     0.094 H 
ATOM    108  H   BDP d2003       5.647 -11.187  30.891  0.00  0.00     0.133 H 
ATOM    109  H   BDP d2003       2.780  -8.710  30.485  0.00  0.00     0.092 H 
ATOM    110  H   BDP d2003       3.487 -11.426  29.885  0.00  0.00     0.091 H 
ATOM    111  H   BDP d2003       4.206 -12.403  32.129  0.00  0.00     0.210 HD
ATOM    112  H   BDP d2003       1.437 -10.071  31.347  0.00  0.00     0.210 HD
ATOM    113  C5  NAG d2002       9.764  -8.547  31.067  0.00  0.00     0.089 C 
ATOM    114  C2  NAG d2002       8.754 -10.963  32.505  0.00  0.00     0.087 C 
ATOM    115  N2  NAG d2002       8.165 -12.360  32.512  0.00  0.00    -0.349 N 
ATOM    116  C7  NAG d2002       7.544 -12.863  33.676  0.00  0.00     0.214 C 
ATOM    117  O3  NAG d2002       6.422 -10.091  32.425  0.00  0.00    -0.348 OA
ATOM    118  C8  NAG d2002       6.993 -14.240  33.480  0.00  0.00    -0.003 C 
ATOM    119  O4  NAG d2002       7.491  -7.617  31.116  0.00  0.00    -0.390 OA
ATOM    120  O5  NAG d2002      10.695  -9.493  31.734  0.00  0.00    -0.349 OA
ATOM    121  C4  NAG d2002       8.359  -8.550  31.803  0.00  0.00     0.089 C 
ATOM    122  C3  NAG d2002       7.775 -10.015  31.777  0.00  0.00     0.093 C 
ATOM    123  C1  NAG d2002      10.139 -10.909  31.750  0.00  0.00     0.154 C 
ATOM    124  O6  NAG d2002      10.371  -6.514  32.360  0.00  0.00    -0.398 OA
ATOM    125  O7  NAG d2002       7.433 -12.261  34.746  0.00  0.00    -0.274 OA
ATOM    126  C6  NAG d2002      10.418  -7.159  31.070  0.00  0.00     0.043 C 
ATOM    127  H   NAG d2002       9.578  -8.841  30.055  0.00  0.00     0.090 H 
ATOM    128  H   NAG d2002       8.910 -10.670  33.522  0.00  0.00     0.084 H 
ATOM    129  H   NAG d2002       8.215 -12.919  31.703  0.00  0.00     0.163 HD
ATOM    130  H   NAG d2002       7.201 -14.569  32.483  0.00  0.00     0.040 H 
ATOM    131  H   NAG d2002       5.935 -14.228  33.638  0.00  0.00     0.040 H 
ATOM    132  H   NAG d2002       7.450 -14.910  34.178  0.00  0.00     0.040 H 
ATOM    133  H   NAG d2002       7.879  -6.728  31.151  0.00  0.00     0.210 HD
ATOM    134  H   NAG d2002       8.449  -8.248  32.826  0.00  0.00     0.091 H 
ATOM    135  H   NAG d2002       7.661 -10.308  30.754  0.00  0.00     0.091 H 
ATOM    136  H   NAG d2002       9.983 -11.227  30.740  0.00  0.00     0.132 H 
ATOM    137  H   NAG d2002      10.798  -5.645  32.301  0.00  0.00     0.209 HD
ATOM    138  H   NAG d2002       9.907  -6.540  30.361  0.00  0.00     0.078 H 
ATOM    139  H   NAG d2002      11.449  -7.291  30.816  0.00  0.00     0.078 H 
ENDROOT
TORSDOF 35
ENDMDL
MODEL 2
REMARK VINA RESULT:      -8.2      1.864      2.149
REMARK  0 active torsions:
REMARK  status: ('A' for Active; 'I' for Inactive)
REMARK       I    between atoms: C5_1  and  C6_56 
REMARK       I    between atoms: C3_2  and  O3_5 
REMARK       I    between atoms: C1_3  and  O3_8 
REMARK       I    between atoms: C2_4  and  N2_36 
REMARK       I    between atoms: C3_7  and  O3_52 
REMARK       I    between atoms: O3_8  and  C3_74 
REMARK       I    between atoms: C2_9  and  O2_66 
REMARK       I    between atoms: C2_10  and  O2_27 
REMARK       I    between atoms: C7_11  and  C8_38 
REMARK       I    between atoms: C7_11  and  N2_36 
REMARK       I    between atoms: C5_12  and  C6_60 
REMARK       I    between atoms: C6_13  and  C5_17 
REMARK       I    between atoms: C6_13  and  O6_46 
REMARK       I    between atoms: C5_14  and  C6_78 
REMARK       I    between atoms: C1_15  and  O4_79 
REMARK       I    between atoms: O4_18  and  C4_22 
REMARK       I    between atoms: O4_18  and  C1_67 
REMARK       I    between atoms: C3_19  and  O3_42 
REMARK       I    between atoms: C2_20  and  O2_64 
REMARK       I    between atoms: C2_23  and  N2_28 
REMARK       I    between atoms: C1_24  and  O1_61 
REMARK       I    between atoms: N2_25  and  C2_31 
REMARK       I    between atoms: N2_25  and  C7_34 
REMARK       I    between atoms: C5_26  and  C6_51 
REMARK       I    between atoms: N2_28  and  C7_32 
REMARK       I    between atoms: O4_29  and  C4_77 
REMARK       I    between atoms: C7_32  and  C8_44 
REMARK       I    between atoms: C7_34  and  C8_49 
REMARK       I    between atoms: O3_35  and  C3_59 
REMARK       I    between atoms: O3_35  and  C1_39 
REMARK       I    between atoms: C4_40  and  O4_79 
REMARK       I    between atoms: C6_41  and  C5_47 
REMARK       I    between atoms: O4_43  and  C4_71 
REMARK       I    between atoms: O4_48  and  C4_58 
REMARK       I    between atoms: C6_51  and  O6_73 
REMARK       I    between atoms: O3_52  and  C1_62 
REMARK       I    between atoms: C3_54  and  O3_75 
REMARK       I    between atoms: O6_72  and  C6_78 
ROOT
ATOM      1  C5  BDP d2001      11.954 -13.900  31.804  0.00  0.00     0.152 C 
ATOM      2  C3  BDP d2001      13.140 -11.802  33.026  0.00  0.00     0.092 C 
ATOM      3  C1  BDP d2001      14.501 -13.791  32.360  0.00  0.00     0.160 C 
ATOM      4  O3  BDP d2001      13.074 -10.356  33.136  0.00  0.00    -0.390 OA
ATOM      5  C2  BDP d2001      14.519 -12.218  32.415  0.00  0.00     0.110 C 
ATOM      6  O4  BDP d2001      10.650 -12.001  32.620  0.00  0.00    -0.348 OA
ATOM      7  C4  BDP d2001      11.990 -12.290  32.068  0.00  0.00     0.103 C 
ATOM      8  O6A BDP d2001      11.257 -15.649  30.667  0.00  0.00    -0.646 OA
ATOM      9  O6B BDP d2001      10.201 -13.627  30.457  0.00  0.00    -0.646 OA
ATOM     10  C6  BDP d2001      11.064 -14.432  30.926  0.00  0.00     0.206 C 
ATOM     11  O2  BDP d2001      15.602 -11.761  33.276  0.00  0.00    -0.388 OA
ATOM     12  O5  BDP d2001      13.413 -14.271  31.513  0.00  0.00    -0.340 OA
ATOM     13  H   BDP d2001      11.541 -14.357  32.679  0.00  0.00     0.104 H 
ATOM     14  H   BDP d2001      13.030 -12.243  33.995  0.00  0.00     0.091 H 
ATOM     15  H   BDP d2001      14.376 -14.114  33.372  0.00  0.00     0.133 H 
ATOM     16  H   BDP d2001      13.174  -9.960  32.256  0.00  0.00     0.210 HD
ATOM     17  H   BDP d2001      14.671 -11.789  31.448  0.00  0.00     0.094 H 
ATOM     18  H   BDP d2001      12.208 -11.760  31.164  0.00  0.00     0.092 H 
ATOM     19  H   BDP d2001      15.490 -12.136  34.163  0.00  0.00     0.210 HD
ATOM     20  C2  NAG d2004       1.855  -6.368  27.651  0.00  0.00     0.087 C 
ATOM     21  O5  NAG d2004       0.969  -8.532  28.529  0.00  0.00    -0.349 OA
ATOM     22  C3  NAG d2004       0.579  -6.164  26.818  0.00  0.00     0.093 C 
ATOM     23  C7  NAG d2004       2.100  -4.226  29.220  0.00  0.00     0.214 C 
ATOM     24  C1  NAG d2004       1.520  -7.196  28.933  0.00  0.00     0.154 C 
ATOM     25  C5  NAG d2004      -0.299  -8.400  27.753  0.00  0.00     0.089 C 
ATOM     26  N2  NAG d2004       2.416  -4.970  28.026  0.00  0.00    -0.349 N 
ATOM     27  C8  NAG d2004       2.807  -2.887  29.272  0.00  0.00    -0.003 C 
ATOM     28  O4  NAG d2004      -1.221  -7.498  25.624  0.00  0.00    -0.390 OA
ATOM     29  O7  NAG d2004       1.336  -4.585  30.139  0.00  0.00    -0.274 OA
ATOM     30  C6  NAG d2004      -0.821  -9.808  27.409  0.00  0.00     0.043 C 
ATOM     31  O3  NAG d2004       0.930  -5.394  25.605  0.00  0.00    -0.348 OA
ATOM     32  C4  NAG d2004       0.022  -7.595  26.417  0.00  0.00     0.089 C 
ATOM     33  O6  NAG d2004      -0.913 -10.061  25.990  0.00  0.00    -0.398 OA
ATOM     34  H   NAG d2004       2.590  -6.910  27.091  0.00  0.00     0.084 H 
ATOM     35  H   NAG d2004      -0.166  -5.630  27.369  0.00  0.00     0.091 H 
ATOM     36  H   NAG d2004       0.801  -6.715  29.564  0.00  0.00     0.132 H 
ATOM     37  H   NAG d2004      -1.044  -7.880  28.319  0.00  0.00     0.090 H 
ATOM     38  H   NAG d2004       3.044  -4.555  27.393  0.00  0.00     0.163 HD
ATOM     39  H   NAG d2004       3.411  -2.770  28.397  0.00  0.00     0.040 H 
ATOM     40  H   NAG d2004       3.428  -2.845  30.142  0.00  0.00     0.040 H 
ATOM     41  H   NAG d2004       2.082  -2.102  29.314  0.00  0.00     0.040 H 
ATOM     42  H   NAG d2004      -1.045  -7.010  24.806  0.00  0.00     0.210 HD
ATOM     43  H   NAG d2004      -1.796  -9.921  27.836  0.00  0.00     0.078 H 
ATOM     44  H   NAG d2004      -0.118 -10.509  27.809  0.00  0.00     0.078 H 
ATOM     45  H   NAG d2004       0.762  -8.090  25.824  0.00  0.00     0.091 H 
ATOM     46  H   NAG d2004      -1.544  -9.443  25.592  0.00  0.00     0.209 HD
ATOM     47  O3  NAG d2000      15.698 -14.325  31.836  0.00  0.00    -0.348 OA
ATOM     48  C6  NAG d2000      15.681 -19.158  30.254  0.00  0.00     0.043 C 
ATOM     49  C5  NAG d2000      16.016 -18.152  31.392  0.00  0.00     0.089 C 
ATOM     50  O7  NAG d2000      18.443 -12.972  32.340  0.00  0.00    -0.274 OA
ATOM     51  C1  NAG d2000      17.895 -17.309  32.804  0.00  0.00     0.151 C 
ATOM     52  N2  NAG d2000      17.993 -14.922  33.601  0.00  0.00    -0.349 N 
ATOM     53  O4  NAG d2000      14.208 -16.610  30.747  0.00  0.00    -0.390 OA
ATOM     54  C2  NAG d2000      17.576 -15.822  32.443  0.00  0.00     0.087 C 
ATOM     55  C7  NAG d2000      18.386 -13.577  33.429  0.00  0.00     0.214 C 
ATOM     56  O5  NAG d2000      17.483 -18.252  31.679  0.00  0.00    -0.349 OA
ATOM     57  O6  NAG d2000      15.041 -20.380  30.728  0.00  0.00    -0.398 OA
ATOM     58  C8  NAG d2000      18.733 -12.907  34.736  0.00  0.00    -0.003 C 
ATOM     59  O1  NAG d2000      19.288 -17.465  33.019  0.00  0.00    -0.369 OA
ATOM     60  C3  NAG d2000      16.033 -15.707  32.200  0.00  0.00     0.093 C 
ATOM     61  C4  NAG d2000      15.641 -16.658  31.008  0.00  0.00     0.089 C 
ATOM     62  H   NAG d2000      16.591 -19.422  29.757  0.00  0.00     0.078 H 
ATOM     63  H   NAG d2000      14.987 -18.673  29.599  0.00  0.00     0.078 H 
ATOM     64  H   NAG d2000      15.434 -18.403  32.254  0.00  0.00     0.090 H 
ATOM     65  H   NAG d2000      17.344 -17.551  33.689  0.00  0.00     0.132 H 
ATOM     66  H   NAG d2000      17.989 -15.297  34.511  0.00  0.00     0.163 HD
ATOM     67  H   NAG d2000      13.993 -17.203  30.010  0.00  0.00     0.210 HD
ATOM     68  H   NAG d2000      18.110 -15.519  31.566  0.00  0.00     0.084 H 
ATOM     69  H   NAG d2000      15.644 -20.849  31.327  0.00  0.00     0.209 HD
ATOM     70  H   NAG d2000      19.022 -11.894  34.551  0.00  0.00     0.040 H 
ATOM     71  H   NAG d2000      19.542 -13.430  35.201  0.00  0.00     0.040 H 
ATOM     72  H   NAG d2000      17.880 -12.922  35.382  0.00  0.00     0.040 H 
ATOM     73  H   NAG d2000      19.767 -17.240  32.206  0.00  0.00     0.212 HD
ATOM     74  H   NAG d2000      15.503 -15.983  33.087  0.00  0.00     0.091 H 
ATOM     75  H   NAG d2000      16.170 -16.334  30.135  0.00  0.00     0.091 H 
ATOM     76  C2  BDP d2005       0.521  -4.026  23.756  0.00  0.00     0.114 C 
ATOM     77  C3  BDP d2005      -0.678  -3.349  23.075  0.00  0.00     0.125 C 
ATOM     78  O2  BDP d2005       1.500  -3.109  24.224  0.00  0.00    -0.388 OA
ATOM     79  O6A BDP d2005      -2.887  -6.494  22.179  0.00  0.00    -0.646 OA
ATOM     80  O6B BDP d2005      -3.924  -6.279  24.240  0.00  0.00    -0.646 OA
ATOM     81  C6  BDP d2005      -3.095  -5.966  23.324  0.00  0.00     0.211 C 
ATOM     82  O3  BDP d2005      -0.191  -2.748  21.826  0.00  0.00    -0.385 OA
ATOM     83  C5  BDP d2005      -2.229  -4.883  23.680  0.00  0.00     0.184 C 
ATOM     84  C4  BDP d2005      -2.084  -3.767  22.936  0.00  0.00     0.197 C 
ATOM     85  C1  BDP d2005      -0.088  -4.696  24.930  0.00  0.00     0.160 C 
ATOM     86  O4  BDP d2005      -2.733  -3.619  22.087  0.00  0.00    -0.292 OA
ATOM     87  O5  BDP d2005      -1.091  -5.569  24.399  0.00  0.00    -0.335 OA
ATOM     88  H   BDP d2005       1.030  -4.669  23.069  0.00  0.00     0.095 H 
ATOM     89  H   BDP d2005      -0.953  -2.798  23.949  0.00  0.00     0.099 H 
ATOM     90  H   BDP d2005       1.093  -2.496  24.857  0.00  0.00     0.210 HD
ATOM     91  H   BDP d2005      -0.008  -3.449  21.180  0.00  0.00     0.210 HD
ATOM     92  H   BDP d2005      -2.715  -4.155  24.296  0.00  0.00     0.113 H 
ATOM     93  H   BDP d2005      -0.533  -4.023  25.632  0.00  0.00     0.133 H 
ATOM     94  C5  BDP d2003       4.816  -7.753  30.418  0.00  0.00     0.152 C 
ATOM     95  O6B BDP d2003       5.302  -5.644  30.878  0.00  0.00    -0.646 OA
ATOM     96  C2  BDP d2003       3.798  -9.639  32.656  0.00  0.00     0.110 C 
ATOM     97  C1  BDP d2003       5.295  -9.581  32.179  0.00  0.00     0.160 C 
ATOM     98  C4  BDP d2003       3.289  -7.973  30.820  0.00  0.00     0.103 C 
ATOM     99  C3  BDP d2003       2.939  -9.433  31.335  0.00  0.00     0.092 C 
ATOM    100  C6  BDP d2003       5.234  -6.548  29.989  0.00  0.00     0.206 C 
ATOM    101  O6A BDP d2003       5.455  -6.501  28.759  0.00  0.00    -0.646 OA
ATOM    102  O2  BDP d2003       3.554 -10.944  33.234  0.00  0.00    -0.388 OA
ATOM    103  O5  BDP d2003       5.595  -8.307  31.576  0.00  0.00    -0.340 OA
ATOM    104  O3  BDP d2003       1.543  -9.504  31.686  0.00  0.00    -0.390 OA
ATOM    105  O4  BDP d2003       2.769  -7.380  29.560  0.00  0.00    -0.348 OA
ATOM    106  H   BDP d2003       4.985  -8.265  29.494  0.00  0.00     0.104 H 
ATOM    107  H   BDP d2003       3.554  -8.902  33.393  0.00  0.00     0.094 H 
ATOM    108  H   BDP d2003       5.340 -10.418  31.514  0.00  0.00     0.133 H 
ATOM    109  H   BDP d2003       2.850  -7.540  31.695  0.00  0.00     0.092 H 
ATOM    110  H   BDP d2003       3.146 -10.170  30.588  0.00  0.00     0.091 H 
ATOM    111  H   BDP d2003       3.768 -11.631  32.584  0.00  0.00     0.210 HD
ATOM    112  H   BDP d2003       1.345  -8.839  32.364  0.00  0.00     0.210 HD
ATOM    113  C5  NAG d2002       9.796  -8.444  31.959  0.00  0.00     0.089 C 
ATOM    114  C2  NAG d2002       8.483 -10.921  32.991  0.00  0.00     0.087 C 
ATOM    115  N2  NAG d2002       7.699 -12.202  32.777  0.00  0.00    -0.349 N 
ATOM    116  C7  NAG d2002       7.039 -12.819  33.862  0.00  0.00     0.214 C 
ATOM    117  O3  NAG d2002       6.298  -9.738  33.180  0.00  0.00    -0.348 OA
ATOM    118  C8  NAG d2002       6.293 -14.049  33.450  0.00  0.00    -0.003 C 
ATOM    119  O4  NAG d2002       7.682  -7.236  32.282  0.00  0.00    -0.390 OA
ATOM    120  O5  NAG d2002      10.597  -9.615  32.401  0.00  0.00    -0.349 OA
ATOM    121  C4  NAG d2002       8.422  -8.389  32.749  0.00  0.00     0.089 C 
ATOM    122  C3  NAG d2002       7.634  -9.730  32.491  0.00  0.00     0.093 C 
ATOM    123  C1  NAG d2002       9.844 -10.920  32.191  0.00  0.00     0.154 C 
ATOM    124  O6  NAG d2002      10.718  -6.784  33.562  0.00  0.00    -0.398 OA
ATOM    125  O7  NAG d2002       7.040 -12.414  35.026  0.00  0.00    -0.274 OA
ATOM    126  C6  NAG d2002      10.642  -7.182  32.177  0.00  0.00     0.043 C 
ATOM    127  H   NAG d2002       9.548  -8.519  30.920  0.00  0.00     0.090 H 
ATOM    128  H   NAG d2002       8.702 -10.843  34.035  0.00  0.00     0.084 H 
ATOM    129  H   NAG d2002       7.651 -12.604  31.880  0.00  0.00     0.163 HD
ATOM    130  H   NAG d2002       6.428 -14.215  32.402  0.00  0.00     0.040 H 
ATOM    131  H   NAG d2002       5.251 -13.921  33.659  0.00  0.00     0.040 H 
ATOM    132  H   NAG d2002       6.664 -14.891  33.995  0.00  0.00     0.040 H 
ATOM    133  H   NAG d2002       8.194  -6.430  32.455  0.00  0.00     0.210 HD
ATOM    134  H   NAG d2002       8.577  -8.295  33.804  0.00  0.00     0.091 H 
ATOM    135  H   NAG d2002       7.455  -9.813  31.439  0.00  0.00     0.091 H 
ATOM    136  H   NAG d2002       9.621 -11.023  31.149  0.00  0.00     0.132 H 
ATOM    137  H   NAG d2002      11.263  -5.986  33.638  0.00  0.00     0.209 HD
ATOM    138  H   NAG d2002      10.210  -6.380  31.615  0.00  0.00     0.078 H 
ATOM    139  H   NAG d2002      11.638  -7.406  31.854  0.00  0.00     0.078 H 
ENDROOT
TORSDOF 35
ENDMDL
