REMARK  0 active torsions:
REMARK  status: ('A' for Active; 'I' for Inactive)
REMARK       I    between atoms: C5_1  and  C6_56 
REMARK       I    between atoms: C3_2  and  O3_5 
REMARK       I    between atoms: C1_3  and  O3_8 
REMARK       I    between atoms: C2_4  and  N2_36 
REMARK       I    between atoms: C3_7  and  O3_52 
REMARK       I    between atoms: O3_8  and  C3_74 
REMARK       I    between atoms: C2_9  and  O2_66 
REMARK       I    between atoms: C2_10  and  O2_27 
REMARK       I    between atoms: C7_11  and  C8_38 
REMARK       I    between atoms: C7_11  and  N2_36 
REMARK       I    between atoms: C5_12  and  C6_60 
REMARK       I    between atoms: C6_13  and  C5_17 
REMARK       I    between atoms: C6_13  and  O6_46 
REMARK       I    between atoms: C5_14  and  C6_78 
REMARK       I    between atoms: C1_15  and  O4_79 
REMARK       I    between atoms: O4_18  and  C4_22 
REMARK       I    between atoms: O4_18  and  C1_67 
REMARK       I    between atoms: C3_19  and  O3_42 
REMARK       I    between atoms: C2_20  and  O2_64 
REMARK       I    between atoms: C2_23  and  N2_28 
REMARK       I    between atoms: C1_24  and  O1_61 
REMARK       I    between atoms: N2_25  and  C2_31 
REMARK       I    between atoms: N2_25  and  C7_34 
REMARK       I    between atoms: C5_26  and  C6_51 
REMARK       I    between atoms: N2_28  and  C7_32 
REMARK       I    between atoms: O4_29  and  C4_77 
REMARK       I    between atoms: C7_32  and  C8_44 
REMARK       I    between atoms: C7_34  and  C8_49 
REMARK       I    between atoms: O3_35  and  C3_59 
REMARK       I    between atoms: O3_35  and  C1_39 
REMARK       I    between atoms: C4_40  and  O4_79 
REMARK       I    between atoms: C6_41  and  C5_47 
REMARK       I    between atoms: O4_43  and  C4_71 
REMARK       I    between atoms: O4_48  and  C4_58 
REMARK       I    between atoms: C6_51  and  O6_73 
REMARK       I    between atoms: O3_52  and  C1_62 
REMARK       I    between atoms: C3_54  and  O3_75 
REMARK       I    between atoms: O6_72  and  C6_78 
ROOT
ATOM      1  C5  BDP d2001      12.367 -13.562  31.770  0.00  0.00     0.152 C 
ATOM      2  C3  BDP d2001      13.169 -11.142  32.664  0.00  0.00     0.092 C 
ATOM      3  C1  BDP d2001      14.823 -13.005  32.453  0.00  0.00     0.160 C 
ATOM      4  O3  BDP d2001      12.911  -9.722  32.507  0.00  0.00    -0.390 OA
ATOM      5  C2  BDP d2001      14.636 -11.459  32.225  0.00  0.00     0.110 C 
ATOM      6  O4  BDP d2001      10.768 -11.753  32.147  0.00  0.00    -0.348 OA
ATOM      7  C4  BDP d2001      12.176 -11.942  31.740  0.00  0.00     0.103 C 
ATOM      8  O6A BDP d2001      11.997 -15.560  30.926  0.00  0.00    -0.646 OA
ATOM      9  O6B BDP d2001      10.715 -13.771  30.290  0.00  0.00    -0.646 OA
ATOM     10  C6  BDP d2001      11.630 -14.355  30.949  0.00  0.00     0.206 C 
ATOM     11  O2  BDP d2001      15.575 -10.715  33.054  0.00  0.00    -0.388 OA
ATOM     12  O5  BDP d2001      13.881 -13.770  31.641  0.00  0.00    -0.340 OA
ATOM     13  H   BDP d2001      11.942 -13.917  32.686  0.00  0.00     0.104 H 
ATOM     14  H   BDP d2001      13.033 -11.422  33.688  0.00  0.00     0.091 H 
ATOM     15  H   BDP d2001      14.653 -13.165  33.497  0.00  0.00     0.133 H 
ATOM     16  H   BDP d2001      13.035  -9.472  31.578  0.00  0.00     0.210 HD
ATOM     17  H   BDP d2001      14.815 -11.184  31.207  0.00  0.00     0.094 H 
ATOM     18  H   BDP d2001      12.402 -11.549  30.771  0.00  0.00     0.092 H 
ATOM     19  H   BDP d2001      15.436 -10.945  33.986  0.00  0.00     0.210 HD
ATOM     20  C2  NAG d2004       1.789  -8.336  25.708  0.00  0.00     0.087 C 
ATOM     21  O5  NAG d2004       1.112 -10.420  26.905  0.00  0.00    -0.349 OA
ATOM     22  C3  NAG d2004       0.573  -8.457  24.774  0.00  0.00     0.093 C 
ATOM     23  C7  NAG d2004       1.625  -5.944  26.877  0.00  0.00     0.214 C 
ATOM     24  C1  NAG d2004       1.452  -8.971  27.095  0.00  0.00     0.154 C 
ATOM     25  C5  NAG d2004      -0.092 -10.601  26.041  0.00  0.00     0.089 C 
ATOM     26  N2  NAG d2004       2.134  -6.830  25.859  0.00  0.00    -0.349 N 
ATOM     27  C8  NAG d2004       2.150  -4.531  26.730  0.00  0.00    -0.003 C 
ATOM     28  O4  NAG d2004      -0.935 -10.213  23.732  0.00  0.00    -0.390 OA
ATOM     29  O7  NAG d2004       0.837  -6.245  27.796  0.00  0.00    -0.274 OA
ATOM     30  C6  NAG d2004      -0.400 -12.106  25.926  0.00  0.00     0.043 C 
ATOM     31  O3  NAG d2004       0.926  -7.864  23.467  0.00  0.00    -0.348 OA
ATOM     32  C4  NAG d2004       0.238  -9.999  24.605  0.00  0.00     0.089 C 
ATOM     33  O6  NAG d2004      -0.337 -12.608  24.573  0.00  0.00    -0.398 OA
ATOM     34  H   NAG d2004       2.631  -8.857  25.302  0.00  0.00     0.084 H 
ATOM     35  H   NAG d2004      -0.278  -7.946  25.173  0.00  0.00     0.091 H 
ATOM     36  H   NAG d2004       0.627  -8.495  27.583  0.00  0.00     0.132 H 
ATOM     37  H   NAG d2004      -0.942 -10.102  26.457  0.00  0.00     0.090 H 
ATOM     38  H   NAG d2004       2.756  -6.445  25.201  0.00  0.00     0.163 HD
ATOM     39  H   NAG d2004       2.807  -4.481  25.887  0.00  0.00     0.040 H 
ATOM     40  H   NAG d2004       2.684  -4.255  27.615  0.00  0.00     0.040 H 
ATOM     41  H   NAG d2004       1.330  -3.859  26.584  0.00  0.00     0.040 H 
ATOM     42  H   NAG d2004      -0.752  -9.852  22.851  0.00  0.00     0.210 HD
ATOM     43  H   NAG d2004      -1.385 -12.280  26.305  0.00  0.00     0.078 H 
ATOM     44  H   NAG d2004       0.350 -12.623  26.488  0.00  0.00     0.078 H 
ATOM     45  H   NAG d2004       1.083 -10.479  24.158  0.00  0.00     0.091 H 
ATOM     46  H   NAG d2004      -1.005 -12.161  24.031  0.00  0.00     0.209 HD
ATOM     47  O3  NAG d2000      16.118 -13.448  32.110  0.00  0.00    -0.348 OA
ATOM     48  C6  NAG d2000      16.849 -18.434  31.428  0.00  0.00     0.043 C 
ATOM     49  C5  NAG d2000      16.955 -17.212  32.384  0.00  0.00     0.089 C 
ATOM     50  O7  NAG d2000      18.616 -11.659  32.530  0.00  0.00    -0.274 OA
ATOM     51  C1  NAG d2000      18.584 -15.887  33.735  0.00  0.00     0.151 C 
ATOM     52  N2  NAG d2000      18.311 -13.409  34.092  0.00  0.00    -0.349 N 
ATOM     53  O4  NAG d2000      15.028 -16.071  31.361  0.00  0.00    -0.390 OA
ATOM     54  C2  NAG d2000      18.112 -14.542  33.092  0.00  0.00     0.087 C 
ATOM     55  C7  NAG d2000      18.543 -12.071  33.705  0.00  0.00     0.214 C 
ATOM     56  O5  NAG d2000      18.393 -17.056  32.775  0.00  0.00    -0.349 OA
ATOM     57  O6  NAG d2000      16.331 -19.635  32.074  0.00  0.00    -0.398 OA
ATOM     58  C8  NAG d2000      18.689 -11.146  34.888  0.00  0.00    -0.003 C 
ATOM     59  O1  NAG d2000      19.962 -15.807  34.060  0.00  0.00    -0.369 OA
ATOM     60  C3  NAG d2000      16.593 -14.687  32.737  0.00  0.00     0.093 C 
ATOM     61  C4  NAG d2000      16.428 -15.873  31.714  0.00  0.00     0.089 C 
ATOM     62  H   NAG d2000      17.824 -18.650  31.044  0.00  0.00     0.078 H 
ATOM     63  H   NAG d2000      16.158 -18.170  30.655  0.00  0.00     0.078 H 
ATOM     64  H   NAG d2000      16.338 -17.391  33.240  0.00  0.00     0.090 H 
ATOM     65  H   NAG d2000      17.995 -16.049  34.613  0.00  0.00     0.132 H 
ATOM     66  H   NAG d2000      18.276 -13.620  35.053  0.00  0.00     0.163 HD
ATOM     67  H   NAG d2000      14.954 -16.805  30.731  0.00  0.00     0.210 HD
ATOM     68  H   NAG d2000      18.676 -14.322  32.210  0.00  0.00     0.084 H 
ATOM     69  H   NAG d2000      16.934 -19.906  32.784  0.00  0.00     0.209 HD
ATOM     70  H   NAG d2000      18.863 -10.149  34.542  0.00  0.00     0.040 H 
ATOM     71  H   NAG d2000      19.515 -11.464  35.489  0.00  0.00     0.040 H 
ATOM     72  H   NAG d2000      17.793 -11.170  35.472  0.00  0.00     0.040 H 
ATOM     73  H   NAG d2000      20.477 -15.660  33.251  0.00  0.00     0.212 HD
ATOM     74  H   NAG d2000      16.028 -14.879  33.625  0.00  0.00     0.091 H 
ATOM     75  H   NAG d2000      16.985 -15.632  30.832  0.00  0.00     0.091 H 
ATOM     76  C2  BDP d2005       0.507  -6.902  21.379  0.00  0.00     0.114 C 
ATOM     77  C3  BDP d2005      -0.705  -6.525  20.514  0.00  0.00     0.125 C 
ATOM     78  O2  BDP d2005       1.318  -5.791  21.734  0.00  0.00    -0.388 OA
ATOM     79  O6A BDP d2005      -2.413 -10.054  20.066  0.00  0.00    -0.646 OA
ATOM     80  O6B BDP d2005      -3.642  -9.638  21.986  0.00  0.00    -0.646 OA
ATOM     81  C6  BDP d2005      -2.784  -9.373  21.081  0.00  0.00     0.211 C 
ATOM     82  O3  BDP d2005      -0.193  -6.084  19.210  0.00  0.00    -0.385 OA
ATOM     83  C5  BDP d2005      -2.096  -8.135  21.289  0.00  0.00     0.184 C 
ATOM     84  C4  BDP d2005      -2.030  -7.153  20.366  0.00  0.00     0.197 C 
ATOM     85  C1  BDP d2005      -0.110  -7.440  22.615  0.00  0.00     0.160 C 
ATOM     86  O4  BDP d2005      -2.617  -7.244  19.466  0.00  0.00    -0.292 OA
ATOM     87  O5  BDP d2005      -0.946  -8.523  22.189  0.00  0.00    -0.335 OA
ATOM     88  H   BDP d2005       1.150  -7.575  20.852  0.00  0.00     0.095 H 
ATOM     89  H   BDP d2005      -1.122  -5.877  21.256  0.00  0.00     0.099 H 
ATOM     90  H   BDP d2005       0.784  -5.142  22.219  0.00  0.00     0.210 HD
ATOM     91  H   BDP d2005       0.132  -6.852  18.714  0.00  0.00     0.210 HD
ATOM     92  H   BDP d2005      -2.721  -7.388  21.732  0.00  0.00     0.113 H 
ATOM     93  H   BDP d2005      -0.696  -6.726  23.155  0.00  0.00     0.133 H 
ATOM     94  C5  BDP d2003       4.653  -8.801  28.858  0.00  0.00     0.152 C 
ATOM     95  O6B BDP d2003       4.827  -6.597  28.958  0.00  0.00    -0.646 OA
ATOM     96  C2  BDP d2003       3.694 -10.401  31.332  0.00  0.00     0.110 C 
ATOM     97  C1  BDP d2003       5.207 -10.217  30.946  0.00  0.00     0.160 C 
ATOM     98  C4  BDP d2003       3.137  -9.160  29.197  0.00  0.00     0.103 C 
ATOM     99  C3  BDP d2003       2.932 -10.545  29.945  0.00  0.00     0.092 C 
ATOM    100  C6  BDP d2003       4.950  -7.640  28.245  0.00  0.00     0.206 C 
ATOM    101  O6A BDP d2003       5.268  -7.773  27.043  0.00  0.00    -0.646 OA
ATOM    102  O2  BDP d2003       3.569 -11.609  32.120  0.00  0.00    -0.388 OA
ATOM    103  O5  BDP d2003       5.394  -9.035  30.142  0.00  0.00    -0.340 OA
ATOM    104  O3  BDP d2003       1.532 -10.750  30.216  0.00  0.00    -0.390 OA
ATOM    105  O4  BDP d2003       2.656  -8.869  27.821  0.00  0.00    -0.348 OA
ATOM    106  H   BDP d2003       4.964  -9.434  28.053  0.00  0.00     0.104 H 
ATOM    107  H   BDP d2003       3.297  -9.591  31.907  0.00  0.00     0.094 H 
ATOM    108  H   BDP d2003       5.415 -11.140  30.447  0.00  0.00     0.133 H 
ATOM    109  H   BDP d2003       2.574  -8.650  29.951  0.00  0.00     0.092 H 
ATOM    110  H   BDP d2003       3.294 -11.363  29.357  0.00  0.00     0.091 H 
ATOM    111  H   BDP d2003       3.923 -12.360  31.619  0.00  0.00     0.210 HD
ATOM    112  H   BDP d2003       1.194 -10.013  30.749  0.00  0.00     0.210 HD
ATOM    113  C5  NAG d2002       9.530  -8.516  30.803  0.00  0.00     0.089 C 
ATOM    114  C2  NAG d2002       8.458 -10.940  32.182  0.00  0.00     0.087 C 
ATOM    115  N2  NAG d2002       7.864 -12.335  32.155  0.00  0.00    -0.349 N 
ATOM    116  C7  NAG d2002       7.197 -12.844  33.290  0.00  0.00     0.214 C 
ATOM    117  O3  NAG d2002       6.133 -10.059  32.019  0.00  0.00    -0.348 OA
ATOM    118  C8  NAG d2002       6.650 -14.218  33.062  0.00  0.00    -0.003 C 
ATOM    119  O4  NAG d2002       7.260  -7.578  30.771  0.00  0.00    -0.390 OA
ATOM    120  O5  NAG d2002      10.432  -9.471  31.498  0.00  0.00    -0.349 OA
ATOM    121  C4  NAG d2002       8.098  -8.520  31.484  0.00  0.00     0.089 C 
ATOM    122  C3  NAG d2002       7.511  -9.982  31.424  0.00  0.00     0.093 C 
ATOM    123  C1  NAG d2002       9.871 -10.885  31.481  0.00  0.00     0.154 C 
ATOM    124  O6  NAG d2002      10.094  -6.495  32.134  0.00  0.00    -0.398 OA
ATOM    125  O7  NAG d2002       7.047 -12.250  34.360  0.00  0.00    -0.274 OA
ATOM    126  C6  NAG d2002      10.188  -7.130  30.842  0.00  0.00     0.043 C 
ATOM    127  H   NAG d2002       9.383  -8.801  29.782  0.00  0.00     0.090 H 
ATOM    128  H   NAG d2002       8.575 -10.655  33.206  0.00  0.00     0.084 H 
ATOM    129  H   NAG d2002       7.944 -12.887  31.344  0.00  0.00     0.163 HD
ATOM    130  H   NAG d2002       6.895 -14.540  32.071  0.00  0.00     0.040 H 
ATOM    131  H   NAG d2002       5.587 -14.203  33.179  0.00  0.00     0.040 H 
ATOM    132  H   NAG d2002       7.077 -14.895  33.772  0.00  0.00     0.040 H 
ATOM    133  H   NAG d2002       7.649  -6.691  30.828  0.00  0.00     0.210 HD
ATOM    134  H   NAG d2002       8.149  -8.226  32.512  0.00  0.00     0.091 H 
ATOM    135  H   NAG d2002       7.435 -10.267  30.395  0.00  0.00     0.091 H 
ATOM    136  H   NAG d2002       9.753 -11.194  30.463  0.00  0.00     0.132 H 
ATOM    137  H   NAG d2002      10.525  -5.627  32.099  0.00  0.00     0.209 HD
ATOM    138  H   NAG d2002       9.707  -6.504  30.119  0.00  0.00     0.078 H 
ATOM    139  H   NAG d2002      11.228  -7.264  30.627  0.00  0.00     0.078 H 
ENDROOT
TORSDOF 35
