MODEL 1
REMARK VINA RESULT:     -14.7      0.000      0.000
REMARK  0 active torsions:
REMARK  status: ('A' for Active; 'I' for Inactive)
REMARK       I    between atoms: C5_1  and  C6_10 
REMARK       I    between atoms: S2_2  and  O6_59 
REMARK       I    between atoms: O3_3  and  C3_61 
REMARK       I    between atoms: C5_5  and  C6_35 
REMARK       I    between atoms: C2_6  and  N_67 
REMARK       I    between atoms: C4_9  and  O4_55 
REMARK       I    between atoms: C1_11  and  O1_63 
REMARK       I    between atoms: C1_12  and  O4_30 
REMARK       I    between atoms: O1S_13  and  S1_24 
REMARK       I    between atoms: C3_14  and  O3_18 
REMARK       I    between atoms: C1_16  and  O4_29 
REMARK       I    between atoms: C2_19  and  O2_41 
REMARK       I    between atoms: C1_20  and  O4_38 
REMARK       I    between atoms: S2_21  and  O6_47 
REMARK       I    between atoms: O3_23  and  C3_58 
REMARK       I    between atoms: S1_24  and  N_33 
REMARK       I    between atoms: S1_24  and  O2S_37 
REMARK       I    between atoms: S1_24  and  O3S_34 
REMARK       I    between atoms: C4_25  and  O4_30 
REMARK       I    between atoms: C5_28  and  C6_56 
REMARK       I    between atoms: O4_29  and  C4_65 
REMARK       I    between atoms: S_31  and  O2_60 
REMARK       I    between atoms: C2_32  and  O2_60 
REMARK       I    between atoms: N_33  and  C2_46 
REMARK       I    between atoms: C6_35  and  O6_47 
REMARK       I    between atoms: C5_36  and  C6_40 
REMARK       I    between atoms: O4_38  and  C4_45 
REMARK       I    between atoms: C6_40  and  O6_59 
REMARK       I    between atoms: O2_41  and  S_54 
REMARK       I    between atoms: O1S_42  and  S1_53 
REMARK       I    between atoms: O3_43  and  C3_44 
REMARK       I    between atoms: O3S_50  and  S1_53 
REMARK       I    between atoms: O2S_52  and  S1_53 
REMARK       I    between atoms: S1_53  and  N_67 
ROOT
ATOM      1  C5  IDS d   1      26.335 -35.518  34.724  0.00  0.00     0.152 C 
ATOM      2  O2S IDS d   1      21.644 -33.467  33.011  0.00  0.00    -0.572 OA
ATOM      3  C4  IDS d   1      25.166 -34.650  35.202  0.00  0.00     0.097 C 
ATOM      4  C6  IDS d   1      27.661 -34.799  34.997  0.00  0.00     0.206 C 
ATOM      5  C2  IDS d   1      23.801 -35.620  33.340  0.00  0.00     0.134 C 
ATOM      6  C1  IDS d   1      25.023 -36.464  32.961  0.00  0.00     0.161 C 
ATOM      7  O61 IDS d   1      28.510 -34.761  34.078  0.00  0.00    -0.646 OA
ATOM      8  O3S IDS d   1      21.926 -35.370  31.504  0.00  0.00    -0.572 OA
ATOM      9  O2  IDS d   1      23.823 -34.395  32.598  0.00  0.00    -0.244 OA
ATOM     10  O3  IDS d   1      23.610 -36.484  35.596  0.00  0.00    -0.390 OA
ATOM     11  C3  IDS d   1      23.826 -35.292  34.834  0.00  0.00     0.094 C 
ATOM     12  O62 IDS d   1      27.844 -34.307  36.129  0.00  0.00    -0.646 OA
ATOM     13  S   IDS d   1      22.554 -34.104  32.004  0.00  0.00     0.252 S 
ATOM     14  O4  IDS d   1      25.255 -33.340  34.632  0.00  0.00    -0.390 OA
ATOM     15  O5  IDS d   1      26.236 -35.775  33.314  0.00  0.00    -0.340 OA
ATOM     16  O1S IDS d   1      22.753 -33.165  30.852  0.00  0.00    -0.572 OA
ATOM     17  H   IDS d   1      26.299 -36.445  35.257  0.00  0.00     0.104 H 
ATOM     18  H   IDS d   1      25.222 -34.572  36.267  0.00  0.00     0.091 H 
ATOM     19  H   IDS d   1      22.915 -36.175  33.114  0.00  0.00     0.097 H 
ATOM     20  H   IDS d   1      24.993 -36.619  31.903  0.00  0.00     0.133 H 
ATOM     21  H   IDS d   1      23.626 -36.271  36.542  0.00  0.00     0.210 HD
ATOM     22  H   IDS d   1      23.043 -34.598  35.059  0.00  0.00     0.091 H 
ATOM     23  H   IDS d   1      25.205 -33.404  33.666  0.00  0.00     0.210 HD
ATOM     24  S2  SGN d   2      25.663 -38.016  29.116  0.00  0.00     0.251 S 
ATOM     25  C2  SGN d   2      27.678 -40.284  34.145  0.00  0.00     0.081 C 
ATOM     26  O5S SGN d   2      26.891 -37.286  28.663  0.00  0.00    -0.572 OA
ATOM     27  O4S SGN d   2      24.549 -37.033  29.328  0.00  0.00    -0.572 OA
ATOM     28  C3  SGN d   2      26.669 -39.197  34.524  0.00  0.00     0.083 C 
ATOM     29  C1  SGN d   2      27.013 -41.378  33.306  0.00  0.00     0.150 C 
ATOM     30  O3  SGN d   2      27.355 -38.132  35.187  0.00  0.00    -0.391 OA
ATOM     31  C5  SGN d   2      25.400 -39.812  32.439  0.00  0.00     0.091 C 
ATOM     32  O4  SGN d   2      24.998 -37.712  33.599  0.00  0.00    -0.348 OA
ATOM     33  C6  SGN d   2      24.865 -39.256  31.115  0.00  0.00     0.067 C 
ATOM     34  O1S SGN d   2      30.649 -40.150  34.648  0.00  0.00    -0.296 OA
ATOM     35  C4  SGN d   2      26.008 -38.665  33.252  0.00  0.00     0.095 C 
ATOM     36  O6S SGN d   2      25.261 -39.007  28.064  0.00  0.00    -0.572 OA
ATOM     37  O3S SGN d   2      29.823 -42.367  33.978  0.00  0.00    -0.296 OA
ATOM     38  O2S SGN d   2      30.401 -41.918  36.316  0.00  0.00    -0.296 OA
ATOM     39  S1  SGN d   2      29.820 -41.330  35.063  0.00  0.00     0.156 S 
ATOM     40  O6  SGN d   2      25.933 -38.697  30.344  0.00  0.00    -0.254 OA
ATOM     41  N   SGN d   2      28.290 -40.850  35.356  0.00  0.00    -0.210 NA
ATOM     42  O5  SGN d   2      26.412 -40.788  32.141  0.00  0.00    -0.349 OA
ATOM     43  H   SGN d   2      28.448 -39.840  33.549  0.00  0.00     0.076 H 
ATOM     44  H   SGN d   2      25.923 -39.602  35.176  0.00  0.00     0.089 H 
ATOM     45  H   SGN d   2      27.763 -42.085  33.020  0.00  0.00     0.131 H 
ATOM     46  H   SGN d   2      28.031 -37.765  34.596  0.00  0.00     0.210 HD
ATOM     47  H   SGN d   2      24.613 -40.264  33.005  0.00  0.00     0.090 H 
ATOM     48  H   SGN d   2      24.141 -38.496  31.319  0.00  0.00     0.080 H 
ATOM     49  H   SGN d   2      24.415 -40.052  30.560  0.00  0.00     0.080 H 
ATOM     50  H   SGN d   2      31.558 -40.439  34.475  0.00  0.00     0.231 HD
ATOM     51  H   SGN d   2      26.753 -38.188  32.649  0.00  0.00     0.091 H 
ATOM     52  H   SGN d   2      30.734 -42.651  33.804  0.00  0.00     0.231 HD
ATOM     53  H   SGN d   2      31.312 -42.204  36.146  0.00  0.00     0.231 HD
ATOM     54  H   SGN d   2      27.741 -41.654  35.664  0.00  0.00     0.140 HD
ATOM     55  O3  SGN d   4      21.767 -45.759  33.838  0.00  0.00    -0.391 OA
ATOM     56  C5  SGN d   4      22.996 -47.343  37.019  0.00  0.00     0.091 C 
ATOM     57  C1  SGN d   4      20.927 -48.369  36.428  0.00  0.00     0.147 C 
ATOM     58  O1S SGN d   4      18.036 -46.270  34.670  0.00  0.00    -0.296 OA
ATOM     59  S2  SGN d   4      24.406 -47.310  40.512  0.00  0.00     0.251 S 
ATOM     60  S1  SGN d   4      18.321 -47.736  34.518  0.00  0.00     0.156 S 
ATOM     61  C4  SGN d   4      22.852 -46.274  35.933  0.00  0.00     0.095 C 
ATOM     62  O6S SGN d   4      25.287 -48.399  41.051  0.00  0.00    -0.572 OA
ATOM     63  O4  SGN d   4      24.142 -45.864  35.469  0.00  0.00    -0.348 OA
ATOM     64  N   SGN d   4      19.911 -47.947  34.226  0.00  0.00    -0.210 NA
ATOM     65  O3S SGN d   4      17.941 -48.455  35.778  0.00  0.00    -0.296 OA
ATOM     66  C6  SGN d   4      23.762 -46.743  38.198  0.00  0.00     0.067 C 
ATOM     67  O2S SGN d   4      17.532 -48.280  33.363  0.00  0.00    -0.296 OA
ATOM     68  C2  SGN d   4      20.700 -47.349  35.312  0.00  0.00     0.081 C 
ATOM     69  O6  SGN d   4      23.894 -47.712  39.239  0.00  0.00    -0.254 OA
ATOM     70  O4S SGN d   4      25.201 -46.048  40.355  0.00  0.00    -0.572 OA
ATOM     71  C3  SGN d   4      22.027 -46.818  34.765  0.00  0.00     0.083 C 
ATOM     72  O1  SGN d   4      21.619 -49.517  35.928  0.00  0.00    -0.369 OA
ATOM     73  O5  SGN d   4      21.694 -47.750  37.473  0.00  0.00    -0.350 OA
ATOM     74  O5S SGN d   4      23.271 -47.060  41.461  0.00  0.00    -0.572 OA
ATOM     75  H   SGN d   4      22.606 -45.420  33.490  0.00  0.00     0.210 HD
ATOM     76  H   SGN d   4      23.519 -48.189  36.623  0.00  0.00     0.090 H 
ATOM     77  H   SGN d   4      19.982 -48.691  36.812  0.00  0.00     0.131 H 
ATOM     78  H   SGN d   4      18.283 -45.806  33.854  0.00  0.00     0.231 HD
ATOM     79  H   SGN d   4      22.348 -45.428  36.350  0.00  0.00     0.091 H 
ATOM     80  H   SGN d   4      20.156 -47.500  33.343  0.00  0.00     0.140 HD
ATOM     81  H   SGN d   4      18.454 -48.100  36.521  0.00  0.00     0.231 HD
ATOM     82  H   SGN d   4      23.229 -45.893  38.570  0.00  0.00     0.080 H 
ATOM     83  H   SGN d   4      24.736 -46.446  37.869  0.00  0.00     0.080 H 
ATOM     84  H   SGN d   4      17.782 -47.812  32.551  0.00  0.00     0.231 HD
ATOM     85  H   SGN d   4      20.158 -46.524  35.726  0.00  0.00     0.076 H 
ATOM     86  H   SGN d   4      22.561 -47.602  34.269  0.00  0.00     0.089 H 
ATOM     87  H   SGN d   4      22.481 -49.246  35.574  0.00  0.00     0.212 HD
ATOM     88  C1  IDS d   3      24.588 -44.627  35.938  0.00  0.00     0.161 C 
ATOM     89  O61 IDS d   3      22.767 -41.704  33.862  0.00  0.00    -0.646 OA
ATOM     90  O3S IDS d   3      27.050 -42.198  38.511  0.00  0.00    -0.572 OA
ATOM     91  O3  IDS d   3      26.298 -45.687  33.705  0.00  0.00    -0.390 OA
ATOM     92  C5  IDS d   3      24.192 -43.612  33.819  0.00  0.00     0.152 C 
ATOM     93  O4  IDS d   3      26.038 -42.040  34.034  0.00  0.00    -0.348 OA
ATOM     94  S   IDS d   3      27.008 -43.500  37.767  0.00  0.00     0.252 S 
ATOM     95  C2  IDS d   3      26.105 -44.475  35.795  0.00  0.00     0.134 C 
ATOM     96  O2S IDS d   3      26.120 -44.444  38.521  0.00  0.00    -0.572 OA
ATOM     97  O5  IDS d   3      23.910 -43.579  35.227  0.00  0.00    -0.340 OA
ATOM     98  C6  IDS d   3      23.347 -42.534  33.136  0.00  0.00     0.206 C 
ATOM     99  C3  IDS d   3      26.504 -44.412  34.319  0.00  0.00     0.094 C 
ATOM    100  O2  IDS d   3      26.499 -43.264  36.451  0.00  0.00    -0.244 OA
ATOM    101  C4  IDS d   3      25.680 -43.350  33.585  0.00  0.00     0.103 C 
ATOM    102  O62 IDS d   3      23.280 -42.553  31.885  0.00  0.00    -0.646 OA
ATOM    103  O1S IDS d   3      28.392 -44.072  37.665  0.00  0.00    -0.572 OA
ATOM    104  H   IDS d   3      24.362 -44.563  36.982  0.00  0.00     0.133 H 
ATOM    105  H   IDS d   3      26.821 -46.359  34.171  0.00  0.00     0.210 HD
ATOM    106  H   IDS d   3      23.952 -44.572  33.413  0.00  0.00     0.104 H 
ATOM    107  H   IDS d   3      26.593 -45.317  36.238  0.00  0.00     0.097 H 
ATOM    108  H   IDS d   3      27.539 -44.148  34.258  0.00  0.00     0.091 H 
ATOM    109  H   IDS d   3      25.884 -43.406  32.536  0.00  0.00     0.092 H 
ENDROOT
TORSDOF 34
ENDMDL
MODEL 2
REMARK VINA RESULT:     -11.7      3.096      4.526
REMARK  0 active torsions:
REMARK  status: ('A' for Active; 'I' for Inactive)
REMARK       I    between atoms: C5_1  and  C6_10 
REMARK       I    between atoms: S2_2  and  O6_59 
REMARK       I    between atoms: O3_3  and  C3_61 
REMARK       I    between atoms: C5_5  and  C6_35 
REMARK       I    between atoms: C2_6  and  N_67 
REMARK       I    between atoms: C4_9  and  O4_55 
REMARK       I    between atoms: C1_11  and  O1_63 
REMARK       I    between atoms: C1_12  and  O4_30 
REMARK       I    between atoms: O1S_13  and  S1_24 
REMARK       I    between atoms: C3_14  and  O3_18 
REMARK       I    between atoms: C1_16  and  O4_29 
REMARK       I    between atoms: C2_19  and  O2_41 
REMARK       I    between atoms: C1_20  and  O4_38 
REMARK       I    between atoms: S2_21  and  O6_47 
REMARK       I    between atoms: O3_23  and  C3_58 
REMARK       I    between atoms: S1_24  and  N_33 
REMARK       I    between atoms: S1_24  and  O2S_37 
REMARK       I    between atoms: S1_24  and  O3S_34 
REMARK       I    between atoms: C4_25  and  O4_30 
REMARK       I    between atoms: C5_28  and  C6_56 
REMARK       I    between atoms: O4_29  and  C4_65 
REMARK       I    between atoms: S_31  and  O2_60 
REMARK       I    between atoms: C2_32  and  O2_60 
REMARK       I    between atoms: N_33  and  C2_46 
REMARK       I    between atoms: C6_35  and  O6_47 
REMARK       I    between atoms: C5_36  and  C6_40 
REMARK       I    between atoms: O4_38  and  C4_45 
REMARK       I    between atoms: C6_40  and  O6_59 
REMARK       I    between atoms: O2_41  and  S_54 
REMARK       I    between atoms: O1S_42  and  S1_53 
REMARK       I    between atoms: O3_43  and  C3_44 
REMARK       I    between atoms: O3S_50  and  S1_53 
REMARK       I    between atoms: O2S_52  and  S1_53 
REMARK       I    between atoms: S1_53  and  N_67 
ROOT
ATOM      1  C5  IDS d   1      21.159 -34.673  31.914  0.00  0.00     0.152 C 
ATOM      2  O2S IDS d   1      17.537 -35.878  28.096  0.00  0.00    -0.572 OA
ATOM      3  C4  IDS d   1      19.647 -34.803  31.701  0.00  0.00     0.097 C 
ATOM      4  C6  IDS d   1      21.480 -33.314  32.546  0.00  0.00     0.206 C 
ATOM      5  C2  IDS d   1      20.141 -36.199  29.682  0.00  0.00     0.134 C 
ATOM      6  C1  IDS d   1      21.631 -36.028  29.999  0.00  0.00     0.161 C 
ATOM      7  O61 IDS d   1      22.417 -32.644  32.056  0.00  0.00    -0.646 OA
ATOM      8  O3S IDS d   1      19.541 -36.986  27.239  0.00  0.00    -0.572 OA
ATOM      9  O2  IDS d   1      19.728 -35.163  28.784  0.00  0.00    -0.244 OA
ATOM     10  O3  IDS d   1      19.568 -37.237  31.795  0.00  0.00    -0.390 OA
ATOM     11  C3  IDS d   1      19.311 -36.101  30.963  0.00  0.00     0.094 C 
ATOM     12  O62 IDS d   1      20.812 -32.949  33.534  0.00  0.00    -0.646 OA
ATOM     13  S   IDS d   1      18.966 -35.676  27.686  0.00  0.00     0.252 S 
ATOM     14  O4  IDS d   1      19.152 -33.679  30.967  0.00  0.00    -0.390 OA
ATOM     15  O5  IDS d   1      21.860 -34.773  30.664  0.00  0.00    -0.340 OA
ATOM     16  O1S IDS d   1      19.021 -34.700  26.548  0.00  0.00    -0.572 OA
ATOM     17  H   IDS d   1      21.472 -35.466  32.561  0.00  0.00     0.104 H 
ATOM     18  H   IDS d   1      19.176 -34.828  32.660  0.00  0.00     0.091 H 
ATOM     19  H   IDS d   1      19.992 -37.159  29.236  0.00  0.00     0.097 H 
ATOM     20  H   IDS d   1      22.163 -36.047  29.072  0.00  0.00     0.133 H 
ATOM     21  H   IDS d   1      19.039 -37.171  32.605  0.00  0.00     0.210 HD
ATOM     22  H   IDS d   1      18.270 -36.090  30.713  0.00  0.00     0.091 H 
ATOM     23  H   IDS d   1      19.575 -33.650  30.095  0.00  0.00     0.210 HD
ATOM     24  S2  SGN d   2      24.667 -36.377  27.125  0.00  0.00     0.251 S 
ATOM     25  C2  SGN d   2      25.214 -37.407  32.881  0.00  0.00     0.081 C 
ATOM     26  O5S SGN d   2      25.230 -34.989  27.066  0.00  0.00    -0.572 OA
ATOM     27  O4S SGN d   2      23.236 -36.353  26.674  0.00  0.00    -0.572 OA
ATOM     28  C3  SGN d   2      23.717 -37.257  32.601  0.00  0.00     0.083 C 
ATOM     29  C1  SGN d   2      25.805 -38.572  32.082  0.00  0.00     0.150 C 
ATOM     30  O3  SGN d   2      23.233 -36.081  33.256  0.00  0.00    -0.391 OA
ATOM     31  C5  SGN d   2      24.154 -38.294  30.349  0.00  0.00     0.091 C 
ATOM     32  O4  SGN d   2      22.102 -37.072  30.808  0.00  0.00    -0.348 OA
ATOM     33  C6  SGN d   2      24.032 -38.058  28.841  0.00  0.00     0.067 C 
ATOM     34  O1S SGN d   2      26.883 -35.482  34.494  0.00  0.00    -0.296 OA
ATOM     35  C4  SGN d   2      23.504 -37.124  31.092  0.00  0.00     0.095 C 
ATOM     36  O6S SGN d   2      25.461 -37.272  26.220  0.00  0.00    -0.572 OA
ATOM     37  O3S SGN d   2      27.981 -37.626  34.005  0.00  0.00    -0.296 OA
ATOM     38  O2S SGN d   2      27.078 -37.181  36.238  0.00  0.00    -0.296 OA
ATOM     39  S1  SGN d   2      26.876 -36.956  34.768  0.00  0.00     0.156 S 
ATOM     40  O6  SGN d   2      24.731 -36.866  28.467  0.00  0.00    -0.254 OA
ATOM     41  N   SGN d   2      25.442 -37.591  34.322  0.00  0.00    -0.210 NA
ATOM     42  O5  SGN d   2      25.550 -38.368  30.682  0.00  0.00    -0.349 OA
ATOM     43  H   SGN d   2      25.710 -36.513  32.568  0.00  0.00     0.076 H 
ATOM     44  H   SGN d   2      23.189 -38.113  32.965  0.00  0.00     0.089 H 
ATOM     45  H   SGN d   2      26.859 -38.606  32.267  0.00  0.00     0.131 H 
ATOM     46  H   SGN d   2      23.713 -35.306  32.926  0.00  0.00     0.210 HD
ATOM     47  H   SGN d   2      23.664 -39.204  30.630  0.00  0.00     0.090 H 
ATOM     48  H   SGN d   2      22.999 -37.957  28.582  0.00  0.00     0.080 H 
ATOM     49  H   SGN d   2      24.460 -38.890  28.322  0.00  0.00     0.080 H 
ATOM     50  H   SGN d   2      27.737 -35.108  34.760  0.00  0.00     0.231 HD
ATOM     51  H   SGN d   2      23.966 -36.219  30.756  0.00  0.00     0.091 H 
ATOM     52  H   SGN d   2      28.834 -37.247  34.271  0.00  0.00     0.231 HD
ATOM     53  H   SGN d   2      27.931 -36.804  36.508  0.00  0.00     0.231 HD
ATOM     54  H   SGN d   2      25.436 -38.589  34.537  0.00  0.00     0.140 HD
ATOM     55  O3  SGN d   4      24.779 -45.308  31.328  0.00  0.00    -0.391 OA
ATOM     56  C5  SGN d   4      25.186 -46.102  34.981  0.00  0.00     0.091 C 
ATOM     57  C1  SGN d   4      24.698 -48.131  33.828  0.00  0.00     0.147 C 
ATOM     58  O1S SGN d   4      22.259 -48.154  30.680  0.00  0.00    -0.296 OA
ATOM     59  S2  SGN d   4      24.589 -45.580  38.663  0.00  0.00     0.251 S 
ATOM     60  S1  SGN d   4      23.410 -49.080  30.950  0.00  0.00     0.156 S 
ATOM     61  C4  SGN d   4      24.907 -45.252  33.739  0.00  0.00     0.095 C 
ATOM     62  O6S SGN d   4      25.606 -45.917  39.714  0.00  0.00    -0.572 OA
ATOM     63  O4  SGN d   4      25.711 -44.069  33.759  0.00  0.00    -0.348 OA
ATOM     64  N   SGN d   4      24.719 -48.202  31.367  0.00  0.00    -0.210 NA
ATOM     65  O3S SGN d   4      23.053 -50.014  32.068  0.00  0.00    -0.296 OA
ATOM     66  C6  SGN d   4      24.817 -45.292  36.222  0.00  0.00     0.067 C 
ATOM     67  O2S SGN d   4      23.719 -49.865  29.709  0.00  0.00    -0.296 OA
ATOM     68  C2  SGN d   4      24.406 -47.367  32.535  0.00  0.00     0.081 C 
ATOM     69  O6  SGN d   4      25.047 -46.067  37.399  0.00  0.00    -0.254 OA
ATOM     70  O4S SGN d   4      24.412 -44.092  38.590  0.00  0.00    -0.572 OA
ATOM     71  C3  SGN d   4      25.197 -46.058  32.472  0.00  0.00     0.083 C 
ATOM     72  O1  SGN d   4      26.074 -48.515  33.885  0.00  0.00    -0.369 OA
ATOM     73  O5  SGN d   4      24.375 -47.289  34.947  0.00  0.00    -0.350 OA
ATOM     74  O5S SGN d   4      23.274 -46.214  39.008  0.00  0.00    -0.572 OA
ATOM     75  H   SGN d   4      25.278 -44.477  31.285  0.00  0.00     0.210 HD
ATOM     76  H   SGN d   4      26.221 -46.374  35.004  0.00  0.00     0.090 H 
ATOM     77  H   SGN d   4      24.103 -49.019  33.857  0.00  0.00     0.131 H 
ATOM     78  H   SGN d   4      22.492 -47.551  29.957  0.00  0.00     0.231 HD
ATOM     79  H   SGN d   4      23.875 -44.971  33.742  0.00  0.00     0.091 H 
ATOM     80  H   SGN d   4      24.989 -47.605  30.586  0.00  0.00     0.140 HD
ATOM     81  H   SGN d   4      22.855 -49.501  32.867  0.00  0.00     0.231 HD
ATOM     82  H   SGN d   4      23.783 -45.020  36.173  0.00  0.00     0.080 H 
ATOM     83  H   SGN d   4      25.423 -44.410  36.260  0.00  0.00     0.080 H 
ATOM     84  H   SGN d   4      23.950 -49.256  28.989  0.00  0.00     0.231 HD
ATOM     85  H   SGN d   4      23.364 -47.126  32.525  0.00  0.00     0.076 H 
ATOM     86  H   SGN d   4      26.245 -46.264  32.398  0.00  0.00     0.089 H 
ATOM     87  H   SGN d   4      26.633 -47.722  33.860  0.00  0.00     0.212 HD
ATOM     88  C1  IDS d   3      25.047 -42.893  34.111  0.00  0.00     0.161 C 
ATOM     89  O61 IDS d   3      22.951 -41.572  30.944  0.00  0.00    -0.646 OA
ATOM     90  O3S IDS d   3      24.080 -39.764  36.915  0.00  0.00    -0.572 OA
ATOM     91  O3  IDS d   3      27.794 -42.369  33.009  0.00  0.00    -0.390 OA
ATOM     92  C5  IDS d   3      25.080 -42.126  31.856  0.00  0.00     0.152 C 
ATOM     93  O4  IDS d   3      25.249 -39.778  32.475  0.00  0.00    -0.348 OA
ATOM     94  S   IDS d   3      25.171 -40.704  36.492  0.00  0.00     0.252 S 
ATOM     95  C2  IDS d   3      26.021 -41.799  34.560  0.00  0.00     0.134 C 
ATOM     96  O2S IDS d   3      24.834 -42.075  36.999  0.00  0.00    -0.572 OA
ATOM     97  O5  IDS d   3      24.265 -42.438  32.995  0.00  0.00    -0.340 OA
ATOM     98  C6  IDS d   3      24.156 -41.758  30.692  0.00  0.00     0.206 C 
ATOM     99  C3  IDS d   3      26.885 -41.332  33.387  0.00  0.00     0.094 C 
ATOM    100  O2  IDS d   3      25.258 -40.697  35.064  0.00  0.00    -0.244 OA
ATOM    101  C4  IDS d   3      26.007 -40.957  32.189  0.00  0.00     0.103 C 
ATOM    102  O62 IDS d   3      24.665 -41.673  29.549  0.00  0.00    -0.646 OA
ATOM    103  O1S IDS d   3      26.481 -40.255  37.068  0.00  0.00    -0.572 OA
ATOM    104  H   IDS d   3      24.407 -43.104  34.942  0.00  0.00     0.133 H 
ATOM    105  H   IDS d   3      28.350 -42.605  33.769  0.00  0.00     0.210 HD
ATOM    106  H   IDS d   3      25.684 -42.968  31.586  0.00  0.00     0.104 H 
ATOM    107  H   IDS d   3      26.668 -42.186  35.320  0.00  0.00     0.097 H 
ATOM    108  H   IDS d   3      27.436 -40.467  33.694  0.00  0.00     0.091 H 
ATOM    109  H   IDS d   3      26.631 -40.752  31.345  0.00  0.00     0.092 H 
ENDROOT
TORSDOF 34
ENDMDL
MODEL 3
REMARK VINA RESULT:     -11.3      2.003      2.485
REMARK  0 active torsions:
REMARK  status: ('A' for Active; 'I' for Inactive)
REMARK       I    between atoms: C5_1  and  C6_10 
REMARK       I    between atoms: S2_2  and  O6_59 
REMARK       I    between atoms: O3_3  and  C3_61 
REMARK       I    between atoms: C5_5  and  C6_35 
REMARK       I    between atoms: C2_6  and  N_67 
REMARK       I    between atoms: C4_9  and  O4_55 
REMARK       I    between atoms: C1_11  and  O1_63 
REMARK       I    between atoms: C1_12  and  O4_30 
REMARK       I    between atoms: O1S_13  and  S1_24 
REMARK       I    between atoms: C3_14  and  O3_18 
REMARK       I    between atoms: C1_16  and  O4_29 
REMARK       I    between atoms: C2_19  and  O2_41 
REMARK       I    between atoms: C1_20  and  O4_38 
REMARK       I    between atoms: S2_21  and  O6_47 
REMARK       I    between atoms: O3_23  and  C3_58 
REMARK       I    between atoms: S1_24  and  N_33 
REMARK       I    between atoms: S1_24  and  O2S_37 
REMARK       I    between atoms: S1_24  and  O3S_34 
REMARK       I    between atoms: C4_25  and  O4_30 
REMARK       I    between atoms: C5_28  and  C6_56 
REMARK       I    between atoms: O4_29  and  C4_65 
REMARK       I    between atoms: S_31  and  O2_60 
REMARK       I    between atoms: C2_32  and  O2_60 
REMARK       I    between atoms: N_33  and  C2_46 
REMARK       I    between atoms: C6_35  and  O6_47 
REMARK       I    between atoms: C5_36  and  C6_40 
REMARK       I    between atoms: O4_38  and  C4_45 
REMARK       I    between atoms: C6_40  and  O6_59 
REMARK       I    between atoms: O2_41  and  S_54 
REMARK       I    between atoms: O1S_42  and  S1_53 
REMARK       I    between atoms: O3_43  and  C3_44 
REMARK       I    between atoms: O3S_50  and  S1_53 
REMARK       I    between atoms: O2S_52  and  S1_53 
REMARK       I    between atoms: S1_53  and  N_67 
ROOT
ATOM      1  C5  IDS d   1      24.653 -36.901  33.677  0.00  0.00     0.152 C 
ATOM      2  O2S IDS d   1      20.797 -35.627  30.120  0.00  0.00    -0.572 OA
ATOM      3  C4  IDS d   1      23.305 -36.180  33.585  0.00  0.00     0.097 C 
ATOM      4  C6  IDS d   1      25.686 -35.990  34.350  0.00  0.00     0.206 C 
ATOM      5  C2  IDS d   1      22.877 -37.436  31.462  0.00  0.00     0.134 C 
ATOM      6  C1  IDS d   1      24.234 -38.121  31.661  0.00  0.00     0.161 C 
ATOM      7  O61 IDS d   1      26.815 -35.887  33.818  0.00  0.00    -0.646 OA
ATOM      8  O3S IDS d   1      21.842 -37.556  29.041  0.00  0.00    -0.572 OA
ATOM      9  O2  IDS d   1      23.053 -36.264  30.657  0.00  0.00    -0.244 OA
ATOM     10  O3  IDS d   1      21.923 -38.188  33.559  0.00  0.00    -0.390 OA
ATOM     11  C3  IDS d   1      22.288 -37.022  32.812  0.00  0.00     0.094 C 
ATOM     12  O62 IDS d   1      25.364 -35.414  35.408  0.00  0.00    -0.646 OA
ATOM     13  S   IDS d   1      22.088 -36.188  29.602  0.00  0.00     0.252 S 
ATOM     14  O4  IDS d   1      23.466 -34.905  32.955  0.00  0.00    -0.390 OA
ATOM     15  O5  IDS d   1      25.134 -37.250  32.368  0.00  0.00    -0.340 OA
ATOM     16  O1S IDS d   1      22.615 -35.298  28.516  0.00  0.00    -0.572 OA
ATOM     17  H   IDS d   1      24.514 -37.792  34.253  0.00  0.00     0.104 H 
ATOM     18  H   IDS d   1      22.937 -36.033  34.579  0.00  0.00     0.091 H 
ATOM     19  H   IDS d   1      22.212 -38.122  30.981  0.00  0.00     0.097 H 
ATOM     20  H   IDS d   1      24.631 -38.339  30.693  0.00  0.00     0.133 H 
ATOM     21  H   IDS d   1      21.550 -37.921  34.414  0.00  0.00     0.210 HD
ATOM     22  H   IDS d   1      21.409 -36.432  32.651  0.00  0.00     0.091 H 
ATOM     23  H   IDS d   1      23.800 -35.031  32.053  0.00  0.00     0.210 HD
ATOM     24  S2  SGN d   2      26.470 -39.786  28.527  0.00  0.00     0.251 S 
ATOM     25  C2  SGN d   2      26.618 -41.458  34.155  0.00  0.00     0.081 C 
ATOM     26  O5S SGN d   2      27.692 -38.918  28.494  0.00  0.00    -0.572 OA
ATOM     27  O4S SGN d   2      25.263 -38.957  28.200  0.00  0.00    -0.572 OA
ATOM     28  C3  SGN d   2      25.431 -40.504  34.010  0.00  0.00     0.083 C 
ATOM     29  C1  SGN d   2      26.450 -42.681  33.250  0.00  0.00     0.150 C 
ATOM     30  O3  SGN d   2      25.689 -39.316  34.765  0.00  0.00    -0.391 OA
ATOM     31  C5  SGN d   2      25.139 -41.408  31.679  0.00  0.00     0.091 C 
ATOM     32  O4  SGN d   2      24.098 -39.322  32.372  0.00  0.00    -0.348 OA
ATOM     33  C6  SGN d   2      25.101 -41.009  30.201  0.00  0.00     0.067 C 
ATOM     34  O1S SGN d   2      29.131 -40.883  35.721  0.00  0.00    -0.296 OA
ATOM     35  C4  SGN d   2      25.259 -40.143  32.534  0.00  0.00     0.095 C 
ATOM     36  O6S SGN d   2      26.615 -40.882  27.513  0.00  0.00    -0.572 OA
ATOM     37  O3S SGN d   2      28.870 -43.228  35.029  0.00  0.00    -0.296 OA
ATOM     38  O2S SGN d   2      28.449 -42.569  37.351  0.00  0.00    -0.296 OA
ATOM     39  S1  SGN d   2      28.338 -42.141  35.917  0.00  0.00     0.156 S 
ATOM     40  O6  SGN d   2      26.317 -40.351  29.832  0.00  0.00    -0.254 OA
ATOM     41  N   SGN d   2      26.771 -41.864  35.561  0.00  0.00    -0.210 NA
ATOM     42  O5  SGN d   2      26.286 -42.248  31.889  0.00  0.00    -0.349 OA
ATOM     43  H   SGN d   2      27.505 -40.946  33.849  0.00  0.00     0.076 H 
ATOM     44  H   SGN d   2      24.539 -40.971  34.373  0.00  0.00     0.089 H 
ATOM     45  H   SGN d   2      27.323 -43.292  33.343  0.00  0.00     0.131 H 
ATOM     46  H   SGN d   2      26.498 -38.893  34.436  0.00  0.00     0.210 HD
ATOM     47  H   SGN d   2      24.248 -41.933  31.952  0.00  0.00     0.090 H 
ATOM     48  H   SGN d   2      24.277 -40.347  30.035  0.00  0.00     0.080 H 
ATOM     49  H   SGN d   2      24.987 -41.890  29.605  0.00  0.00     0.080 H 
ATOM     50  H   SGN d   2      30.062 -41.051  35.933  0.00  0.00     0.231 HD
ATOM     51  H   SGN d   2      26.123 -39.601  32.208  0.00  0.00     0.091 H 
ATOM     52  H   SGN d   2      29.803 -43.391  35.242  0.00  0.00     0.231 HD
ATOM     53  H   SGN d   2      29.380 -42.735  37.567  0.00  0.00     0.231 HD
ATOM     54  H   SGN d   2      26.235 -42.717  35.724  0.00  0.00     0.140 HD
ATOM     55  O3  SGN d   4      21.907 -47.714  32.235  0.00  0.00    -0.391 OA
ATOM     56  C5  SGN d   4      21.975 -48.926  35.794  0.00  0.00     0.091 C 
ATOM     57  C1  SGN d   4      20.417 -50.263  34.583  0.00  0.00     0.147 C 
ATOM     58  O1S SGN d   4      18.222 -48.693  31.654  0.00  0.00    -0.296 OA
ATOM     59  S2  SGN d   4      21.914 -48.497  39.536  0.00  0.00     0.251 S 
ATOM     60  S1  SGN d   4      18.699 -50.111  31.778  0.00  0.00     0.156 S 
ATOM     61  C4  SGN d   4      22.147 -47.952  34.626  0.00  0.00     0.095 C 
ATOM     62  O6S SGN d   4      22.629 -49.419  40.479  0.00  0.00    -0.572 OA
ATOM     63  O4  SGN d   4      23.465 -47.392  34.641  0.00  0.00    -0.348 OA
ATOM     64  N   SGN d   4      20.291 -50.114  32.128  0.00  0.00    -0.210 NA
ATOM     65  O3S SGN d   4      17.941 -50.803  32.872  0.00  0.00    -0.296 OA
ATOM     66  C6  SGN d   4      22.157 -48.159  37.103  0.00  0.00     0.067 C 
ATOM     67  O2S SGN d   4      18.480 -50.825  30.476  0.00  0.00    -0.296 OA
ATOM     68  C2  SGN d   4      20.531 -49.350  33.361  0.00  0.00     0.081 C 
ATOM     69  O6  SGN d   4      21.980 -49.038  38.215  0.00  0.00    -0.254 OA
ATOM     70  O4S SGN d   4      22.567 -47.147  39.556  0.00  0.00    -0.572 OA
ATOM     71  C3  SGN d   4      21.901 -48.671  33.299  0.00  0.00     0.083 C 
ATOM     72  O1  SGN d   4      21.367 -51.330  34.503  0.00  0.00    -0.369 OA
ATOM     73  O5  SGN d   4      20.650 -49.484  35.767  0.00  0.00    -0.350 OA
ATOM     74  O5S SGN d   4      20.480 -48.354  39.957  0.00  0.00    -0.572 OA
ATOM     75  H   SGN d   4      22.774 -47.282  32.194  0.00  0.00     0.210 HD
ATOM     76  H   SGN d   4      22.697 -49.712  35.716  0.00  0.00     0.090 H 
ATOM     77  H   SGN d   4      19.437 -50.692  34.615  0.00  0.00     0.131 H 
ATOM     78  H   SGN d   4      18.713 -48.246  30.947  0.00  0.00     0.231 HD
ATOM     79  H   SGN d   4      21.434 -47.162  34.731  0.00  0.00     0.091 H 
ATOM     80  H   SGN d   4      20.808 -49.688  31.360  0.00  0.00     0.140 HD
ATOM     81  H   SGN d   4      18.086 -50.337  33.710  0.00  0.00     0.231 HD
ATOM     82  H   SGN d   4      21.434 -47.371  37.155  0.00  0.00     0.080 H 
ATOM     83  H   SGN d   4      23.144 -47.748  37.135  0.00  0.00     0.080 H 
ATOM     84  H   SGN d   4      18.972 -50.374  29.772  0.00  0.00     0.231 HD
ATOM     85  H   SGN d   4      19.786 -48.587  33.451  0.00  0.00     0.076 H 
ATOM     86  H   SGN d   4      22.666 -49.400  33.126  0.00  0.00     0.089 H 
ATOM     87  H   SGN d   4      22.264 -50.962  34.473  0.00  0.00     0.212 HD
ATOM     88  C1  IDS d   3      23.559 -46.081  35.108  0.00  0.00     0.161 C 
ATOM     89  O61 IDS d   3      22.380 -43.565  32.202  0.00  0.00    -0.646 OA
ATOM     90  O3S IDS d   3      24.562 -43.188  38.143  0.00  0.00    -0.572 OA
ATOM     91  O3  IDS d   3      26.102 -47.018  33.808  0.00  0.00    -0.390 OA
ATOM     92  C5  IDS d   3      23.906 -45.254  32.900  0.00  0.00     0.152 C 
ATOM     93  O4  IDS d   3      25.346 -43.430  33.625  0.00  0.00    -0.348 OA
ATOM     94  S   IDS d   3      24.950 -44.524  37.581  0.00  0.00     0.252 S 
ATOM     95  C2  IDS d   3      24.988 -45.726  35.530  0.00  0.00     0.134 C 
ATOM     96  O2S IDS d   3      23.946 -45.538  38.042  0.00  0.00    -0.572 OA
ATOM     97  O5  IDS d   3      23.101 -45.180  34.087  0.00  0.00    -0.340 OA
ATOM     98  C6  IDS d   3      23.280 -44.345  31.840  0.00  0.00     0.206 C 
ATOM     99  C3  IDS d   3      25.917 -45.693  34.314  0.00  0.00     0.094 C 
ATOM    100  O2  IDS d   3      24.966 -44.437  36.152  0.00  0.00    -0.244 OA
ATOM    101  C4  IDS d   3      25.332 -44.801  33.215  0.00  0.00     0.103 C 
ATOM    102  O62 IDS d   3      23.704 -44.445  30.664  0.00  0.00    -0.646 OA
ATOM    103  O1S IDS d   3      26.318 -44.902  38.067  0.00  0.00    -0.572 OA
ATOM    104  H   IDS d   3      22.942 -45.989  35.978  0.00  0.00     0.133 H 
ATOM    105  H   IDS d   3      26.473 -47.582  34.504  0.00  0.00     0.210 HD
ATOM    106  H   IDS d   3      23.946 -46.260  32.538  0.00  0.00     0.104 H 
ATOM    107  H   IDS d   3      25.354 -46.466  36.211  0.00  0.00     0.097 H 
ATOM    108  H   IDS d   3      26.861 -45.291  34.618  0.00  0.00     0.091 H 
ATOM    109  H   IDS d   3      25.930 -44.888  32.333  0.00  0.00     0.092 H 
ENDROOT
TORSDOF 34
ENDMDL
MODEL 4
REMARK VINA RESULT:     -11.1      2.104      2.609
REMARK  0 active torsions:
REMARK  status: ('A' for Active; 'I' for Inactive)
REMARK       I    between atoms: C5_1  and  C6_10 
REMARK       I    between atoms: S2_2  and  O6_59 
REMARK       I    between atoms: O3_3  and  C3_61 
REMARK       I    between atoms: C5_5  and  C6_35 
REMARK       I    between atoms: C2_6  and  N_67 
REMARK       I    between atoms: C4_9  and  O4_55 
REMARK       I    between atoms: C1_11  and  O1_63 
REMARK       I    between atoms: C1_12  and  O4_30 
REMARK       I    between atoms: O1S_13  and  S1_24 
REMARK       I    between atoms: C3_14  and  O3_18 
REMARK       I    between atoms: C1_16  and  O4_29 
REMARK       I    between atoms: C2_19  and  O2_41 
REMARK       I    between atoms: C1_20  and  O4_38 
REMARK       I    between atoms: S2_21  and  O6_47 
REMARK       I    between atoms: O3_23  and  C3_58 
REMARK       I    between atoms: S1_24  and  N_33 
REMARK       I    between atoms: S1_24  and  O2S_37 
REMARK       I    between atoms: S1_24  and  O3S_34 
REMARK       I    between atoms: C4_25  and  O4_30 
REMARK       I    between atoms: C5_28  and  C6_56 
REMARK       I    between atoms: O4_29  and  C4_65 
REMARK       I    between atoms: S_31  and  O2_60 
REMARK       I    between atoms: C2_32  and  O2_60 
REMARK       I    between atoms: N_33  and  C2_46 
REMARK       I    between atoms: C6_35  and  O6_47 
REMARK       I    between atoms: C5_36  and  C6_40 
REMARK       I    between atoms: O4_38  and  C4_45 
REMARK       I    between atoms: C6_40  and  O6_59 
REMARK       I    between atoms: O2_41  and  S_54 
REMARK       I    between atoms: O1S_42  and  S1_53 
REMARK       I    between atoms: O3_43  and  C3_44 
REMARK       I    between atoms: O3S_50  and  S1_53 
REMARK       I    between atoms: O2S_52  and  S1_53 
REMARK       I    between atoms: S1_53  and  N_67 
ROOT
ATOM      1  C5  IDS d   1      26.066 -36.098  35.068  0.00  0.00     0.152 C 
ATOM      2  O2S IDS d   1      21.572 -33.438  33.700  0.00  0.00    -0.572 OA
ATOM      3  C4  IDS d   1      24.863 -35.386  35.694  0.00  0.00     0.097 C 
ATOM      4  C6  IDS d   1      27.365 -35.552  35.671  0.00  0.00     0.206 C 
ATOM      5  C2  IDS d   1      23.674 -35.661  33.508  0.00  0.00     0.134 C 
ATOM      6  C1  IDS d   1      24.921 -36.384  32.986  0.00  0.00     0.161 C 
ATOM      7  O61 IDS d   1      28.298 -35.255  34.890  0.00  0.00    -0.646 OA
ATOM      8  O3S IDS d   1      21.983 -34.771  31.692  0.00  0.00    -0.572 OA
ATOM      9  O2  IDS d   1      23.774 -34.266  33.203  0.00  0.00    -0.244 OA
ATOM     10  O3  IDS d   1      23.265 -37.192  35.342  0.00  0.00    -0.390 OA
ATOM     11  C3  IDS d   1      23.559 -35.827  35.024  0.00  0.00     0.094 C 
ATOM     12  O62 IDS d   1      27.444 -35.454  36.912  0.00  0.00    -0.646 OA
ATOM     13  S   IDS d   1      22.568 -33.754  32.625  0.00  0.00     0.252 S 
ATOM     14  O4  IDS d   1      25.014 -33.967  35.585  0.00  0.00    -0.390 OA
ATOM     15  O5  IDS d   1      26.099 -35.888  33.646  0.00  0.00    -0.340 OA
ATOM     16  O1S IDS d   1      22.882 -32.505  31.857  0.00  0.00    -0.572 OA
ATOM     17  H   IDS d   1      25.974 -37.144  35.270  0.00  0.00     0.104 H 
ATOM     18  H   IDS d   1      24.819 -35.653  36.729  0.00  0.00     0.091 H 
ATOM     19  H   IDS d   1      22.810 -36.083  33.040  0.00  0.00     0.097 H 
ATOM     20  H   IDS d   1      24.989 -36.193  31.936  0.00  0.00     0.133 H 
ATOM     21  H   IDS d   1      23.193 -37.292  36.304  0.00  0.00     0.210 HD
ATOM     22  H   IDS d   1      22.763 -35.213  35.391  0.00  0.00     0.091 H 
ATOM     23  H   IDS d   1      25.055 -33.718  34.648  0.00  0.00     0.210 HD
ATOM     24  S2  SGN d   2      25.910 -36.653  28.918  0.00  0.00     0.251 S 
ATOM     25  C2  SGN d   2      27.426 -40.477  33.110  0.00  0.00     0.081 C 
ATOM     26  O5S SGN d   2      27.180 -35.862  28.833  0.00  0.00    -0.572 OA
ATOM     27  O4S SGN d   2      24.788 -35.748  29.337  0.00  0.00    -0.572 OA
ATOM     28  C3  SGN d   2      26.393 -39.532  33.728  0.00  0.00     0.083 C 
ATOM     29  C1  SGN d   2      26.836 -41.222  31.911  0.00  0.00     0.150 C 
ATOM     30  O3  SGN d   2      27.021 -38.759  34.755  0.00  0.00    -0.391 OA
ATOM     31  C5  SGN d   2      25.323 -39.403  31.454  0.00  0.00     0.091 C 
ATOM     32  O4  SGN d   2      24.827 -37.769  33.186  0.00  0.00    -0.348 OA
ATOM     33  C6  SGN d   2      24.919 -38.435  30.337  0.00  0.00     0.067 C 
ATOM     34  O1S SGN d   2      30.337 -40.619  33.888  0.00  0.00    -0.296 OA
ATOM     35  C4  SGN d   2      25.859 -38.598  32.641  0.00  0.00     0.095 C 
ATOM     36  O6S SGN d   2      25.603 -37.242  27.573  0.00  0.00    -0.572 OA
ATOM     37  O3S SGN d   2      29.563 -42.475  32.473  0.00  0.00    -0.296 OA
ATOM     38  O2S SGN d   2      29.921 -42.816  34.872  0.00  0.00    -0.296 OA
ATOM     39  S1  SGN d   2      29.465 -41.839  33.828  0.00  0.00     0.156 S 
ATOM     40  O6  SGN d   2      26.058 -37.699  29.882  0.00  0.00    -0.254 OA
ATOM     41  N   SGN d   2      27.917 -41.422  34.125  0.00  0.00    -0.210 NA
ATOM     42  O5  SGN d   2      26.352 -40.270  30.948  0.00  0.00    -0.349 OA
ATOM     43  H   SGN d   2      28.252 -39.895  32.758  0.00  0.00     0.076 H 
ATOM     44  H   SGN d   2      25.587 -40.096  34.148  0.00  0.00     0.089 H 
ATOM     45  H   SGN d   2      27.605 -41.828  31.479  0.00  0.00     0.131 H 
ATOM     46  H   SGN d   2      27.752 -38.248  34.374  0.00  0.00     0.210 HD
ATOM     47  H   SGN d   2      24.483 -39.983  31.773  0.00  0.00     0.090 H 
ATOM     48  H   SGN d   2      24.184 -37.754  30.710  0.00  0.00     0.080 H 
ATOM     49  H   SGN d   2      24.518 -38.996  29.519  0.00  0.00     0.080 H 
ATOM     50  H   SGN d   2      31.257 -40.871  33.710  0.00  0.00     0.231 HD
ATOM     51  H   SGN d   2      26.660 -37.981  32.291  0.00  0.00     0.091 H 
ATOM     52  H   SGN d   2      30.485 -42.722  32.297  0.00  0.00     0.231 HD
ATOM     53  H   SGN d   2      30.842 -43.067  34.699  0.00  0.00     0.231 HD
ATOM     54  H   SGN d   2      27.336 -42.261  34.110  0.00  0.00     0.140 HD
ATOM     55  O3  SGN d   4      21.534 -45.349  30.549  0.00  0.00    -0.391 OA
ATOM     56  C5  SGN d   4      22.447 -47.908  33.149  0.00  0.00     0.091 C 
ATOM     57  C1  SGN d   4      20.436 -48.616  32.082  0.00  0.00     0.147 C 
ATOM     58  O1S SGN d   4      17.738 -45.962  30.844  0.00  0.00    -0.296 OA
ATOM     59  S2  SGN d   4      23.520 -49.041  36.577  0.00  0.00     0.251 S 
ATOM     60  S1  SGN d   4      18.026 -47.312  30.256  0.00  0.00     0.156 S 
ATOM     61  C4  SGN d   4      22.413 -46.544  32.454  0.00  0.00     0.095 C 
ATOM     62  O6S SGN d   4      24.339 -50.276  36.813  0.00  0.00    -0.572 OA
ATOM     63  O4  SGN d   4      23.744 -46.055  32.262  0.00  0.00    -0.348 OA
ATOM     64  N   SGN d   4      19.635 -47.477  30.051  0.00  0.00    -0.210 NA
ATOM     65  O3S SGN d   4      17.524 -48.381  31.181  0.00  0.00    -0.296 OA
ATOM     66  C6  SGN d   4      23.102 -47.743  34.520  0.00  0.00     0.067 C 
ATOM     67  O2S SGN d   4      17.346 -47.431  28.923  0.00  0.00    -0.296 OA
ATOM     68  C2  SGN d   4      20.322 -47.285  31.336  0.00  0.00     0.081 C 
ATOM     69  O6  SGN d   4      23.129 -48.997  35.203  0.00  0.00    -0.254 OA
ATOM     70  O4S SGN d   4      24.335 -47.824  36.903  0.00  0.00    -0.572 OA
ATOM     71  C3  SGN d   4      21.698 -46.656  31.107  0.00  0.00     0.083 C 
ATOM     72  O1  SGN d   4      21.164 -49.568  31.302  0.00  0.00    -0.369 OA
ATOM     73  O5  SGN d   4      21.105 -48.390  33.334  0.00  0.00    -0.350 OA
ATOM     74  O5S SGN d   4      22.302 -49.065  37.453  0.00  0.00    -0.572 OA
ATOM     75  H   SGN d   4      22.405 -44.948  30.403  0.00  0.00     0.210 HD
ATOM     76  H   SGN d   4      22.999 -48.602  32.550  0.00  0.00     0.090 H 
ATOM     77  H   SGN d   4      19.457 -49.008  32.258  0.00  0.00     0.131 H 
ATOM     78  H   SGN d   4      18.064 -45.271  30.245  0.00  0.00     0.231 HD
ATOM     79  H   SGN d   4      21.877 -45.857  33.075  0.00  0.00     0.091 H 
ATOM     80  H   SGN d   4      19.965 -46.781  29.383  0.00  0.00     0.140 HD
ATOM     81  H   SGN d   4      17.967 -48.300  32.040  0.00  0.00     0.231 HD
ATOM     82  H   SGN d   4      22.542 -47.037  35.097  0.00  0.00     0.080 H 
ATOM     83  H   SGN d   4      24.105 -47.393  34.390  0.00  0.00     0.080 H 
ATOM     84  H   SGN d   4      17.675 -46.737  28.329  0.00  0.00     0.231 HD
ATOM     85  H   SGN d   4      19.749 -46.617  31.944  0.00  0.00     0.076 H 
ATOM     86  H   SGN d   4      22.272 -47.261  30.434  0.00  0.00     0.089 H 
ATOM     87  H   SGN d   4      22.058 -49.231  31.132  0.00  0.00     0.212 HD
ATOM     88  C1  IDS d   3      24.152 -45.049  33.139  0.00  0.00     0.161 C 
ATOM     89  O61 IDS d   3      22.555 -41.553  31.959  0.00  0.00    -0.646 OA
ATOM     90  O3S IDS d   3      26.376 -43.658  36.560  0.00  0.00    -0.572 OA
ATOM     91  O3  IDS d   3      26.058 -45.405  30.843  0.00  0.00    -0.390 OA
ATOM     92  C5  IDS d   3      23.964 -43.398  31.432  0.00  0.00     0.152 C 
ATOM     93  O4  IDS d   3      25.793 -42.045  32.300  0.00  0.00    -0.348 OA
ATOM     94  S   IDS d   3      26.396 -44.653  35.437  0.00  0.00     0.252 S 
ATOM     95  C2  IDS d   3      25.676 -44.915  33.186  0.00  0.00     0.134 C 
ATOM     96  O2S IDS d   3      25.434 -45.755  35.768  0.00  0.00    -0.572 OA
ATOM     97  O5  IDS d   3      23.551 -43.805  32.745  0.00  0.00    -0.340 OA
ATOM     98  C6  IDS d   3      23.195 -42.128  31.060  0.00  0.00     0.206 C 
ATOM     99  C3  IDS d   3      26.213 -44.399  31.849  0.00  0.00     0.094 C 
ATOM    100  O2  IDS d   3      26.014 -43.991  34.227  0.00  0.00    -0.244 OA
ATOM    101  C4  IDS d   3      25.469 -43.130  31.424  0.00  0.00     0.103 C 
ATOM    102  O62 IDS d   3      23.246 -41.745  29.867  0.00  0.00    -0.646 OA
ATOM    103  O1S IDS d   3      27.779 -45.212  35.278  0.00  0.00    -0.572 OA
ATOM    104  H   IDS d   3      23.829 -45.313  34.125  0.00  0.00     0.133 H 
ATOM    105  H   IDS d   3      26.530 -46.208  31.113  0.00  0.00     0.210 HD
ATOM    106  H   IDS d   3      23.757 -44.170  30.719  0.00  0.00     0.104 H 
ATOM    107  H   IDS d   3      26.115 -45.872  33.376  0.00  0.00     0.097 H 
ATOM    108  H   IDS d   3      27.252 -44.168  31.966  0.00  0.00     0.091 H 
ATOM    109  H   IDS d   3      25.772 -42.857  30.435  0.00  0.00     0.092 H 
ENDROOT
TORSDOF 34
ENDMDL
MODEL 5
REMARK VINA RESULT:     -11.1      3.965     11.002
REMARK  0 active torsions:
REMARK  status: ('A' for Active; 'I' for Inactive)
REMARK       I    between atoms: C5_1  and  C6_10 
REMARK       I    between atoms: S2_2  and  O6_59 
REMARK       I    between atoms: O3_3  and  C3_61 
REMARK       I    between atoms: C5_5  and  C6_35 
REMARK       I    between atoms: C2_6  and  N_67 
REMARK       I    between atoms: C4_9  and  O4_55 
REMARK       I    between atoms: C1_11  and  O1_63 
REMARK       I    between atoms: C1_12  and  O4_30 
REMARK       I    between atoms: O1S_13  and  S1_24 
REMARK       I    between atoms: C3_14  and  O3_18 
REMARK       I    between atoms: C1_16  and  O4_29 
REMARK       I    between atoms: C2_19  and  O2_41 
REMARK       I    between atoms: C1_20  and  O4_38 
REMARK       I    between atoms: S2_21  and  O6_47 
REMARK       I    between atoms: O3_23  and  C3_58 
REMARK       I    between atoms: S1_24  and  N_33 
REMARK       I    between atoms: S1_24  and  O2S_37 
REMARK       I    between atoms: S1_24  and  O3S_34 
REMARK       I    between atoms: C4_25  and  O4_30 
REMARK       I    between atoms: C5_28  and  C6_56 
REMARK       I    between atoms: O4_29  and  C4_65 
REMARK       I    between atoms: S_31  and  O2_60 
REMARK       I    between atoms: C2_32  and  O2_60 
REMARK       I    between atoms: N_33  and  C2_46 
REMARK       I    between atoms: C6_35  and  O6_47 
REMARK       I    between atoms: C5_36  and  C6_40 
REMARK       I    between atoms: O4_38  and  C4_45 
REMARK       I    between atoms: C6_40  and  O6_59 
REMARK       I    between atoms: O2_41  and  S_54 
REMARK       I    between atoms: O1S_42  and  S1_53 
REMARK       I    between atoms: O3_43  and  C3_44 
REMARK       I    between atoms: O3S_50  and  S1_53 
REMARK       I    between atoms: O2S_52  and  S1_53 
REMARK       I    between atoms: S1_53  and  N_67 
ROOT
ATOM      1  C5  IDS d   1      16.026 -43.926  31.661  0.00  0.00     0.152 C 
ATOM      2  O2S IDS d   1      16.544 -48.859  33.792  0.00  0.00    -0.572 OA
ATOM      3  C4  IDS d   1      15.626 -44.741  32.895  0.00  0.00     0.097 C 
ATOM      4  C6  IDS d   1      14.786 -43.262  31.052  0.00  0.00     0.206 C 
ATOM      5  C2  IDS d   1      17.482 -46.328  32.338  0.00  0.00     0.134 C 
ATOM      6  C1  IDS d   1      17.816 -45.428  31.143  0.00  0.00     0.161 C 
ATOM      7  O61 IDS d   1      14.625 -43.342  29.813  0.00  0.00    -0.646 OA
ATOM      8  O3S IDS d   1      18.465 -48.773  32.282  0.00  0.00    -0.572 OA
ATOM      9  O2  IDS d   1      16.570 -47.350  31.920  0.00  0.00    -0.244 OA
ATOM     10  O3  IDS d   1      17.784 -44.609  34.019  0.00  0.00    -0.390 OA
ATOM     11  C3  IDS d   1      16.827 -45.509  33.453  0.00  0.00     0.094 C 
ATOM     12  O62 IDS d   1      14.009 -42.652  31.813  0.00  0.00    -0.646 OA
ATOM     13  S   IDS d   1      16.974 -48.647  32.371  0.00  0.00     0.252 S 
ATOM     14  O4  IDS d   1      14.571 -45.651  32.567  0.00  0.00    -0.390 OA
ATOM     15  O5  IDS d   1      16.629 -44.770  30.666  0.00  0.00    -0.340 OA
ATOM     16  O1S IDS d   1      16.339 -49.691  31.501  0.00  0.00    -0.572 OA
ATOM     17  H   IDS d   1      16.731 -43.182  31.969  0.00  0.00     0.104 H 
ATOM     18  H   IDS d   1      15.281 -44.062  33.645  0.00  0.00     0.091 H 
ATOM     19  H   IDS d   1      18.387 -46.764  32.705  0.00  0.00     0.097 H 
ATOM     20  H   IDS d   1      18.217 -46.051  30.372  0.00  0.00     0.133 H 
ATOM     21  H   IDS d   1      17.365 -44.093  34.726  0.00  0.00     0.210 HD
ATOM     22  H   IDS d   1      16.481 -46.168  34.223  0.00  0.00     0.091 H 
ATOM     23  H   IDS d   1      14.878 -46.270  31.887  0.00  0.00     0.210 HD
ATOM     24  S2  SGN d   2      19.837 -46.775  27.723  0.00  0.00     0.251 S 
ATOM     25  C2  SGN d   2      19.815 -41.278  29.792  0.00  0.00     0.081 C 
ATOM     26  O5S SGN d   2      18.799 -46.640  26.650  0.00  0.00    -0.572 OA
ATOM     27  O4S SGN d   2      19.375 -47.778  28.738  0.00  0.00    -0.572 OA
ATOM     28  C3  SGN d   2      19.180 -42.158  30.871  0.00  0.00     0.083 C 
ATOM     29  C1  SGN d   2      21.250 -41.722  29.500  0.00  0.00     0.150 C 
ATOM     30  O3  SGN d   2      17.802 -41.800  31.017  0.00  0.00    -0.391 OA
ATOM     31  C5  SGN d   2      20.736 -43.991  30.127  0.00  0.00     0.091 C 
ATOM     32  O4  SGN d   2      18.774 -44.462  31.485  0.00  0.00    -0.348 OA
ATOM     33  C6  SGN d   2      20.780 -45.422  29.581  0.00  0.00     0.067 C 
ATOM     34  O1S SGN d   2      18.363 -39.183  28.180  0.00  0.00    -0.296 OA
ATOM     35  C4  SGN d   2      19.284 -43.623  30.444  0.00  0.00     0.095 C 
ATOM     36  O6S SGN d   2      21.125 -47.240  27.110  0.00  0.00    -0.572 OA
ATOM     37  O3S SGN d   2      20.813 -39.103  27.992  0.00  0.00    -0.296 OA
ATOM     38  O2S SGN d   2      19.625 -37.460  29.365  0.00  0.00    -0.296 OA
ATOM     39  S1  SGN d   2      19.642 -38.888  28.905  0.00  0.00     0.156 S 
ATOM     40  O6  SGN d   2      20.034 -45.511  28.363  0.00  0.00    -0.254 OA
ATOM     41  N   SGN d   2      19.776 -39.867  30.203  0.00  0.00    -0.210 NA
ATOM     42  O5  SGN d   2      21.253 -43.108  29.118  0.00  0.00    -0.349 OA
ATOM     43  H   SGN d   2      19.251 -41.387  28.889  0.00  0.00     0.076 H 
ATOM     44  H   SGN d   2      19.686 -42.017  31.803  0.00  0.00     0.089 H 
ATOM     45  H   SGN d   2      21.635 -41.117  28.706  0.00  0.00     0.131 H 
ATOM     46  H   SGN d   2      17.344 -41.928  30.172  0.00  0.00     0.210 HD
ATOM     47  H   SGN d   2      21.322 -43.909  31.018  0.00  0.00     0.090 H 
ATOM     48  H   SGN d   2      20.357 -46.088  30.303  0.00  0.00     0.080 H 
ATOM     49  H   SGN d   2      21.797 -45.689  29.387  0.00  0.00     0.080 H 
ATOM     50  H   SGN d   2      18.287 -38.599  27.409  0.00  0.00     0.231 HD
ATOM     51  H   SGN d   2      18.702 -43.767  29.558  0.00  0.00     0.091 H 
ATOM     52  H   SGN d   2      20.732 -38.521  27.220  0.00  0.00     0.231 HD
ATOM     53  H   SGN d   2      19.546 -36.874  28.596  0.00  0.00     0.231 HD
ATOM     54  H   SGN d   2      20.634 -39.640  30.705  0.00  0.00     0.140 HD
ATOM     55  O3  SGN d   4      27.128 -42.613  32.914  0.00  0.00    -0.391 OA
ATOM     56  C5  SGN d   4      27.264 -39.095  34.236  0.00  0.00     0.091 C 
ATOM     57  C1  SGN d   4      29.154 -40.279  35.077  0.00  0.00     0.147 C 
ATOM     58  O1S SGN d   4      28.905 -44.152  35.971  0.00  0.00    -0.296 OA
ATOM     59  S2  SGN d   4      25.828 -36.009  35.850  0.00  0.00     0.251 S 
ATOM     60  S1  SGN d   4      30.116 -43.400  35.502  0.00  0.00     0.156 S 
ATOM     61  C4  SGN d   4      26.640 -40.368  33.660  0.00  0.00     0.095 C 
ATOM     62  O6S SGN d   4      26.299 -34.621  35.529  0.00  0.00    -0.572 OA
ATOM     63  O4  SGN d   4      25.861 -40.055  32.501  0.00  0.00    -0.348 OA
ATOM     64  N   SGN d   4      29.722 -42.507  34.196  0.00  0.00    -0.210 NA
ATOM     65  O3S SGN d   4      30.605 -42.500  36.598  0.00  0.00    -0.296 OA
ATOM     66  C6  SGN d   4      26.142 -38.145  34.653  0.00  0.00     0.067 C 
ATOM     67  O2S SGN d   4      31.193 -44.375  35.125  0.00  0.00    -0.296 OA
ATOM     68  C2  SGN d   4      28.614 -41.601  34.528  0.00  0.00     0.081 C 
ATOM     69  O6  SGN d   4      26.694 -36.954  35.216  0.00  0.00    -0.254 OA
ATOM     70  O4S SGN d   4      24.428 -36.198  35.344  0.00  0.00    -0.572 OA
ATOM     71  C3  SGN d   4      27.734 -41.374  33.297  0.00  0.00     0.083 C 
ATOM     72  O1  SGN d   4      30.002 -39.645  34.115  0.00  0.00    -0.369 OA
ATOM     73  O5  SGN d   4      28.046 -39.423  35.397  0.00  0.00    -0.350 OA
ATOM     74  O5S SGN d   4      25.846 -36.220  37.335  0.00  0.00    -0.572 OA
ATOM     75  H   SGN d   4      26.569 -42.472  32.134  0.00  0.00     0.210 HD
ATOM     76  H   SGN d   4      27.890 -38.637  33.499  0.00  0.00     0.090 H 
ATOM     77  H   SGN d   4      29.733 -40.471  35.956  0.00  0.00     0.131 H 
ATOM     78  H   SGN d   4      28.589 -44.733  35.262  0.00  0.00     0.231 HD
ATOM     79  H   SGN d   4      26.001 -40.802  34.401  0.00  0.00     0.091 H 
ATOM     80  H   SGN d   4      29.438 -43.125  33.436  0.00  0.00     0.140 HD
ATOM     81  H   SGN d   4      29.906 -41.872  36.837  0.00  0.00     0.231 HD
ATOM     82  H   SGN d   4      25.522 -38.627  35.380  0.00  0.00     0.080 H 
ATOM     83  H   SGN d   4      25.560 -37.889  33.792  0.00  0.00     0.080 H 
ATOM     84  H   SGN d   4      30.871 -44.954  34.416  0.00  0.00     0.231 HD
ATOM     85  H   SGN d   4      28.010 -42.050  35.290  0.00  0.00     0.076 H 
ATOM     86  H   SGN d   4      28.324 -41.001  32.486  0.00  0.00     0.089 H 
ATOM     87  H   SGN d   4      29.495 -39.462  33.309  0.00  0.00     0.212 HD
ATOM     88  C1  IDS d   3      24.478 -40.048  32.685  0.00  0.00     0.161 C 
ATOM     89  O61 IDS d   3      23.141 -43.841  32.722  0.00  0.00    -0.646 OA
ATOM     90  O3S IDS d   3      20.719 -38.000  33.191  0.00  0.00    -0.572 OA
ATOM     91  O3  IDS d   3      25.244 -39.931  29.781  0.00  0.00    -0.390 OA
ATOM     92  C5  IDS d   3      24.250 -42.112  31.516  0.00  0.00     0.152 C 
ATOM     93  O4  IDS d   3      22.059 -41.555  30.612  0.00  0.00    -0.348 OA
ATOM     94  S   IDS d   3      22.060 -37.903  32.526  0.00  0.00     0.252 S 
ATOM     95  C2  IDS d   3      23.757 -39.273  31.579  0.00  0.00     0.134 C 
ATOM     96  O2S IDS d   3      23.076 -37.537  33.567  0.00  0.00    -0.572 OA
ATOM     97  O5  IDS d   3      24.000 -41.403  32.739  0.00  0.00    -0.340 OA
ATOM     98  C6  IDS d   3      23.807 -43.565  31.707  0.00  0.00     0.206 C 
ATOM     99  C3  IDS d   3      23.890 -39.997  30.238  0.00  0.00     0.094 C 
ATOM    100  O2  IDS d   3      22.374 -39.167  31.932  0.00  0.00    -0.244 OA
ATOM    101  C4  IDS d   3      23.466 -41.463  30.375  0.00  0.00     0.103 C 
ATOM    102  O62 IDS d   3      24.149 -44.397  30.834  0.00  0.00    -0.646 OA
ATOM    103  O1S IDS d   3      22.023 -36.851  31.457  0.00  0.00    -0.572 OA
ATOM    104  H   IDS d   3      24.265 -39.551  33.609  0.00  0.00     0.133 H 
ATOM    105  H   IDS d   3      25.511 -39.002  29.695  0.00  0.00     0.210 HD
ATOM    106  H   IDS d   3      25.291 -42.079  31.270  0.00  0.00     0.104 H 
ATOM    107  H   IDS d   3      24.195 -38.301  31.479  0.00  0.00     0.097 H 
ATOM    108  H   IDS d   3      23.249 -39.518  29.527  0.00  0.00     0.091 H 
ATOM    109  H   IDS d   3      23.682 -41.980  29.464  0.00  0.00     0.092 H 
ENDROOT
TORSDOF 34
ENDMDL
MODEL 6
REMARK VINA RESULT:     -10.4      4.020      6.261
REMARK  0 active torsions:
REMARK  status: ('A' for Active; 'I' for Inactive)
REMARK       I    between atoms: C5_1  and  C6_10 
REMARK       I    between atoms: S2_2  and  O6_59 
REMARK       I    between atoms: O3_3  and  C3_61 
REMARK       I    between atoms: C5_5  and  C6_35 
REMARK       I    between atoms: C2_6  and  N_67 
REMARK       I    between atoms: C4_9  and  O4_55 
REMARK       I    between atoms: C1_11  and  O1_63 
REMARK       I    between atoms: C1_12  and  O4_30 
REMARK       I    between atoms: O1S_13  and  S1_24 
REMARK       I    between atoms: C3_14  and  O3_18 
REMARK       I    between atoms: C1_16  and  O4_29 
REMARK       I    between atoms: C2_19  and  O2_41 
REMARK       I    between atoms: C1_20  and  O4_38 
REMARK       I    between atoms: S2_21  and  O6_47 
REMARK       I    between atoms: O3_23  and  C3_58 
REMARK       I    between atoms: S1_24  and  N_33 
REMARK       I    between atoms: S1_24  and  O2S_37 
REMARK       I    between atoms: S1_24  and  O3S_34 
REMARK       I    between atoms: C4_25  and  O4_30 
REMARK       I    between atoms: C5_28  and  C6_56 
REMARK       I    between atoms: O4_29  and  C4_65 
REMARK       I    between atoms: S_31  and  O2_60 
REMARK       I    between atoms: C2_32  and  O2_60 
REMARK       I    between atoms: N_33  and  C2_46 
REMARK       I    between atoms: C6_35  and  O6_47 
REMARK       I    between atoms: C5_36  and  C6_40 
REMARK       I    between atoms: O4_38  and  C4_45 
REMARK       I    between atoms: C6_40  and  O6_59 
REMARK       I    between atoms: O2_41  and  S_54 
REMARK       I    between atoms: O1S_42  and  S1_53 
REMARK       I    between atoms: O3_43  and  C3_44 
REMARK       I    between atoms: O3S_50  and  S1_53 
REMARK       I    between atoms: O2S_52  and  S1_53 
REMARK       I    between atoms: S1_53  and  N_67 
ROOT
ATOM      1  C5  IDS d   1      18.730 -34.473  31.891  0.00  0.00     0.152 C 
ATOM      2  O2S IDS d   1      14.001 -36.764  30.653  0.00  0.00    -0.572 OA
ATOM      3  C4  IDS d   1      17.343 -34.742  32.482  0.00  0.00     0.097 C 
ATOM      4  C6  IDS d   1      19.075 -32.986  32.031  0.00  0.00     0.206 C 
ATOM      5  C2  IDS d   1      17.057 -36.541  30.765  0.00  0.00     0.134 C 
ATOM      6  C1  IDS d   1      18.467 -36.209  30.265  0.00  0.00     0.161 C 
ATOM      7  O61 IDS d   1      19.542 -32.393  31.032  0.00  0.00    -0.646 OA
ATOM      8  O3S IDS d   1      15.520 -37.918  29.124  0.00  0.00    -0.572 OA
ATOM      9  O2  IDS d   1      16.100 -35.773  30.025  0.00  0.00    -0.244 OA
ATOM     10  O3  IDS d   1      17.730 -37.085  33.028  0.00  0.00    -0.390 OA
ATOM     11  C3  IDS d   1      16.924 -36.195  32.249  0.00  0.00     0.094 C 
ATOM     12  O62 IDS d   1      18.900 -32.440  33.139  0.00  0.00    -0.646 OA
ATOM     13  S   IDS d   1      15.011 -36.577  29.560  0.00  0.00     0.252 S 
ATOM     14  O4  IDS d   1      16.378 -33.855  31.907  0.00  0.00    -0.390 OA
ATOM     15  O5  IDS d   1      18.766 -34.821  30.497  0.00  0.00    -0.340 OA
ATOM     16  O1S IDS d   1      14.358 -35.896  28.394  0.00  0.00    -0.572 OA
ATOM     17  H   IDS d   1      19.439 -35.070  32.424  0.00  0.00     0.104 H 
ATOM     18  H   IDS d   1      17.390 -34.569  33.537  0.00  0.00     0.091 H 
ATOM     19  H   IDS d   1      16.880 -37.587  30.628  0.00  0.00     0.097 H 
ATOM     20  H   IDS d   1      18.494 -36.413  29.216  0.00  0.00     0.133 H 
ATOM     21  H   IDS d   1      17.643 -36.863  33.968  0.00  0.00     0.210 HD
ATOM     22  H   IDS d   1      15.903 -36.308  32.552  0.00  0.00     0.091 H 
ATOM     23  H   IDS d   1      16.329 -34.007  30.951  0.00  0.00     0.210 HD
ATOM     24  S2  SGN d   2      19.802 -37.038  26.376  0.00  0.00     0.251 S 
ATOM     25  C2  SGN d   2      23.159 -36.647  31.178  0.00  0.00     0.081 C 
ATOM     26  O5S SGN d   2      20.026 -35.671  25.803  0.00  0.00    -0.572 OA
ATOM     27  O4S SGN d   2      18.346 -37.209  26.698  0.00  0.00    -0.572 OA
ATOM     28  C3  SGN d   2      21.706 -36.659  31.657  0.00  0.00     0.083 C 
ATOM     29  C1  SGN d   2      23.493 -37.927  30.409  0.00  0.00     0.150 C 
ATOM     30  O3  SGN d   2      21.396 -35.394  32.248  0.00  0.00    -0.391 OA
ATOM     31  C5  SGN d   2      21.200 -38.169  29.707  0.00  0.00     0.091 C 
ATOM     32  O4  SGN d   2      19.433 -37.002  30.902  0.00  0.00    -0.348 OA
ATOM     33  C6  SGN d   2      20.344 -38.303  28.444  0.00  0.00     0.067 C 
ATOM     34  O1S SGN d   2      25.037 -34.296  31.384  0.00  0.00    -0.296 OA
ATOM     35  C4  SGN d   2      20.789 -36.899  30.456  0.00  0.00     0.095 C 
ATOM     36  O6S SGN d   2      20.215 -38.070  25.368  0.00  0.00    -0.572 OA
ATOM     37  O3S SGN d   2      26.121 -36.423  30.798  0.00  0.00    -0.296 OA
ATOM     38  O2S SGN d   2      26.315 -35.521  33.067  0.00  0.00    -0.296 OA
ATOM     39  S1  SGN d   2      25.411 -35.662  31.878  0.00  0.00     0.156 S 
ATOM     40  O6  SGN d   2      20.572 -37.192  27.570  0.00  0.00    -0.254 OA
ATOM     41  N   SGN d   2      24.066 -36.471  32.322  0.00  0.00    -0.210 NA
ATOM     42  O5  SGN d   2      22.578 -38.076  29.310  0.00  0.00    -0.349 OA
ATOM     43  H   SGN d   2      23.290 -35.822  30.509  0.00  0.00     0.076 H 
ATOM     44  H   SGN d   2      21.565 -37.436  32.379  0.00  0.00     0.089 H 
ATOM     45  H   SGN d   2      24.497 -37.852  30.049  0.00  0.00     0.131 H 
ATOM     46  H   SGN d   2      21.524 -34.690  31.594  0.00  0.00     0.210 HD
ATOM     47  H   SGN d   2      21.062 -39.015  30.348  0.00  0.00     0.090 H 
ATOM     48  H   SGN d   2      19.311 -38.330  28.719  0.00  0.00     0.080 H 
ATOM     49  H   SGN d   2      20.612 -39.206  27.935  0.00  0.00     0.080 H 
ATOM     50  H   SGN d   2      25.839 -33.817  31.121  0.00  0.00     0.231 HD
ATOM     51  H   SGN d   2      20.877 -36.071  29.783  0.00  0.00     0.091 H 
ATOM     52  H   SGN d   2      26.920 -35.940  30.535  0.00  0.00     0.231 HD
ATOM     53  H   SGN d   2      27.117 -35.039  32.807  0.00  0.00     0.231 HD
ATOM     54  H   SGN d   2      24.332 -37.388  32.683  0.00  0.00     0.140 HD
ATOM     55  O3  SGN d   4      23.390 -44.702  31.457  0.00  0.00    -0.391 OA
ATOM     56  C5  SGN d   4      25.597 -44.586  34.499  0.00  0.00     0.091 C 
ATOM     57  C1  SGN d   4      24.975 -46.856  34.117  0.00  0.00     0.147 C 
ATOM     58  O1S SGN d   4      21.386 -47.771  32.655  0.00  0.00    -0.296 OA
ATOM     59  S2  SGN d   4      26.725 -43.249  37.835  0.00  0.00     0.251 S 
ATOM     60  S1  SGN d   4      22.666 -48.533  32.475  0.00  0.00     0.156 S 
ATOM     61  C4  SGN d   4      24.627 -44.072  33.434  0.00  0.00     0.095 C 
ATOM     62  O6S SGN d   4      28.157 -43.265  38.284  0.00  0.00    -0.572 OA
ATOM     63  O4  SGN d   4      25.132 -42.869  32.845  0.00  0.00    -0.348 OA
ATOM     64  N   SGN d   4      23.847 -47.503  32.027  0.00  0.00    -0.210 NA
ATOM     65  O3S SGN d   4      23.042 -49.198  33.767  0.00  0.00    -0.296 OA
ATOM     66  C6  SGN d   4      25.725 -43.530  35.597  0.00  0.00     0.067 C 
ATOM     67  O2S SGN d   4      22.483 -49.569  31.405  0.00  0.00    -0.296 OA
ATOM     68  C2  SGN d   4      23.985 -46.437  33.029  0.00  0.00     0.081 C 
ATOM     69  O6  SGN d   4      26.609 -43.991  36.619  0.00  0.00    -0.254 OA
ATOM     70  O4S SGN d   4      26.285 -41.834  37.601  0.00  0.00    -0.572 OA
ATOM     71  C3  SGN d   4      24.418 -45.134  32.353  0.00  0.00     0.083 C 
ATOM     72  O1  SGN d   4      26.259 -47.130  33.550  0.00  0.00    -0.369 OA
ATOM     73  O5  SGN d   4      25.080 -45.795  35.081  0.00  0.00    -0.350 OA
ATOM     74  O5S SGN d   4      25.856 -43.864  38.892  0.00  0.00    -0.572 OA
ATOM     75  H   SGN d   4      23.662 -43.875  31.028  0.00  0.00     0.210 HD
ATOM     76  H   SGN d   4      26.550 -44.781  34.053  0.00  0.00     0.090 H 
ATOM     77  H   SGN d   4      24.624 -47.747  34.592  0.00  0.00     0.131 H 
ATOM     78  H   SGN d   4      21.145 -47.341  31.820  0.00  0.00     0.231 HD
ATOM     79  H   SGN d   4      23.687 -43.862  33.900  0.00  0.00     0.091 H 
ATOM     80  H   SGN d   4      23.613 -47.091  31.124  0.00  0.00     0.140 HD
ATOM     81  H   SGN d   4      23.159 -48.525  34.455  0.00  0.00     0.231 HD
ATOM     82  H   SGN d   4      24.760 -43.342  36.020  0.00  0.00     0.080 H 
ATOM     83  H   SGN d   4      26.117 -42.629  35.173  0.00  0.00     0.080 H 
ATOM     84  H   SGN d   4      22.241 -49.134  30.572  0.00  0.00     0.231 HD
ATOM     85  H   SGN d   4      23.037 -46.270  33.496  0.00  0.00     0.076 H 
ATOM     86  H   SGN d   4      25.326 -45.287  31.806  0.00  0.00     0.089 H 
ATOM     87  H   SGN d   4      26.597 -46.332  33.113  0.00  0.00     0.212 HD
ATOM     88  C1  IDS d   3      24.524 -41.687  33.267  0.00  0.00     0.161 C 
ATOM     89  O61 IDS d   3      20.994 -41.281  31.384  0.00  0.00    -0.646 OA
ATOM     90  O3S IDS d   3      24.476 -38.051  35.584  0.00  0.00    -0.572 OA
ATOM     91  O3  IDS d   3      26.295 -41.270  30.875  0.00  0.00    -0.390 OA
ATOM     92  C5  IDS d   3      23.361 -41.473  31.199  0.00  0.00     0.152 C 
ATOM     93  O4  IDS d   3      23.401 -39.039  31.230  0.00  0.00    -0.348 OA
ATOM     94  S   IDS d   3      25.380 -38.995  34.847  0.00  0.00     0.252 S 
ATOM     95  C2  IDS d   3      25.393 -40.460  32.974  0.00  0.00     0.134 C 
ATOM     96  O2S IDS d   3      25.559 -40.226  35.686  0.00  0.00    -0.572 OA
ATOM     97  O5  IDS d   3      23.244 -41.557  32.627  0.00  0.00    -0.340 OA
ATOM     98  C6  IDS d   3      21.951 -41.447  30.604  0.00  0.00     0.206 C 
ATOM     99  C3  IDS d   3      25.510 -40.230  31.466  0.00  0.00     0.094 C 
ATOM    100  O2  IDS d   3      24.782 -39.320  33.588  0.00  0.00    -0.244 OA
ATOM    101  C4  IDS d   3      24.122 -40.203  30.818  0.00  0.00     0.103 C 
ATOM    102  O62 IDS d   3      21.839 -41.603  29.365  0.00  0.00    -0.646 OA
ATOM    103  O1S IDS d   3      26.710 -38.343  34.608  0.00  0.00    -0.572 OA
ATOM    104  H   IDS d   3      24.396 -41.736  34.329  0.00  0.00     0.133 H 
ATOM    105  H   IDS d   3      27.173 -41.285  31.287  0.00  0.00     0.210 HD
ATOM    106  H   IDS d   3      23.900 -42.315  30.818  0.00  0.00     0.104 H 
ATOM    107  H   IDS d   3      26.376 -40.617  33.366  0.00  0.00     0.097 H 
ATOM    108  H   IDS d   3      25.985 -39.285  31.302  0.00  0.00     0.091 H 
ATOM    109  H   IDS d   3      24.230 -40.165  29.754  0.00  0.00     0.092 H 
ENDROOT
TORSDOF 34
ENDMDL
MODEL 7
REMARK VINA RESULT:     -10.4      2.285      3.172
REMARK  0 active torsions:
REMARK  status: ('A' for Active; 'I' for Inactive)
REMARK       I    between atoms: C5_1  and  C6_10 
REMARK       I    between atoms: S2_2  and  O6_59 
REMARK       I    between atoms: O3_3  and  C3_61 
REMARK       I    between atoms: C5_5  and  C6_35 
REMARK       I    between atoms: C2_6  and  N_67 
REMARK       I    between atoms: C4_9  and  O4_55 
REMARK       I    between atoms: C1_11  and  O1_63 
REMARK       I    between atoms: C1_12  and  O4_30 
REMARK       I    between atoms: O1S_13  and  S1_24 
REMARK       I    between atoms: C3_14  and  O3_18 
REMARK       I    between atoms: C1_16  and  O4_29 
REMARK       I    between atoms: C2_19  and  O2_41 
REMARK       I    between atoms: C1_20  and  O4_38 
REMARK       I    between atoms: S2_21  and  O6_47 
REMARK       I    between atoms: O3_23  and  C3_58 
REMARK       I    between atoms: S1_24  and  N_33 
REMARK       I    between atoms: S1_24  and  O2S_37 
REMARK       I    between atoms: S1_24  and  O3S_34 
REMARK       I    between atoms: C4_25  and  O4_30 
REMARK       I    between atoms: C5_28  and  C6_56 
REMARK       I    between atoms: O4_29  and  C4_65 
REMARK       I    between atoms: S_31  and  O2_60 
REMARK       I    between atoms: C2_32  and  O2_60 
REMARK       I    between atoms: N_33  and  C2_46 
REMARK       I    between atoms: C6_35  and  O6_47 
REMARK       I    between atoms: C5_36  and  C6_40 
REMARK       I    between atoms: O4_38  and  C4_45 
REMARK       I    between atoms: C6_40  and  O6_59 
REMARK       I    between atoms: O2_41  and  S_54 
REMARK       I    between atoms: O1S_42  and  S1_53 
REMARK       I    between atoms: O3_43  and  C3_44 
REMARK       I    between atoms: O3S_50  and  S1_53 
REMARK       I    between atoms: O2S_52  and  S1_53 
REMARK       I    between atoms: S1_53  and  N_67 
ROOT
ATOM      1  C5  IDS d   1      25.322 -37.995  34.848  0.00  0.00     0.152 C 
ATOM      2  O2S IDS d   1      21.724 -35.668  31.565  0.00  0.00    -0.572 OA
ATOM      3  C4  IDS d   1      24.145 -37.015  34.870  0.00  0.00     0.097 C 
ATOM      4  C6  IDS d   1      26.531 -37.371  35.553  0.00  0.00     0.206 C 
ATOM      5  C2  IDS d   1      23.427 -37.966  32.668  0.00  0.00     0.134 C 
ATOM      6  C1  IDS d   1      24.622 -38.922  32.756  0.00  0.00     0.161 C 
ATOM      7  O61 IDS d   1      27.646 -37.447  34.988  0.00  0.00    -0.646 OA
ATOM      8  O3S IDS d   1      22.335 -37.661  30.288  0.00  0.00    -0.572 OA
ATOM      9  O2  IDS d   1      23.816 -36.785  31.958  0.00  0.00    -0.244 OA
ATOM     10  O3  IDS d   1      22.388 -38.699  34.731  0.00  0.00    -0.390 OA
ATOM     11  C3  IDS d   1      22.962 -37.567  34.070  0.00  0.00     0.094 C 
ATOM     12  O62 IDS d   1      26.356 -36.840  36.668  0.00  0.00    -0.646 OA
ATOM     13  S   IDS d   1      22.864 -36.425  30.951  0.00  0.00     0.252 S 
ATOM     14  O4  IDS d   1      24.545 -35.747  34.343  0.00  0.00    -0.390 OA
ATOM     15  O5  IDS d   1      25.694 -38.314  33.497  0.00  0.00    -0.340 OA
ATOM     16  O1S IDS d   1      23.535 -35.563  29.923  0.00  0.00    -0.572 OA
ATOM     17  H   IDS d   1      25.019 -38.889  35.353  0.00  0.00     0.104 H 
ATOM     18  H   IDS d   1      23.835 -36.889  35.886  0.00  0.00     0.091 H 
ATOM     19  H   IDS d   1      22.627 -38.460  32.158  0.00  0.00     0.097 H 
ATOM     20  H   IDS d   1      24.946 -39.127  31.757  0.00  0.00     0.133 H 
ATOM     21  H   IDS d   1      22.094 -38.441  35.619  0.00  0.00     0.210 HD
ATOM     22  H   IDS d   1      22.216 -36.802  33.994  0.00  0.00     0.091 H 
ATOM     23  H   IDS d   1      24.827 -35.855  33.421  0.00  0.00     0.210 HD
ATOM     24  S2  SGN d   2      26.409 -40.710  29.408  0.00  0.00     0.251 S 
ATOM     25  C2  SGN d   2      26.340 -42.876  34.866  0.00  0.00     0.081 C 
ATOM     26  O5S SGN d   2      27.779 -40.102  29.399  0.00  0.00    -0.572 OA
ATOM     27  O4S SGN d   2      25.386 -39.632  29.199  0.00  0.00    -0.572 OA
ATOM     28  C3  SGN d   2      25.367 -41.695  34.848  0.00  0.00     0.083 C 
ATOM     29  C1  SGN d   2      25.910 -43.955  33.870  0.00  0.00     0.150 C 
ATOM     30  O3  SGN d   2      25.875 -40.655  35.688  0.00  0.00    -0.391 OA
ATOM     31  C5  SGN d   2      24.848 -42.311  32.463  0.00  0.00     0.091 C 
ATOM     32  O4  SGN d   2      24.263 -40.131  33.369  0.00  0.00    -0.348 OA
ATOM     33  C6  SGN d   2      24.858 -41.781  31.026  0.00  0.00     0.067 C 
ATOM     34  O1S SGN d   2      28.952 -42.952  36.374  0.00  0.00    -0.296 OA
ATOM     35  C4  SGN d   2      25.239 -41.177  33.415  0.00  0.00     0.095 C 
ATOM     36  O6S SGN d   2      26.307 -41.717  28.301  0.00  0.00    -0.572 OA
ATOM     37  O3S SGN d   2      28.210 -45.128  35.500  0.00  0.00    -0.296 OA
ATOM     38  O2S SGN d   2      27.981 -44.609  37.883  0.00  0.00    -0.296 OA
ATOM     39  S1  SGN d   2      27.927 -44.041  36.495  0.00  0.00     0.156 S 
ATOM     40  O6  SGN d   2      26.173 -41.347  30.666  0.00  0.00    -0.254 OA
ATOM     41  N   SGN d   2      26.440 -43.428  36.226  0.00  0.00    -0.210 NA
ATOM     42  O5  SGN d   2      25.807 -43.378  32.556  0.00  0.00    -0.349 OA
ATOM     43  H   SGN d   2      27.306 -42.524  34.569  0.00  0.00     0.076 H 
ATOM     44  H   SGN d   2      24.408 -42.007  35.206  0.00  0.00     0.089 H 
ATOM     45  H   SGN d   2      26.645 -44.732  33.877  0.00  0.00     0.131 H 
ATOM     46  H   SGN d   2      26.745 -40.374  35.364  0.00  0.00     0.210 HD
ATOM     47  H   SGN d   2      23.876 -42.671  32.727  0.00  0.00     0.090 H 
ATOM     48  H   SGN d   2      24.181 -40.957  30.949  0.00  0.00     0.080 H 
ATOM     49  H   SGN d   2      24.557 -42.566  30.363  0.00  0.00     0.080 H 
ATOM     50  H   SGN d   2      29.835 -43.321  36.534  0.00  0.00     0.231 HD
ATOM     51  H   SGN d   2      26.186 -40.790  33.102  0.00  0.00     0.091 H 
ATOM     52  H   SGN d   2      29.095 -45.491  35.661  0.00  0.00     0.231 HD
ATOM     53  H   SGN d   2      28.864 -44.975  38.048  0.00  0.00     0.231 HD
ATOM     54  H   SGN d   2      25.748 -44.169  36.338  0.00  0.00     0.140 HD
ATOM     55  O3  SGN d   4      20.427 -47.875  32.618  0.00  0.00    -0.391 OA
ATOM     56  C5  SGN d   4      20.328 -49.390  36.058  0.00  0.00     0.091 C 
ATOM     57  C1  SGN d   4      18.507 -50.278  34.802  0.00  0.00     0.147 C 
ATOM     58  O1S SGN d   4      16.609 -48.047  32.104  0.00  0.00    -0.296 OA
ATOM     59  S2  SGN d   4      20.437 -49.295  39.822  0.00  0.00     0.251 S 
ATOM     60  S1  SGN d   4      16.794 -49.537  32.089  0.00  0.00     0.156 S 
ATOM     61  C4  SGN d   4      20.667 -48.369  34.970  0.00  0.00     0.095 C 
ATOM     62  O6S SGN d   4      20.973 -50.421  40.656  0.00  0.00    -0.572 OA
ATOM     63  O4  SGN d   4      22.070 -48.085  34.979  0.00  0.00    -0.348 OA
ATOM     64  N   SGN d   4      18.360 -49.888  32.375  0.00  0.00    -0.210 NA
ATOM     65  O3S SGN d   4      15.936 -50.160  33.151  0.00  0.00    -0.296 OA
ATOM     66  C6  SGN d   4      20.690 -48.795  37.419  0.00  0.00     0.067 C 
ATOM     67  O2S SGN d   4      16.407 -50.074  30.742  0.00  0.00    -0.296 OA
ATOM     68  C2  SGN d   4      18.775 -49.300  33.657  0.00  0.00     0.081 C 
ATOM     69  O6  SGN d   4      20.364 -49.718  38.459  0.00  0.00    -0.254 OA
ATOM     70  O4S SGN d   4      21.349 -48.109  39.929  0.00  0.00    -0.572 OA
ATOM     71  C3  SGN d   4      20.252 -48.903  33.598  0.00  0.00     0.083 C 
ATOM     72  O1  SGN d   4      19.221 -51.500  34.596  0.00  0.00    -0.369 OA
ATOM     73  O5  SGN d   4      18.918 -49.670  36.037  0.00  0.00    -0.350 OA
ATOM     74  O5S SGN d   4      19.071 -48.909  40.310  0.00  0.00    -0.572 OA
ATOM     75  H   SGN d   4      21.363 -47.621  32.579  0.00  0.00     0.210 HD
ATOM     76  H   SGN d   4      20.876 -50.293  35.886  0.00  0.00     0.090 H 
ATOM     77  H   SGN d   4      17.462 -50.505  34.837  0.00  0.00     0.131 H 
ATOM     78  H   SGN d   4      17.164 -47.646  31.417  0.00  0.00     0.231 HD
ATOM     79  H   SGN d   4      20.129 -47.466  35.168  0.00  0.00     0.091 H 
ATOM     80  H   SGN d   4      18.935 -49.505  31.625  0.00  0.00     0.140 HD
ATOM     81  H   SGN d   4      16.190 -49.810  34.019  0.00  0.00     0.231 HD
ATOM     82  H   SGN d   4      20.141 -47.888  37.565  0.00  0.00     0.080 H 
ATOM     83  H   SGN d   4      21.740 -48.593  37.446  0.00  0.00     0.080 H 
ATOM     84  H   SGN d   4      16.964 -49.668  30.060  0.00  0.00     0.231 HD
ATOM     85  H   SGN d   4      18.201 -48.416  33.840  0.00  0.00     0.076 H 
ATOM     86  H   SGN d   4      20.851 -49.751  33.335  0.00  0.00     0.089 H 
ATOM     87  H   SGN d   4      20.173 -51.316  34.562  0.00  0.00     0.212 HD
ATOM     88  C1  IDS d   3      22.437 -46.866  35.550  0.00  0.00     0.161 C 
ATOM     89  O61 IDS d   3      21.724 -43.916  32.912  0.00  0.00    -0.646 OA
ATOM     90  O3S IDS d   3      24.067 -44.514  38.773  0.00  0.00    -0.572 OA
ATOM     91  O3  IDS d   3      24.710 -48.169  34.076  0.00  0.00    -0.390 OA
ATOM     92  C5  IDS d   3      22.894 -45.930  33.407  0.00  0.00     0.152 C 
ATOM     93  O4  IDS d   3      24.687 -44.500  34.224  0.00  0.00    -0.348 OA
ATOM     94  S   IDS d   3      24.166 -45.844  38.087  0.00  0.00     0.252 S 
ATOM     95  C2  IDS d   3      23.917 -46.841  35.943  0.00  0.00     0.134 C 
ATOM     96  O2S IDS d   3      22.990 -46.676  38.502  0.00  0.00    -0.572 OA
ATOM     97  O5  IDS d   3      22.147 -45.804  34.627  0.00  0.00    -0.340 OA
ATOM     98  C6  IDS d   3      22.440 -44.824  32.451  0.00  0.00     0.206 C 
ATOM     99  C3  IDS d   3      24.806 -46.884  34.699  0.00  0.00     0.094 C 
ATOM    100  O2  IDS d   3      24.168 -45.634  36.671  0.00  0.00    -0.244 OA
ATOM    101  C4  IDS d   3      24.388 -45.798  33.702  0.00  0.00     0.103 C 
ATOM    102  O62 IDS d   3      22.810 -44.900  31.256  0.00  0.00    -0.646 OA
ATOM    103  O1S IDS d   3      25.441 -46.528  38.486  0.00  0.00    -0.572 OA
ATOM    104  H   IDS d   3      21.870 -46.732  36.448  0.00  0.00     0.133 H 
ATOM    105  H   IDS d   3      24.975 -48.855  34.709  0.00  0.00     0.210 HD
ATOM    106  H   IDS d   3      22.723 -46.888  32.961  0.00  0.00     0.104 H 
ATOM    107  H   IDS d   3      24.142 -47.697  36.545  0.00  0.00     0.097 H 
ATOM    108  H   IDS d   3      25.818 -46.706  34.998  0.00  0.00     0.091 H 
ATOM    109  H   IDS d   3      24.938 -45.923  32.793  0.00  0.00     0.092 H 
ENDROOT
TORSDOF 34
ENDMDL
MODEL 8
REMARK VINA RESULT:     -10.4      3.853      8.608
REMARK  0 active torsions:
REMARK  status: ('A' for Active; 'I' for Inactive)
REMARK       I    between atoms: C5_1  and  C6_10 
REMARK       I    between atoms: S2_2  and  O6_59 
REMARK       I    between atoms: O3_3  and  C3_61 
REMARK       I    between atoms: C5_5  and  C6_35 
REMARK       I    between atoms: C2_6  and  N_67 
REMARK       I    between atoms: C4_9  and  O4_55 
REMARK       I    between atoms: C1_11  and  O1_63 
REMARK       I    between atoms: C1_12  and  O4_30 
REMARK       I    between atoms: O1S_13  and  S1_24 
REMARK       I    between atoms: C3_14  and  O3_18 
REMARK       I    between atoms: C1_16  and  O4_29 
REMARK       I    between atoms: C2_19  and  O2_41 
REMARK       I    between atoms: C1_20  and  O4_38 
REMARK       I    between atoms: S2_21  and  O6_47 
REMARK       I    between atoms: O3_23  and  C3_58 
REMARK       I    between atoms: S1_24  and  N_33 
REMARK       I    between atoms: S1_24  and  O2S_37 
REMARK       I    between atoms: S1_24  and  O3S_34 
REMARK       I    between atoms: C4_25  and  O4_30 
REMARK       I    between atoms: C5_28  and  C6_56 
REMARK       I    between atoms: O4_29  and  C4_65 
REMARK       I    between atoms: S_31  and  O2_60 
REMARK       I    between atoms: C2_32  and  O2_60 
REMARK       I    between atoms: N_33  and  C2_46 
REMARK       I    between atoms: C6_35  and  O6_47 
REMARK       I    between atoms: C5_36  and  C6_40 
REMARK       I    between atoms: O4_38  and  C4_45 
REMARK       I    between atoms: C6_40  and  O6_59 
REMARK       I    between atoms: O2_41  and  S_54 
REMARK       I    between atoms: O1S_42  and  S1_53 
REMARK       I    between atoms: O3_43  and  C3_44 
REMARK       I    between atoms: O3S_50  and  S1_53 
REMARK       I    between atoms: O2S_52  and  S1_53 
REMARK       I    between atoms: S1_53  and  N_67 
ROOT
ATOM      1  C5  IDS d   1      22.092 -37.694  27.233  0.00  0.00     0.152 C 
ATOM      2  O2S IDS d   1      24.888 -33.213  26.112  0.00  0.00    -0.572 OA
ATOM      3  C4  IDS d   1      23.174 -37.167  26.284  0.00  0.00     0.097 C 
ATOM      4  C6  IDS d   1      20.973 -38.361  26.425  0.00  0.00     0.206 C 
ATOM      5  C2  IDS d   1      23.584 -35.318  27.921  0.00  0.00     0.134 C 
ATOM      6  C1  IDS d   1      22.501 -35.940  28.809  0.00  0.00     0.161 C 
ATOM      7  O61 IDS d   1      19.789 -38.071  26.710  0.00  0.00    -0.646 OA
ATOM      8  O3S IDS d   1      24.231 -32.814  28.433  0.00  0.00    -0.572 OA
ATOM      9  O2  IDS d   1      22.987 -34.338  27.063  0.00  0.00    -0.244 OA
ATOM     10  O3  IDS d   1      25.012 -37.275  27.882  0.00  0.00    -0.390 OA
ATOM     11  C3  IDS d   1      24.245 -36.392  27.056  0.00  0.00     0.094 C 
ATOM     12  O62 IDS d   1      21.291 -39.180  25.540  0.00  0.00    -0.646 OA
ATOM     13  S   IDS d   1      23.725 -33.111  27.054  0.00  0.00     0.252 S 
ATOM     14  O4  IDS d   1      22.590 -36.330  25.281  0.00  0.00    -0.390 OA
ATOM     15  O5  IDS d   1      21.524 -36.621  28.003  0.00  0.00    -0.340 OA
ATOM     16  O1S IDS d   1      22.823 -31.998  26.609  0.00  0.00    -0.572 OA
ATOM     17  H   IDS d   1      22.546 -38.402  27.893  0.00  0.00     0.104 H 
ATOM     18  H   IDS d   1      23.639 -38.006  25.811  0.00  0.00     0.091 H 
ATOM     19  H   IDS d   1      24.323 -34.863  28.546  0.00  0.00     0.097 H 
ATOM     20  H   IDS d   1      22.031 -35.146  29.350  0.00  0.00     0.133 H 
ATOM     21  H   IDS d   1      25.429 -37.955  27.330  0.00  0.00     0.210 HD
ATOM     22  H   IDS d   1      24.904 -35.928  26.351  0.00  0.00     0.091 H 
ATOM     23  H   IDS d   1      22.167 -35.567  25.704  0.00  0.00     0.210 HD
ATOM     24  S2  SGN d   2      20.325 -33.777  31.670  0.00  0.00     0.251 S 
ATOM     25  C2  SGN d   2      21.485 -39.532  31.827  0.00  0.00     0.081 C 
ATOM     26  O5S SGN d   2      18.928 -33.820  31.126  0.00  0.00    -0.572 OA
ATOM     27  O4S SGN d   2      21.208 -33.033  30.711  0.00  0.00    -0.572 OA
ATOM     28  C3  SGN d   2      22.344 -38.940  30.708  0.00  0.00     0.083 C 
ATOM     29  C1  SGN d   2      21.826 -38.893  33.175  0.00  0.00     0.150 C 
ATOM     30  O3  SGN d   2      21.903 -39.463  29.451  0.00  0.00    -0.391 OA
ATOM     31  C5  SGN d   2      22.501 -36.846  32.096  0.00  0.00     0.091 C 
ATOM     32  O4  SGN d   2      23.054 -36.845  29.728  0.00  0.00    -0.348 OA
ATOM     33  C6  SGN d   2      22.206 -35.343  32.093  0.00  0.00     0.067 C 
ATOM     34  O1S SGN d   2      19.180 -41.436  31.427  0.00  0.00    -0.296 OA
ATOM     35  C4  SGN d   2      22.187 -37.419  30.711  0.00  0.00     0.095 C 
ATOM     36  O6S SGN d   2      20.318 -33.073  32.994  0.00  0.00    -0.572 OA
ATOM     37  O3S SGN d   2      19.935 -41.218  33.756  0.00  0.00    -0.296 OA
ATOM     38  O2S SGN d   2      20.520 -43.204  32.447  0.00  0.00    -0.296 OA
ATOM     39  S1  SGN d   2      20.294 -41.722  32.389  0.00  0.00     0.156 S 
ATOM     40  O6  SGN d   2      20.819 -35.109  31.832  0.00  0.00    -0.254 OA
ATOM     41  N   SGN d   2      21.660 -40.991  31.880  0.00  0.00    -0.210 NA
ATOM     42  O5  SGN d   2      21.660 -37.467  33.082  0.00  0.00    -0.349 OA
ATOM     43  H   SGN d   2      20.458 -39.319  31.616  0.00  0.00     0.076 H 
ATOM     44  H   SGN d   2      23.372 -39.196  30.861  0.00  0.00     0.089 H 
ATOM     45  H   SGN d   2      21.168 -39.296  33.915  0.00  0.00     0.131 H 
ATOM     46  H   SGN d   2      20.972 -39.230  29.313  0.00  0.00     0.210 HD
ATOM     47  H   SGN d   2      23.529 -37.029  32.326  0.00  0.00     0.090 H 
ATOM     48  H   SGN d   2      22.793 -34.870  31.333  0.00  0.00     0.080 H 
ATOM     49  H   SGN d   2      22.453 -34.937  33.051  0.00  0.00     0.080 H 
ATOM     50  H   SGN d   2      18.369 -41.871  31.733  0.00  0.00     0.231 HD
ATOM     51  H   SGN d   2      21.172 -37.176  30.472  0.00  0.00     0.091 H 
ATOM     52  H   SGN d   2      19.122 -41.653  34.058  0.00  0.00     0.231 HD
ATOM     53  H   SGN d   2      19.710 -43.643  32.749  0.00  0.00     0.231 HD
ATOM     54  H   SGN d   2      22.419 -41.214  32.525  0.00  0.00     0.140 HD
ATOM     55  O3  SGN d   4      27.315 -38.029  37.190  0.00  0.00    -0.391 OA
ATOM     56  C5  SGN d   4      28.114 -41.696  37.429  0.00  0.00     0.091 C 
ATOM     57  C1  SGN d   4      29.762 -40.494  38.662  0.00  0.00     0.147 C 
ATOM     58  O1S SGN d   4      30.993 -36.902  37.461  0.00  0.00    -0.296 OA
ATOM     59  S2  SGN d   4      28.634 -45.162  36.049  0.00  0.00     0.251 S 
ATOM     60  S1  SGN d   4      30.929 -37.422  38.868  0.00  0.00     0.156 S 
ATOM     61  C4  SGN d   4      27.515 -40.412  36.850  0.00  0.00     0.095 C 
ATOM     62  O6S SGN d   4      28.338 -46.409  36.829  0.00  0.00    -0.572 OA
ATOM     63  O4  SGN d   4      26.116 -40.586  36.605  0.00  0.00    -0.348 OA
ATOM     64  N   SGN d   4      29.466 -38.094  39.127  0.00  0.00    -0.210 NA
ATOM     65  O3S SGN d   4      32.000 -38.452  39.074  0.00  0.00    -0.296 OA
ATOM     66  C6  SGN d   4      27.940 -42.821  36.409  0.00  0.00     0.067 C 
ATOM     67  O2S SGN d   4      31.125 -36.285  39.828  0.00  0.00    -0.296 OA
ATOM     68  C2  SGN d   4      29.227 -39.159  38.142  0.00  0.00     0.081 C 
ATOM     69  O6  SGN d   4      28.510 -44.030  36.912  0.00  0.00    -0.254 OA
ATOM     70  O4S SGN d   4      27.660 -45.033  34.914  0.00  0.00    -0.572 OA
ATOM     71  C3  SGN d   4      27.735 -39.246  37.816  0.00  0.00     0.083 C 
ATOM     72  O1  SGN d   4      29.124 -40.846  39.893  0.00  0.00    -0.369 OA
ATOM     73  O5  SGN d   4      29.518 -41.508  37.674  0.00  0.00    -0.350 OA
ATOM     74  O5S SGN d   4      30.026 -45.229  35.494  0.00  0.00    -0.572 OA
ATOM     75  H   SGN d   4      26.369 -38.082  36.981  0.00  0.00     0.210 HD
ATOM     76  H   SGN d   4      27.619 -41.941  38.346  0.00  0.00     0.090 H 
ATOM     77  H   SGN d   4      30.812 -40.408  38.845  0.00  0.00     0.131 H 
ATOM     78  H   SGN d   4      30.300 -36.237  37.330  0.00  0.00     0.231 HD
ATOM     79  H   SGN d   4      28.005 -40.193  35.925  0.00  0.00     0.091 H 
ATOM     80  H   SGN d   4      28.744 -37.380  39.036  0.00  0.00     0.140 HD
ATOM     81  H   SGN d   4      31.869 -39.184  38.451  0.00  0.00     0.231 HD
ATOM     82  H   SGN d   4      28.431 -42.550  35.498  0.00  0.00     0.080 H 
ATOM     83  H   SGN d   4      26.897 -42.973  36.228  0.00  0.00     0.080 H 
ATOM     84  H   SGN d   4      30.429 -35.622  39.691  0.00  0.00     0.231 HD
ATOM     85  H   SGN d   4      29.751 -38.925  37.239  0.00  0.00     0.076 H 
ATOM     86  H   SGN d   4      27.170 -39.398  38.712  0.00  0.00     0.089 H 
ATOM     87  H   SGN d   4      28.168 -40.929  39.749  0.00  0.00     0.212 HD
ATOM     88  C1  IDS d   3      25.754 -40.774  35.271  0.00  0.00     0.161 C 
ATOM     89  O61 IDS d   3      25.774 -37.217  33.394  0.00  0.00    -0.646 OA
ATOM     90  O3S IDS d   3      24.508 -43.268  31.983  0.00  0.00    -0.572 OA
ATOM     91  O3  IDS d   3      23.377 -40.270  37.039  0.00  0.00    -0.390 OA
ATOM     92  C5  IDS d   3      24.869 -38.566  35.136  0.00  0.00     0.152 C 
ATOM     93  O4  IDS d   3      23.131 -39.175  33.544  0.00  0.00    -0.348 OA
ATOM     94  S   IDS d   3      24.401 -43.097  33.469  0.00  0.00     0.252 S 
ATOM     95  C2  IDS d   3      24.365 -41.404  35.138  0.00  0.00     0.134 C 
ATOM     96  O2S IDS d   3      25.694 -43.540  34.088  0.00  0.00    -0.572 OA
ATOM     97  O5  IDS d   3      25.799 -39.511  34.586  0.00  0.00    -0.340 OA
ATOM     98  C6  IDS d   3      25.065 -37.228  34.417  0.00  0.00     0.206 C 
ATOM     99  C3  IDS d   3      23.285 -40.433  35.621  0.00  0.00     0.094 C 
ATOM    100  O2  IDS d   3      24.144 -41.719  33.759  0.00  0.00    -0.244 OA
ATOM    101  C4  IDS d   3      23.440 -39.072  34.937  0.00  0.00     0.103 C 
ATOM    102  O62 IDS d   3      24.507 -36.218  34.906  0.00  0.00    -0.646 OA
ATOM    103  O1S IDS d   3      23.271 -43.931  33.997  0.00  0.00    -0.572 OA
ATOM    104  H   IDS d   3      26.452 -41.453  34.826  0.00  0.00     0.133 H 
ATOM    105  H   IDS d   3      23.278 -41.133  37.471  0.00  0.00     0.210 HD
ATOM    106  H   IDS d   3      25.039 -38.442  36.185  0.00  0.00     0.104 H 
ATOM    107  H   IDS d   3      24.314 -42.288  35.739  0.00  0.00     0.097 H 
ATOM    108  H   IDS d   3      22.326 -40.838  35.369  0.00  0.00     0.091 H 
ATOM    109  H   IDS d   3      22.757 -38.376  35.376  0.00  0.00     0.092 H 
ENDROOT
TORSDOF 34
ENDMDL
MODEL 9
REMARK VINA RESULT:     -10.1      4.052      6.963
REMARK  0 active torsions:
REMARK  status: ('A' for Active; 'I' for Inactive)
REMARK       I    between atoms: C5_1  and  C6_10 
REMARK       I    between atoms: S2_2  and  O6_59 
REMARK       I    between atoms: O3_3  and  C3_61 
REMARK       I    between atoms: C5_5  and  C6_35 
REMARK       I    between atoms: C2_6  and  N_67 
REMARK       I    between atoms: C4_9  and  O4_55 
REMARK       I    between atoms: C1_11  and  O1_63 
REMARK       I    between atoms: C1_12  and  O4_30 
REMARK       I    between atoms: O1S_13  and  S1_24 
REMARK       I    between atoms: C3_14  and  O3_18 
REMARK       I    between atoms: C1_16  and  O4_29 
REMARK       I    between atoms: C2_19  and  O2_41 
REMARK       I    between atoms: C1_20  and  O4_38 
REMARK       I    between atoms: S2_21  and  O6_47 
REMARK       I    between atoms: O3_23  and  C3_58 
REMARK       I    between atoms: S1_24  and  N_33 
REMARK       I    between atoms: S1_24  and  O2S_37 
REMARK       I    between atoms: S1_24  and  O3S_34 
REMARK       I    between atoms: C4_25  and  O4_30 
REMARK       I    between atoms: C5_28  and  C6_56 
REMARK       I    between atoms: O4_29  and  C4_65 
REMARK       I    between atoms: S_31  and  O2_60 
REMARK       I    between atoms: C2_32  and  O2_60 
REMARK       I    between atoms: N_33  and  C2_46 
REMARK       I    between atoms: C6_35  and  O6_47 
REMARK       I    between atoms: C5_36  and  C6_40 
REMARK       I    between atoms: O4_38  and  C4_45 
REMARK       I    between atoms: C6_40  and  O6_59 
REMARK       I    between atoms: O2_41  and  S_54 
REMARK       I    between atoms: O1S_42  and  S1_53 
REMARK       I    between atoms: O3_43  and  C3_44 
REMARK       I    between atoms: O3S_50  and  S1_53 
REMARK       I    between atoms: O2S_52  and  S1_53 
REMARK       I    between atoms: S1_53  and  N_67 
ROOT
ATOM      1  C5  IDS d   1      18.559 -34.406  31.775  0.00  0.00     0.152 C 
ATOM      2  O2S IDS d   1      14.197 -37.565  31.407  0.00  0.00    -0.572 OA
ATOM      3  C4  IDS d   1      17.268 -34.751  32.524  0.00  0.00     0.097 C 
ATOM      4  C6  IDS d   1      18.669 -32.888  31.600  0.00  0.00     0.206 C 
ATOM      5  C2  IDS d   1      17.179 -36.880  31.210  0.00  0.00     0.134 C 
ATOM      6  C1  IDS d   1      18.488 -36.453  30.537  0.00  0.00     0.161 C 
ATOM      7  O61 IDS d   1      18.979 -32.446  30.470  0.00  0.00    -0.646 OA
ATOM      8  O3S IDS d   1      15.793 -38.768  29.999  0.00  0.00    -0.572 OA
ATOM      9  O2  IDS d   1      16.072 -36.425  30.424  0.00  0.00    -0.244 OA
ATOM     10  O3  IDS d   1      18.056 -36.855  33.469  0.00  0.00    -0.390 OA
ATOM     11  C3  IDS d   1      17.075 -36.267  32.608  0.00  0.00     0.094 C 
ATOM     12  O62 IDS d   1      18.471 -32.163  32.595  0.00  0.00    -0.646 OA
ATOM     13  S   IDS d   1      15.100 -37.456  30.215  0.00  0.00     0.252 S 
ATOM     14  O4  IDS d   1      16.143 -34.148  31.877  0.00  0.00    -0.390 OA
ATOM     15  O5  IDS d   1      18.572 -35.019  30.474  0.00  0.00    -0.340 OA
ATOM     16  O1S IDS d   1      14.283 -37.125  29.002  0.00  0.00    -0.572 OA
ATOM     17  H   IDS d   1      19.384 -34.774  32.348  0.00  0.00     0.104 H 
ATOM     18  H   IDS d   1      17.347 -34.365  33.518  0.00  0.00     0.091 H 
ATOM     19  H   IDS d   1      17.164 -37.947  31.290  0.00  0.00     0.097 H 
ATOM     20  H   IDS d   1      18.488 -36.857  29.547  0.00  0.00     0.133 H 
ATOM     21  H   IDS d   1      17.987 -36.464  34.353  0.00  0.00     0.210 HD
ATOM     22  H   IDS d   1      16.104 -36.465  33.013  0.00  0.00     0.091 H 
ATOM     23  H   IDS d   1      16.066 -34.494  30.975  0.00  0.00     0.210 HD
ATOM     24  S2  SGN d   2      19.718 -37.842  26.774  0.00  0.00     0.251 S 
ATOM     25  C2  SGN d   2      23.233 -36.009  31.107  0.00  0.00     0.081 C 
ATOM     26  O5S SGN d   2      19.688 -36.599  25.936  0.00  0.00    -0.572 OA
ATOM     27  O4S SGN d   2      18.328 -38.155  27.248  0.00  0.00    -0.572 OA
ATOM     28  C3  SGN d   2      21.829 -36.137  31.703  0.00  0.00     0.083 C 
ATOM     29  C1  SGN d   2      23.724 -37.355  30.569  0.00  0.00     0.150 C 
ATOM     30  O3  SGN d   2      21.355 -34.838  32.069  0.00  0.00    -0.391 OA
ATOM     31  C5  SGN d   2      21.463 -38.065  30.126  0.00  0.00     0.091 C 
ATOM     32  O4  SGN d   2      19.602 -36.952  31.227  0.00  0.00    -0.348 OA
ATOM     33  C6  SGN d   2      20.571 -38.573  28.990  0.00  0.00     0.067 C 
ATOM     34  O1S SGN d   2      24.719 -33.416  30.701  0.00  0.00    -0.296 OA
ATOM     35  C4  SGN d   2      20.897 -36.744  30.654  0.00  0.00     0.095 C 
ATOM     36  O6S SGN d   2      20.234 -38.983  25.949  0.00  0.00    -0.572 OA
ATOM     37  O3S SGN d   2      26.095 -35.436  30.438  0.00  0.00    -0.296 OA
ATOM     38  O2S SGN d   2      26.269 -34.078  32.469  0.00  0.00    -0.296 OA
ATOM     39  S1  SGN d   2      25.333 -34.586  31.411  0.00  0.00     0.156 S 
ATOM     40  O6  SGN d   2      20.568 -37.639  27.906  0.00  0.00    -0.254 OA
ATOM     41  N   SGN d   2      24.163 -35.477  32.115  0.00  0.00    -0.210 NA
ATOM     42  O5  SGN d   2      22.784 -37.853  29.601  0.00  0.00    -0.349 OA
ATOM     43  H   SGN d   2      23.192 -35.325  30.285  0.00  0.00     0.076 H 
ATOM     44  H   SGN d   2      21.855 -36.765  32.569  0.00  0.00     0.089 H 
ATOM     45  H   SGN d   2      24.681 -37.208  30.116  0.00  0.00     0.131 H 
ATOM     46  H   SGN d   2      21.332 -34.269  31.284  0.00  0.00     0.210 HD
ATOM     47  H   SGN d   2      21.499 -38.776  30.925  0.00  0.00     0.090 H 
ATOM     48  H   SGN d   2      19.572 -38.694  29.353  0.00  0.00     0.080 H 
ATOM     49  H   SGN d   2      20.950 -39.510  28.641  0.00  0.00     0.080 H 
ATOM     50  H   SGN d   2      25.418 -32.889  30.283  0.00  0.00     0.231 HD
ATOM     51  H   SGN d   2      20.814 -36.065  29.831  0.00  0.00     0.091 H 
ATOM     52  H   SGN d   2      26.790 -34.905  30.019  0.00  0.00     0.231 HD
ATOM     53  H   SGN d   2      26.967 -33.547  32.054  0.00  0.00     0.231 HD
ATOM     54  H   SGN d   2      24.591 -36.254  32.618  0.00  0.00     0.140 HD
ATOM     55  O3  SGN d   4      24.765 -43.722  32.887  0.00  0.00    -0.391 OA
ATOM     56  C5  SGN d   4      27.092 -42.678  35.650  0.00  0.00     0.091 C 
ATOM     57  C1  SGN d   4      26.822 -45.044  35.760  0.00  0.00     0.147 C 
ATOM     58  O1S SGN d   4      23.349 -46.747  34.814  0.00  0.00    -0.296 OA
ATOM     59  S2  SGN d   4      28.177 -40.549  38.562  0.00  0.00     0.251 S 
ATOM     60  S1  SGN d   4      24.723 -47.336  34.672  0.00  0.00     0.156 S 
ATOM     61  C4  SGN d   4      25.994 -42.535  34.594  0.00  0.00     0.095 C 
ATOM     62  O6S SGN d   4      29.616 -40.265  38.880  0.00  0.00    -0.572 OA
ATOM     63  O4  SGN d   4      26.266 -41.415  33.746  0.00  0.00    -0.348 OA
ATOM     64  N   SGN d   4      25.697 -46.256  33.935  0.00  0.00    -0.210 NA
ATOM     65  O3S SGN d   4      25.271 -47.666  36.028  0.00  0.00    -0.296 OA
ATOM     66  C6  SGN d   4      27.110 -41.416  36.512  0.00  0.00     0.067 C 
ATOM     67  O2S SGN d   4      24.648 -48.580  33.837  0.00  0.00    -0.296 OA
ATOM     68  C2  SGN d   4      25.718 -45.001  34.702  0.00  0.00     0.081 C 
ATOM     69  O6  SGN d   4      28.113 -41.528  37.523  0.00  0.00    -0.254 OA
ATOM     70  O4S SGN d   4      27.503 -39.289  38.102  0.00  0.00    -0.572 OA
ATOM     71  C3  SGN d   4      25.898 -43.812  33.757  0.00  0.00     0.083 C 
ATOM     72  O1  SGN d   4      28.099 -45.236  35.146  0.00  0.00    -0.369 OA
ATOM     73  O5  SGN d   4      26.809 -43.808  36.493  0.00  0.00    -0.350 OA
ATOM     74  O5S SGN d   4      27.477 -41.059  39.787  0.00  0.00    -0.572 OA
ATOM     75  H   SGN d   4      24.877 -42.969  32.287  0.00  0.00     0.210 HD
ATOM     76  H   SGN d   4      28.037 -42.817  35.168  0.00  0.00     0.090 H 
ATOM     77  H   SGN d   4      26.645 -45.863  36.424  0.00  0.00     0.131 H 
ATOM     78  H   SGN d   4      22.996 -46.535  33.936  0.00  0.00     0.231 HD
ATOM     79  H   SGN d   4      25.060 -42.375  35.091  0.00  0.00     0.091 H 
ATOM     80  H   SGN d   4      25.349 -46.072  32.995  0.00  0.00     0.140 HD
ATOM     81  H   SGN d   4      25.318 -46.858  36.564  0.00  0.00     0.231 HD
ATOM     82  H   SGN d   4      26.153 -41.290  36.974  0.00  0.00     0.080 H 
ATOM     83  H   SGN d   4      27.329 -40.571  35.893  0.00  0.00     0.080 H 
ATOM     84  H   SGN d   4      24.293 -48.361  32.960  0.00  0.00     0.231 HD
ATOM     85  H   SGN d   4      24.782 -44.884  35.208  0.00  0.00     0.076 H 
ATOM     86  H   SGN d   4      26.786 -43.937  33.172  0.00  0.00     0.089 H 
ATOM     87  H   SGN d   4      28.279 -44.502  34.538  0.00  0.00     0.212 HD
ATOM     88  C1  IDS d   3      25.501 -40.273  33.988  0.00  0.00     0.161 C 
ATOM     89  O61 IDS d   3      21.853 -40.774  32.374  0.00  0.00    -0.646 OA
ATOM     90  O3S IDS d   3      25.002 -36.294  35.569  0.00  0.00    -0.572 OA
ATOM     91  O3  IDS d   3      27.046 -40.090  31.416  0.00  0.00    -0.390 OA
ATOM     92  C5  IDS d   3      24.205 -40.651  32.025  0.00  0.00     0.152 C 
ATOM     93  O4  IDS d   3      23.857 -38.281  31.591  0.00  0.00    -0.348 OA
ATOM     94  S   IDS d   3      26.003 -37.224  34.949  0.00  0.00     0.252 S 
ATOM     95  C2  IDS d   3      26.145 -39.017  33.394  0.00  0.00     0.134 C 
ATOM     96  O2S IDS d   3      26.423 -38.222  35.987  0.00  0.00    -0.572 OA
ATOM     97  O5  IDS d   3      24.183 -40.463  33.448  0.00  0.00    -0.340 OA
ATOM     98  C6  IDS d   3      22.778 -40.951  31.560  0.00  0.00     0.206 C 
ATOM     99  C3  IDS d   3      26.139 -39.080  31.865  0.00  0.00     0.094 C 
ATOM    100  O2  IDS d   3      25.395 -37.878  33.831  0.00  0.00    -0.244 OA
ATOM    101  C4  IDS d   3      24.731 -39.386  31.346  0.00  0.00     0.103 C 
ATOM    102  O62 IDS d   3      22.623 -41.367  30.387  0.00  0.00    -0.646 OA
ATOM    103  O1S IDS d   3      27.196 -36.446  34.477  0.00  0.00    -0.572 OA
ATOM    104  H   IDS d   3      25.443 -40.126  35.047  0.00  0.00     0.133 H 
ATOM    105  H   IDS d   3      27.937 -39.895  31.746  0.00  0.00     0.210 HD
ATOM    106  H   IDS d   3      24.850 -41.465  31.765  0.00  0.00     0.104 H 
ATOM    107  H   IDS d   3      27.161 -38.946  33.722  0.00  0.00     0.097 H 
ATOM    108  H   IDS d   3      26.447 -38.128  31.485  0.00  0.00     0.091 H 
ATOM    109  H   IDS d   3      24.771 -39.547  30.289  0.00  0.00     0.092 H 
ENDROOT
TORSDOF 34
ENDMDL
MODEL 10
REMARK VINA RESULT:     -10.0      3.345     11.023
REMARK  0 active torsions:
REMARK  status: ('A' for Active; 'I' for Inactive)
REMARK       I    between atoms: C5_1  and  C6_10 
REMARK       I    between atoms: S2_2  and  O6_59 
REMARK       I    between atoms: O3_3  and  C3_61 
REMARK       I    between atoms: C5_5  and  C6_35 
REMARK       I    between atoms: C2_6  and  N_67 
REMARK       I    between atoms: C4_9  and  O4_55 
REMARK       I    between atoms: C1_11  and  O1_63 
REMARK       I    between atoms: C1_12  and  O4_30 
REMARK       I    between atoms: O1S_13  and  S1_24 
REMARK       I    between atoms: C3_14  and  O3_18 
REMARK       I    between atoms: C1_16  and  O4_29 
REMARK       I    between atoms: C2_19  and  O2_41 
REMARK       I    between atoms: C1_20  and  O4_38 
REMARK       I    between atoms: S2_21  and  O6_47 
REMARK       I    between atoms: O3_23  and  C3_58 
REMARK       I    between atoms: S1_24  and  N_33 
REMARK       I    between atoms: S1_24  and  O2S_37 
REMARK       I    between atoms: S1_24  and  O3S_34 
REMARK       I    between atoms: C4_25  and  O4_30 
REMARK       I    between atoms: C5_28  and  C6_56 
REMARK       I    between atoms: O4_29  and  C4_65 
REMARK       I    between atoms: S_31  and  O2_60 
REMARK       I    between atoms: C2_32  and  O2_60 
REMARK       I    between atoms: N_33  and  C2_46 
REMARK       I    between atoms: C6_35  and  O6_47 
REMARK       I    between atoms: C5_36  and  C6_40 
REMARK       I    between atoms: O4_38  and  C4_45 
REMARK       I    between atoms: C6_40  and  O6_59 
REMARK       I    between atoms: O2_41  and  S_54 
REMARK       I    between atoms: O1S_42  and  S1_53 
REMARK       I    between atoms: O3_43  and  C3_44 
REMARK       I    between atoms: O3S_50  and  S1_53 
REMARK       I    between atoms: O2S_52  and  S1_53 
REMARK       I    between atoms: S1_53  and  N_67 
ROOT
ATOM      1  C5  IDS d   1      25.588 -49.901  33.068  0.00  0.00     0.152 C 
ATOM      2  O2S IDS d   1      23.721 -50.122  28.007  0.00  0.00    -0.572 OA
ATOM      3  C4  IDS d   1      26.049 -50.197  31.637  0.00  0.00     0.097 C 
ATOM      4  C6  IDS d   1      26.002 -51.049  33.996  0.00  0.00     0.206 C 
ATOM      5  C2  IDS d   1      24.033 -48.954  30.825  0.00  0.00     0.134 C 
ATOM      6  C1  IDS d   1      23.675 -48.691  32.292  0.00  0.00     0.161 C 
ATOM      7  O61 IDS d   1      25.147 -51.500  34.791  0.00  0.00    -0.646 OA
ATOM      8  O3S IDS d   1      22.099 -48.629  29.064  0.00  0.00    -0.572 OA
ATOM      9  O2  IDS d   1      23.388 -50.156  30.389  0.00  0.00    -0.244 OA
ATOM     10  O3  IDS d   1      26.200 -47.874  30.915  0.00  0.00    -0.390 OA
ATOM     11  C3  IDS d   1      25.545 -49.123  30.670  0.00  0.00     0.094 C 
ATOM     12  O62 IDS d   1      27.177 -51.463  33.934  0.00  0.00    -0.646 OA
ATOM     13  S   IDS d   1      22.732 -49.986  29.127  0.00  0.00     0.252 S 
ATOM     14  O4  IDS d   1      25.586 -51.486  31.224  0.00  0.00    -0.390 OA
ATOM     15  O5  IDS d   1      24.159 -49.760  33.124  0.00  0.00    -0.340 OA
ATOM     16  O1S IDS d   1      21.669 -51.034  28.979  0.00  0.00    -0.572 OA
ATOM     17  H   IDS d   1      26.047 -48.987  33.382  0.00  0.00     0.104 H 
ATOM     18  H   IDS d   1      27.118 -50.190  31.623  0.00  0.00     0.091 H 
ATOM     19  H   IDS d   1      23.708 -48.123  30.236  0.00  0.00     0.097 H 
ATOM     20  H   IDS d   1      22.609 -48.637  32.359  0.00  0.00     0.133 H 
ATOM     21  H   IDS d   1      27.159 -47.986  30.815  0.00  0.00     0.210 HD
ATOM     22  H   IDS d   1      25.769 -49.434  29.670  0.00  0.00     0.091 H 
ATOM     23  H   IDS d   1      24.616 -51.499  31.234  0.00  0.00     0.210 HD
ATOM     24  S2  SGN d   2      19.777 -47.881  33.615  0.00  0.00     0.251 S 
ATOM     25  C2  SGN d   2      24.747 -46.108  36.193  0.00  0.00     0.081 C 
ATOM     26  O5S SGN d   2      19.463 -49.070  34.472  0.00  0.00    -0.572 OA
ATOM     27  O4S SGN d   2      19.987 -48.330  32.198  0.00  0.00    -0.572 OA
ATOM     28  C3  SGN d   2      25.138 -46.676  34.827  0.00  0.00     0.083 C 
ATOM     29  C1  SGN d   2      23.787 -44.926  36.039  0.00  0.00     0.150 C 
ATOM     30  O3  SGN d   2      25.923 -47.857  35.017  0.00  0.00    -0.391 OA
ATOM     31  C5  SGN d   2      22.932 -45.818  33.970  0.00  0.00     0.091 C 
ATOM     32  O4  SGN d   2      24.215 -47.477  32.739  0.00  0.00    -0.348 OA
ATOM     33  C6  SGN d   2      21.621 -46.245  33.304  0.00  0.00     0.067 C 
ATOM     34  O1S SGN d   2      25.458 -47.337  38.854  0.00  0.00    -0.296 OA
ATOM     35  C4  SGN d   2      23.867 -47.028  34.052  0.00  0.00     0.095 C 
ATOM     36  O6S SGN d   2      18.629 -46.916  33.669  0.00  0.00    -0.572 OA
ATOM     37  O3S SGN d   2      24.571 -45.047  38.988  0.00  0.00    -0.296 OA
ATOM     38  O2S SGN d   2      26.969 -45.462  39.266  0.00  0.00    -0.296 OA
ATOM     39  S1  SGN d   2      25.727 -45.894  38.543  0.00  0.00     0.156 S 
ATOM     40  O6  SGN d   2      20.966 -47.246  34.090  0.00  0.00    -0.254 OA
ATOM     41  N   SGN d   2      25.951 -45.712  36.938  0.00  0.00    -0.210 NA
ATOM     42  O5  SGN d   2      22.631 -45.345  35.293  0.00  0.00    -0.349 OA
ATOM     43  H   SGN d   2      24.239 -46.871  36.746  0.00  0.00     0.076 H 
ATOM     44  H   SGN d   2      25.706 -45.954  34.279  0.00  0.00     0.089 H 
ATOM     45  H   SGN d   2      23.500 -44.597  37.016  0.00  0.00     0.131 H 
ATOM     46  H   SGN d   2      25.407 -48.512  35.514  0.00  0.00     0.210 HD
ATOM     47  H   SGN d   2      23.408 -45.044  33.406  0.00  0.00     0.090 H 
ATOM     48  H   SGN d   2      21.831 -46.642  32.333  0.00  0.00     0.080 H 
ATOM     49  H   SGN d   2      20.978 -45.393  33.220  0.00  0.00     0.080 H 
ATOM     50  H   SGN d   2      25.324 -47.441  39.810  0.00  0.00     0.231 HD
ATOM     51  H   SGN d   2      23.353 -47.812  34.569  0.00  0.00     0.091 H 
ATOM     52  H   SGN d   2      24.438 -45.158  39.943  0.00  0.00     0.231 HD
ATOM     53  H   SGN d   2      26.840 -45.569  40.222  0.00  0.00     0.231 HD
ATOM     54  H   SGN d   2      26.161 -44.733  36.739  0.00  0.00     0.140 HD
ATOM     55  O3  SGN d   4      23.637 -38.823  32.921  0.00  0.00    -0.391 OA
ATOM     56  C5  SGN d   4      26.767 -37.547  34.569  0.00  0.00     0.091 C 
ATOM     57  C1  SGN d   4      25.965 -35.859  33.089  0.00  0.00     0.147 C 
ATOM     58  O1S SGN d   4      24.177 -36.827  29.665  0.00  0.00    -0.296 OA
ATOM     59  S2  SGN d   4      30.340 -37.794  35.737  0.00  0.00     0.251 S 
ATOM     60  S1  SGN d   4      23.936 -35.609  30.508  0.00  0.00     0.156 S 
ATOM     61  C4  SGN d   4      25.757 -38.574  34.052  0.00  0.00     0.095 C 
ATOM     62  O6S SGN d   4      30.855 -37.087  36.956  0.00  0.00    -0.572 OA
ATOM     63  O4  SGN d   4      25.413 -39.495  35.092  0.00  0.00    -0.348 OA
ATOM     64  N   SGN d   4      23.736 -36.060  32.061  0.00  0.00    -0.210 NA
ATOM     65  O3S SGN d   4      25.111 -34.682  30.399  0.00  0.00    -0.296 OA
ATOM     66  C6  SGN d   4      28.036 -38.283  34.998  0.00  0.00     0.067 C 
ATOM     67  O2S SGN d   4      22.694 -34.913  30.034  0.00  0.00    -0.296 OA
ATOM     68  C2  SGN d   4      24.914 -36.812  32.516  0.00  0.00     0.081 C 
ATOM     69  O6  SGN d   4      29.009 -37.348  35.466  0.00  0.00    -0.254 OA
ATOM     70  O4S SGN d   4      30.331 -39.275  35.977  0.00  0.00    -0.572 OA
ATOM     71  C3  SGN d   4      24.499 -37.866  33.545  0.00  0.00     0.083 C 
ATOM     72  O1  SGN d   4      25.427 -35.123  34.192  0.00  0.00    -0.369 OA
ATOM     73  O5  SGN d   4      27.102 -36.626  33.517  0.00  0.00    -0.350 OA
ATOM     74  O5S SGN d   4      31.226 -37.493  34.564  0.00  0.00    -0.572 OA
ATOM     75  H   SGN d   4      23.373 -39.493  33.570  0.00  0.00     0.210 HD
ATOM     76  H   SGN d   4      26.346 -37.013  35.394  0.00  0.00     0.090 H 
ATOM     77  H   SGN d   4      26.259 -35.161  32.335  0.00  0.00     0.131 H 
ATOM     78  H   SGN d   4      23.417 -37.426  29.736  0.00  0.00     0.231 HD
ATOM     79  H   SGN d   4      26.201 -39.114  33.243  0.00  0.00     0.091 H 
ATOM     80  H   SGN d   4      22.907 -36.649  32.139  0.00  0.00     0.140 HD
ATOM     81  H   SGN d   4      25.911 -35.137  30.707  0.00  0.00     0.231 HD
ATOM     82  H   SGN d   4      28.434 -38.820  34.163  0.00  0.00     0.080 H 
ATOM     83  H   SGN d   4      27.797 -38.964  35.788  0.00  0.00     0.080 H 
ATOM     84  H   SGN d   4      21.937 -35.516  30.106  0.00  0.00     0.231 HD
ATOM     85  H   SGN d   4      25.351 -37.318  31.681  0.00  0.00     0.076 H 
ATOM     86  H   SGN d   4      23.983 -37.402  34.360  0.00  0.00     0.089 H 
ATOM     87  H   SGN d   4      25.154 -35.740  34.889  0.00  0.00     0.212 HD
ATOM     88  C1  IDS d   3      26.001 -40.757  35.000  0.00  0.00     0.161 C 
ATOM     89  O61 IDS d   3      24.030 -42.926  32.247  0.00  0.00    -0.646 OA
ATOM     90  O3S IDS d   3      28.907 -43.697  36.225  0.00  0.00    -0.572 OA
ATOM     91  O3  IDS d   3      23.815 -40.661  37.061  0.00  0.00    -0.390 OA
ATOM     92  C5  IDS d   3      23.942 -41.734  34.307  0.00  0.00     0.152 C 
ATOM     93  O4  IDS d   3      24.397 -43.872  35.380  0.00  0.00    -0.348 OA
ATOM     94  S   IDS d   3      28.067 -42.557  36.722  0.00  0.00     0.252 S 
ATOM     95  C2  IDS d   3      25.972 -41.500  36.339  0.00  0.00     0.134 C 
ATOM     96  O2S IDS d   3      28.688 -41.275  36.252  0.00  0.00    -0.572 OA
ATOM     97  O5  IDS d   3      25.326 -41.522  33.989  0.00  0.00    -0.340 OA
ATOM     98  C6  IDS d   3      23.286 -42.460  33.129  0.00  0.00     0.206 C 
ATOM     99  C3  IDS d   3      24.535 -41.852  36.729  0.00  0.00     0.094 C 
ATOM    100  O2  IDS d   3      26.741 -42.700  36.204  0.00  0.00    -0.244 OA
ATOM    101  C4  IDS d   3      23.828 -42.575  35.579  0.00  0.00     0.103 C 
ATOM    102  O62 IDS d   3      22.034 -42.535  33.116  0.00  0.00    -0.646 OA
ATOM    103  O1S IDS d   3      28.016 -42.580  38.222  0.00  0.00    -0.572 OA
ATOM    104  H   IDS d   3      27.029 -40.630  34.733  0.00  0.00     0.133 H 
ATOM    105  H   IDS d   3      24.264 -40.205  37.790  0.00  0.00     0.210 HD
ATOM    106  H   IDS d   3      23.449 -40.800  34.477  0.00  0.00     0.104 H 
ATOM    107  H   IDS d   3      26.383 -40.875  37.104  0.00  0.00     0.097 H 
ATOM    108  H   IDS d   3      24.563 -42.502  37.580  0.00  0.00     0.091 H 
ATOM    109  H   IDS d   3      22.794 -42.702  35.824  0.00  0.00     0.092 H 
ENDROOT
TORSDOF 34
ENDMDL
MODEL 11
REMARK VINA RESULT:      -9.9      2.877      5.202
REMARK  0 active torsions:
REMARK  status: ('A' for Active; 'I' for Inactive)
REMARK       I    between atoms: C5_1  and  C6_10 
REMARK       I    between atoms: S2_2  and  O6_59 
REMARK       I    between atoms: O3_3  and  C3_61 
REMARK       I    between atoms: C5_5  and  C6_35 
REMARK       I    between atoms: C2_6  and  N_67 
REMARK       I    between atoms: C4_9  and  O4_55 
REMARK       I    between atoms: C1_11  and  O1_63 
REMARK       I    between atoms: C1_12  and  O4_30 
REMARK       I    between atoms: O1S_13  and  S1_24 
REMARK       I    between atoms: C3_14  and  O3_18 
REMARK       I    between atoms: C1_16  and  O4_29 
REMARK       I    between atoms: C2_19  and  O2_41 
REMARK       I    between atoms: C1_20  and  O4_38 
REMARK       I    between atoms: S2_21  and  O6_47 
REMARK       I    between atoms: O3_23  and  C3_58 
REMARK       I    between atoms: S1_24  and  N_33 
REMARK       I    between atoms: S1_24  and  O2S_37 
REMARK       I    between atoms: S1_24  and  O3S_34 
REMARK       I    between atoms: C4_25  and  O4_30 
REMARK       I    between atoms: C5_28  and  C6_56 
REMARK       I    between atoms: O4_29  and  C4_65 
REMARK       I    between atoms: S_31  and  O2_60 
REMARK       I    between atoms: C2_32  and  O2_60 
REMARK       I    between atoms: N_33  and  C2_46 
REMARK       I    between atoms: C6_35  and  O6_47 
REMARK       I    between atoms: C5_36  and  C6_40 
REMARK       I    between atoms: O4_38  and  C4_45 
REMARK       I    between atoms: C6_40  and  O6_59 
REMARK       I    between atoms: O2_41  and  S_54 
REMARK       I    between atoms: O1S_42  and  S1_53 
REMARK       I    between atoms: O3_43  and  C3_44 
REMARK       I    between atoms: O3S_50  and  S1_53 
REMARK       I    between atoms: O2S_52  and  S1_53 
REMARK       I    between atoms: S1_53  and  N_67 
ROOT
ATOM      1  C5  IDS d   1      27.126 -40.528  37.062  0.00  0.00     0.152 C 
ATOM      2  O2S IDS d   1      24.781 -36.319  34.626  0.00  0.00    -0.572 OA
ATOM      3  C4  IDS d   1      26.393 -39.221  37.380  0.00  0.00     0.097 C 
ATOM      4  C6  IDS d   1      28.449 -40.582  37.833  0.00  0.00     0.206 C 
ATOM      5  C2  IDS d   1      25.469 -39.276  35.053  0.00  0.00     0.134 C 
ATOM      6  C1  IDS d   1      26.224 -40.594  34.846  0.00  0.00     0.161 C 
ATOM      7  O61 IDS d   1      29.481 -40.922  37.210  0.00  0.00    -0.646 OA
ATOM      8  O3S IDS d   1      24.669 -38.023  32.876  0.00  0.00    -0.572 OA
ATOM      9  O2  IDS d   1      26.296 -38.186  34.630  0.00  0.00    -0.244 OA
ATOM     10  O3  IDS d   1      24.147 -40.054  36.929  0.00  0.00    -0.390 OA
ATOM     11  C3  IDS d   1      25.125 -39.087  36.532  0.00  0.00     0.094 C 
ATOM     12  O62 IDS d   1      28.435 -40.312  39.051  0.00  0.00    -0.646 OA
ATOM     13  S   IDS d   1      25.587 -37.268  33.790  0.00  0.00     0.252 S 
ATOM     14  O4  IDS d   1      27.254 -38.101  37.154  0.00  0.00    -0.390 OA
ATOM     15  O5  IDS d   1      27.412 -40.622  35.656  0.00  0.00    -0.340 OA
ATOM     16  O1S IDS d   1      26.571 -36.491  32.968  0.00  0.00    -0.572 OA
ATOM     17  H   IDS d   1      26.495 -41.342  37.350  0.00  0.00     0.104 H 
ATOM     18  H   IDS d   1      26.109 -39.241  38.411  0.00  0.00     0.091 H 
ATOM     19  H   IDS d   1      24.566 -39.302  34.480  0.00  0.00     0.097 H 
ATOM     20  H   IDS d   1      26.491 -40.654  33.812  0.00  0.00     0.133 H 
ATOM     21  H   IDS d   1      23.932 -39.930  37.867  0.00  0.00     0.210 HD
ATOM     22  H   IDS d   1      24.718 -38.109  36.681  0.00  0.00     0.091 H 
ATOM     23  H   IDS d   1      27.515 -38.077  36.221  0.00  0.00     0.210 HD
ATOM     24  S2  SGN d   2      27.367 -42.041  31.078  0.00  0.00     0.251 S 
ATOM     25  C2  SGN d   2      26.274 -45.288  35.849  0.00  0.00     0.081 C 
ATOM     26  O5S SGN d   2      28.864 -41.997  31.146  0.00  0.00    -0.572 OA
ATOM     27  O4S SGN d   2      26.823 -40.647  31.188  0.00  0.00    -0.572 OA
ATOM     28  C3  SGN d   2      25.805 -43.866  36.166  0.00  0.00     0.083 C 
ATOM     29  C1  SGN d   2      25.519 -45.857  34.645  0.00  0.00     0.150 C 
ATOM     30  O3  SGN d   2      26.625 -43.323  37.205  0.00  0.00    -0.391 OA
ATOM     31  C5  SGN d   2      25.199 -43.649  33.733  0.00  0.00     0.091 C 
ATOM     32  O4  SGN d   2      25.420 -41.697  35.167  0.00  0.00    -0.348 OA
ATOM     33  C6  SGN d   2      25.464 -42.828  32.467  0.00  0.00     0.067 C 
ATOM     34  O1S SGN d   2      28.607 -46.682  37.157  0.00  0.00    -0.296 OA
ATOM     35  C4  SGN d   2      25.938 -43.006  34.909  0.00  0.00     0.095 C 
ATOM     36  O6S SGN d   2      26.949 -42.640  29.767  0.00  0.00    -0.572 OA
ATOM     37  O3S SGN d   2      27.154 -48.150  35.823  0.00  0.00    -0.296 OA
ATOM     38  O2S SGN d   2      27.031 -48.180  38.269  0.00  0.00    -0.296 OA
ATOM     39  S1  SGN d   2      27.249 -47.312  37.065  0.00  0.00     0.156 S 
ATOM     40  O6  SGN d   2      26.860 -42.833  32.156  0.00  0.00    -0.254 OA
ATOM     41  N   SGN d   2      26.106 -46.151  37.028  0.00  0.00    -0.210 NA
ATOM     42  O5  SGN d   2      25.692 -44.981  33.517  0.00  0.00    -0.349 OA
ATOM     43  H   SGN d   2      27.313 -45.255  35.596  0.00  0.00     0.076 H 
ATOM     44  H   SGN d   2      24.785 -43.881  36.487  0.00  0.00     0.089 H 
ATOM     45  H   SGN d   2      25.915 -46.826  34.426  0.00  0.00     0.131 H 
ATOM     46  H   SGN d   2      27.550 -43.311  36.915  0.00  0.00     0.210 HD
ATOM     47  H   SGN d   2      24.151 -43.679  33.951  0.00  0.00     0.090 H 
ATOM     48  H   SGN d   2      25.141 -41.820  32.627  0.00  0.00     0.080 H 
ATOM     49  H   SGN d   2      24.923 -43.260  31.652  0.00  0.00     0.080 H 
ATOM     50  H   SGN d   2      29.285 -47.376  37.178  0.00  0.00     0.231 HD
ATOM     51  H   SGN d   2      26.974 -42.930  34.650  0.00  0.00     0.091 H 
ATOM     52  H   SGN d   2      27.836 -48.840  35.846  0.00  0.00     0.231 HD
ATOM     53  H   SGN d   2      27.710 -48.873  38.295  0.00  0.00     0.231 HD
ATOM     54  H   SGN d   2      25.185 -46.589  36.993  0.00  0.00     0.140 HD
ATOM     55  O3  SGN d   4      19.037 -47.059  32.767  0.00  0.00    -0.391 OA
ATOM     56  C5  SGN d   4      18.241 -49.220  35.740  0.00  0.00     0.091 C 
ATOM     57  C1  SGN d   4      16.276 -49.043  34.402  0.00  0.00     0.147 C 
ATOM     58  O1S SGN d   4      15.449 -45.687  32.423  0.00  0.00    -0.296 OA
ATOM     59  S2  SGN d   4      18.217 -50.089  39.405  0.00  0.00     0.251 S 
ATOM     60  S1  SGN d   4      15.073 -47.089  32.040  0.00  0.00     0.156 S 
ATOM     61  C4  SGN d   4      18.978 -48.163  34.915  0.00  0.00     0.095 C 
ATOM     62  O6S SGN d   4      18.264 -51.500  39.914  0.00  0.00    -0.572 OA
ATOM     63  O4  SGN d   4      20.385 -48.425  34.920  0.00  0.00    -0.348 OA
ATOM     64  N   SGN d   4      16.386 -48.048  32.152  0.00  0.00    -0.210 NA
ATOM     65  O3S SGN d   4      14.002 -47.591  32.963  0.00  0.00    -0.296 OA
ATOM     66  C6  SGN d   4      18.738 -49.149  37.184  0.00  0.00     0.067 C 
ATOM     67  O2S SGN d   4      14.573 -47.101  30.625  0.00  0.00    -0.296 OA
ATOM     68  C2  SGN d   4      16.934 -47.984  33.515  0.00  0.00     0.081 C 
ATOM     69  O6  SGN d   4      18.051 -50.110  37.986  0.00  0.00    -0.254 OA
ATOM     70  O4S SGN d   4      19.496 -49.384  39.748  0.00  0.00    -0.572 OA
ATOM     71  C3  SGN d   4      18.454 -48.156  33.478  0.00  0.00     0.083 C 
ATOM     72  O1  SGN d   4      16.498 -50.352  33.871  0.00  0.00    -0.369 OA
ATOM     73  O5  SGN d   4      16.829 -48.947  35.725  0.00  0.00    -0.350 OA
ATOM     74  O5S SGN d   4      17.070 -49.359  40.041  0.00  0.00    -0.572 OA
ATOM     75  H   SGN d   4      20.001 -47.165  32.743  0.00  0.00     0.210 HD
ATOM     76  H   SGN d   4      18.424 -50.190  35.328  0.00  0.00     0.090 H 
ATOM     77  H   SGN d   4      15.221 -48.871  34.435  0.00  0.00     0.131 H 
ATOM     78  H   SGN d   4      16.142 -45.363  31.826  0.00  0.00     0.231 HD
ATOM     79  H   SGN d   4      18.802 -47.203  35.353  0.00  0.00     0.091 H 
ATOM     80  H   SGN d   4      17.093 -47.734  31.488  0.00  0.00     0.140 HD
ATOM     81  H   SGN d   4      14.330 -47.581  33.875  0.00  0.00     0.231 HD
ATOM     82  H   SGN d   4      18.556 -48.168  37.572  0.00  0.00     0.080 H 
ATOM     83  H   SGN d   4      19.787 -49.359  37.205  0.00  0.00     0.080 H 
ATOM     84  H   SGN d   4      15.269 -46.776  30.033  0.00  0.00     0.231 HD
ATOM     85  H   SGN d   4      16.718 -47.024  33.935  0.00  0.00     0.076 H 
ATOM     86  H   SGN d   4      18.709 -49.073  32.987  0.00  0.00     0.089 H 
ATOM     87  H   SGN d   4      17.451 -50.528  33.833  0.00  0.00     0.212 HD
ATOM     88  C1  IDS d   3      21.150 -47.604  35.748  0.00  0.00     0.161 C 
ATOM     89  O61 IDS d   3      21.687 -44.052  33.941  0.00  0.00    -0.646 OA
ATOM     90  O3S IDS d   3      23.393 -46.874  39.357  0.00  0.00    -0.572 OA
ATOM     91  O3  IDS d   3      22.844 -49.250  33.889  0.00  0.00    -0.390 OA
ATOM     92  C5  IDS d   3      22.010 -46.410  33.874  0.00  0.00     0.152 C 
ATOM     93  O4  IDS d   3      24.168 -45.983  34.919  0.00  0.00    -0.348 OA
ATOM     94  S   IDS d   3      23.025 -47.938  38.365  0.00  0.00     0.252 S 
ATOM     95  C2  IDS d   3      22.517 -48.221  36.060  0.00  0.00     0.134 C 
ATOM     96  O2S IDS d   3      21.608 -48.354  38.626  0.00  0.00    -0.572 OA
ATOM     97  O5  IDS d   3      21.311 -46.320  35.125  0.00  0.00    -0.340 OA
ATOM     98  C6  IDS d   3      22.037 -45.018  33.239  0.00  0.00     0.206 C 
ATOM     99  C3  IDS d   3      23.380 -48.283  34.798  0.00  0.00     0.094 C 
ATOM    100  O2  IDS d   3      23.164 -47.406  37.044  0.00  0.00    -0.244 OA
ATOM    101  C4  IDS d   3      23.434 -46.913  34.116  0.00  0.00     0.103 C 
ATOM    102  O62 IDS d   3      22.403 -44.932  32.043  0.00  0.00    -0.646 OA
ATOM    103  O1S IDS d   3      23.940 -49.116  38.521  0.00  0.00    -0.572 OA
ATOM    104  H   IDS d   3      20.635 -47.494  36.680  0.00  0.00     0.133 H 
ATOM    105  H   IDS d   3      22.811 -50.117  34.323  0.00  0.00     0.210 HD
ATOM    106  H   IDS d   3      21.518 -47.099  33.220  0.00  0.00     0.104 H 
ATOM    107  H   IDS d   3      22.385 -49.218  36.425  0.00  0.00     0.097 H 
ATOM    108  H   IDS d   3      24.373 -48.568  35.078  0.00  0.00     0.091 H 
ATOM    109  H   IDS d   3      23.937 -47.005  33.176  0.00  0.00     0.092 H 
ENDROOT
TORSDOF 34
ENDMDL
MODEL 12
REMARK VINA RESULT:      -9.8      4.813      9.048
REMARK  0 active torsions:
REMARK  status: ('A' for Active; 'I' for Inactive)
REMARK       I    between atoms: C5_1  and  C6_10 
REMARK       I    between atoms: S2_2  and  O6_59 
REMARK       I    between atoms: O3_3  and  C3_61 
REMARK       I    between atoms: C5_5  and  C6_35 
REMARK       I    between atoms: C2_6  and  N_67 
REMARK       I    between atoms: C4_9  and  O4_55 
REMARK       I    between atoms: C1_11  and  O1_63 
REMARK       I    between atoms: C1_12  and  O4_30 
REMARK       I    between atoms: O1S_13  and  S1_24 
REMARK       I    between atoms: C3_14  and  O3_18 
REMARK       I    between atoms: C1_16  and  O4_29 
REMARK       I    between atoms: C2_19  and  O2_41 
REMARK       I    between atoms: C1_20  and  O4_38 
REMARK       I    between atoms: S2_21  and  O6_47 
REMARK       I    between atoms: O3_23  and  C3_58 
REMARK       I    between atoms: S1_24  and  N_33 
REMARK       I    between atoms: S1_24  and  O2S_37 
REMARK       I    between atoms: S1_24  and  O3S_34 
REMARK       I    between atoms: C4_25  and  O4_30 
REMARK       I    between atoms: C5_28  and  C6_56 
REMARK       I    between atoms: O4_29  and  C4_65 
REMARK       I    between atoms: S_31  and  O2_60 
REMARK       I    between atoms: C2_32  and  O2_60 
REMARK       I    between atoms: N_33  and  C2_46 
REMARK       I    between atoms: C6_35  and  O6_47 
REMARK       I    between atoms: C5_36  and  C6_40 
REMARK       I    between atoms: O4_38  and  C4_45 
REMARK       I    between atoms: C6_40  and  O6_59 
REMARK       I    between atoms: O2_41  and  S_54 
REMARK       I    between atoms: O1S_42  and  S1_53 
REMARK       I    between atoms: O3_43  and  C3_44 
REMARK       I    between atoms: O3S_50  and  S1_53 
REMARK       I    between atoms: O2S_52  and  S1_53 
REMARK       I    between atoms: S1_53  and  N_67 
ROOT
ATOM      1  C5  IDS d   1      21.669 -33.901  26.712  0.00  0.00     0.152 C 
ATOM      2  O2S IDS d   1      26.962 -33.907  25.651  0.00  0.00    -0.572 OA
ATOM      3  C4  IDS d   1      22.652 -34.029  25.545  0.00  0.00     0.097 C 
ATOM      4  C6  IDS d   1      20.621 -32.828  26.395  0.00  0.00     0.206 C 
ATOM      5  C2  IDS d   1      24.422 -34.616  27.215  0.00  0.00     0.134 C 
ATOM      6  C1  IDS d   1      23.354 -34.486  28.307  0.00  0.00     0.161 C 
ATOM      7  O61 IDS d   1      20.359 -31.981  27.279  0.00  0.00    -0.646 OA
ATOM      8  O3S IDS d   1      26.934 -34.544  28.011  0.00  0.00    -0.572 OA
ATOM      9  O2  IDS d   1      25.086 -33.357  27.051  0.00  0.00    -0.244 OA
ATOM     10  O3  IDS d   1      23.275 -36.347  25.968  0.00  0.00    -0.390 OA
ATOM     11  C3  IDS d   1      23.777 -35.009  25.885  0.00  0.00     0.094 C 
ATOM     12  O62 IDS d   1      20.059 -32.862  25.281  0.00  0.00    -0.646 OA
ATOM     13  S   IDS d   1      26.510 -33.501  27.022  0.00  0.00     0.252 S 
ATOM     14  O4  IDS d   1      23.200 -32.749  25.214  0.00  0.00    -0.390 OA
ATOM     15  O5  IDS d   1      22.356 -33.526  27.918  0.00  0.00    -0.340 OA
ATOM     16  O1S IDS d   1      27.145 -32.191  27.385  0.00  0.00    -0.572 OA
ATOM     17  H   IDS d   1      21.196 -34.850  26.854  0.00  0.00     0.104 H 
ATOM     18  H   IDS d   1      22.118 -34.408  24.699  0.00  0.00     0.091 H 
ATOM     19  H   IDS d   1      25.123 -35.370  27.506  0.00  0.00     0.097 H 
ATOM     20  H   IDS d   1      23.843 -34.155  29.199  0.00  0.00     0.133 H 
ATOM     21  H   IDS d   1      22.867 -36.593  25.123  0.00  0.00     0.210 HD
ATOM     22  H   IDS d   1      24.511 -34.969  25.107  0.00  0.00     0.091 H 
ATOM     23  H   IDS d   1      23.686 -32.400  25.977  0.00  0.00     0.210 HD
ATOM     24  S2  SGN d   2      24.237 -33.661  32.325  0.00  0.00     0.251 S 
ATOM     25  C2  SGN d   2      19.544 -36.581  30.340  0.00  0.00     0.081 C 
ATOM     26  O5S SGN d   2      23.621 -32.309  32.529  0.00  0.00    -0.572 OA
ATOM     27  O4S SGN d   2      25.331 -33.558  31.302  0.00  0.00    -0.572 OA
ATOM     28  C3  SGN d   2      20.498 -36.423  29.154  0.00  0.00     0.083 C 
ATOM     29  C1  SGN d   2      20.207 -37.365  31.475  0.00  0.00     0.150 C 
ATOM     30  O3  SGN d   2      19.893 -35.573  28.176  0.00  0.00    -0.391 OA
ATOM     31  C5  SGN d   2      22.391 -36.596  30.805  0.00  0.00     0.091 C 
ATOM     32  O4  SGN d   2      22.736 -35.718  28.564  0.00  0.00    -0.348 OA
ATOM     33  C6  SGN d   2      23.619 -35.861  31.351  0.00  0.00     0.067 C 
ATOM     34  O1S SGN d   2      16.853 -35.243  30.596  0.00  0.00    -0.296 OA
ATOM     35  C4  SGN d   2      21.801 -35.789  29.645  0.00  0.00     0.095 C 
ATOM     36  O6S SGN d   2      24.810 -34.145  33.624  0.00  0.00    -0.572 OA
ATOM     37  O3S SGN d   2      17.270 -37.025  32.237  0.00  0.00    -0.296 OA
ATOM     38  O2S SGN d   2      15.791 -37.426  30.325  0.00  0.00    -0.296 OA
ATOM     39  S1  SGN d   2      17.032 -36.719  30.787  0.00  0.00     0.156 S 
ATOM     40  O6  SGN d   2      23.243 -34.578  31.862  0.00  0.00    -0.254 OA
ATOM     41  N   SGN d   2      18.302 -37.237  29.905  0.00  0.00    -0.210 NA
ATOM     42  O5  SGN d   2      21.424 -36.705  31.864  0.00  0.00    -0.349 OA
ATOM     43  H   SGN d   2      19.302 -35.608  30.714  0.00  0.00     0.076 H 
ATOM     44  H   SGN d   2      20.703 -37.379  28.720  0.00  0.00     0.089 H 
ATOM     45  H   SGN d   2      19.526 -37.405  32.299  0.00  0.00     0.131 H 
ATOM     46  H   SGN d   2      19.707 -34.706  28.570  0.00  0.00     0.210 HD
ATOM     47  H   SGN d   2      22.658 -37.571  30.455  0.00  0.00     0.090 H 
ATOM     48  H   SGN d   2      24.331 -35.732  30.564  0.00  0.00     0.080 H 
ATOM     49  H   SGN d   2      24.047 -36.439  32.143  0.00  0.00     0.080 H 
ATOM     50  H   SGN d   2      16.097 -34.938  31.122  0.00  0.00     0.231 HD
ATOM     51  H   SGN d   2      21.593 -34.801  29.998  0.00  0.00     0.091 H 
ATOM     52  H   SGN d   2      16.514 -36.716  32.761  0.00  0.00     0.231 HD
ATOM     53  H   SGN d   2      15.032 -37.120  30.848  0.00  0.00     0.231 HD
ATOM     54  H   SGN d   2      18.399 -38.247  30.019  0.00  0.00     0.140 HD
ATOM     55  O3  SGN d   4      23.170 -43.473  32.427  0.00  0.00    -0.391 OA
ATOM     56  C5  SGN d   4      20.199 -45.455  31.251  0.00  0.00     0.091 C 
ATOM     57  C1  SGN d   4      21.938 -46.985  31.815  0.00  0.00     0.147 C 
ATOM     58  O1S SGN d   4      25.759 -46.052  31.196  0.00  0.00    -0.296 OA
ATOM     59  S2  SGN d   4      17.362 -46.266  28.910  0.00  0.00     0.251 S 
ATOM     60  S1  SGN d   4      25.200 -46.951  32.260  0.00  0.00     0.156 S 
ATOM     61  C4  SGN d   4      21.125 -44.245  31.403  0.00  0.00     0.095 C 
ATOM     62  O6S SGN d   4      16.076 -46.891  29.366  0.00  0.00    -0.572 OA
ATOM     63  O4  SGN d   4      20.376 -43.100  31.822  0.00  0.00    -0.348 OA
ATOM     64  N   SGN d   4      23.952 -46.202  32.995  0.00  0.00    -0.210 NA
ATOM     65  O3S SGN d   4      24.725 -48.231  31.639  0.00  0.00    -0.296 OA
ATOM     66  C6  SGN d   4      19.157 -45.143  30.178  0.00  0.00     0.067 C 
ATOM     67  O2S SGN d   4      26.266 -47.243  33.275  0.00  0.00    -0.296 OA
ATOM     68  C2  SGN d   4      22.934 -45.839  31.999  0.00  0.00     0.081 C 
ATOM     69  O6  SGN d   4      18.290 -46.263  29.997  0.00  0.00    -0.254 OA
ATOM     70  O4S SGN d   4      17.110 -44.856  28.465  0.00  0.00    -0.572 OA
ATOM     71  C3  SGN d   4      22.227 -44.548  32.419  0.00  0.00     0.083 C 
ATOM     72  O1  SGN d   4      21.290 -47.291  33.053  0.00  0.00    -0.369 OA
ATOM     73  O5  SGN d   4      20.963 -46.599  30.833  0.00  0.00    -0.350 OA
ATOM     74  O5S SGN d   4      17.927 -47.050  27.761  0.00  0.00    -0.572 OA
ATOM     75  H   SGN d   4      22.725 -42.653  32.693  0.00  0.00     0.210 HD
ATOM     76  H   SGN d   4      19.724 -45.662  32.187  0.00  0.00     0.090 H 
ATOM     77  H   SGN d   4      22.460 -47.859  31.487  0.00  0.00     0.131 H 
ATOM     78  H   SGN d   4      26.066 -45.225  31.599  0.00  0.00     0.231 HD
ATOM     79  H   SGN d   4      21.574 -44.037  30.454  0.00  0.00     0.091 H 
ATOM     80  H   SGN d   4      24.289 -45.359  33.459  0.00  0.00     0.140 HD
ATOM     81  H   SGN d   4      24.036 -48.036  30.984  0.00  0.00     0.231 HD
ATOM     82  H   SGN d   4      19.653 -44.926  29.255  0.00  0.00     0.080 H 
ATOM     83  H   SGN d   4      18.578 -44.297  30.486  0.00  0.00     0.080 H 
ATOM     84  H   SGN d   4      26.570 -46.412  33.674  0.00  0.00     0.231 HD
ATOM     85  H   SGN d   4      23.411 -45.665  31.057  0.00  0.00     0.076 H 
ATOM     86  H   SGN d   4      21.806 -44.660  33.397  0.00  0.00     0.089 H 
ATOM     87  H   SGN d   4      20.810 -46.510  33.369  0.00  0.00     0.212 HD
ATOM     88  C1  IDS d   3      20.110 -42.154  30.831  0.00  0.00     0.161 C 
ATOM     89  O61 IDS d   3      23.408 -39.936  30.218  0.00  0.00    -0.646 OA
ATOM     90  O3S IDS d   3      17.473 -40.240  28.008  0.00  0.00    -0.572 OA
ATOM     91  O3  IDS d   3      19.460 -41.138  33.584  0.00  0.00    -0.390 OA
ATOM     92  C5  IDS d   3      21.725 -40.657  31.741  0.00  0.00     0.152 C 
ATOM     93  O4  IDS d   3      20.498 -38.660  31.081  0.00  0.00    -0.348 OA
ATOM     94  S   IDS d   3      17.514 -40.917  29.347  0.00  0.00     0.252 S 
ATOM     95  C2  IDS d   3      18.950 -41.232  31.216  0.00  0.00     0.134 C 
ATOM     96  O2S IDS d   3      17.645 -42.394  29.123  0.00  0.00    -0.572 OA
ATOM     97  O5  IDS d   3      21.298 -41.386  30.580  0.00  0.00    -0.340 OA
ATOM     98  C6  IDS d   3      23.047 -39.960  31.409  0.00  0.00     0.206 C 
ATOM     99  C3  IDS d   3      19.337 -40.344  32.400  0.00  0.00     0.094 C 
ATOM    100  O2  IDS d   3      18.632 -40.413  30.085  0.00  0.00    -0.244 OA
ATOM    101  C4  IDS d   3      20.662 -39.627  32.123  0.00  0.00     0.103 C 
ATOM    102  O62 IDS d   3      23.695 -39.460  32.359  0.00  0.00    -0.646 OA
ATOM    103  O1S IDS d   3      16.252 -40.625  30.103  0.00  0.00    -0.572 OA
ATOM    104  H   IDS d   3      19.819 -42.673  29.941  0.00  0.00     0.133 H 
ATOM    105  H   IDS d   3      18.620 -41.591  33.758  0.00  0.00     0.210 HD
ATOM    106  H   IDS d   3      21.863 -41.321  32.569  0.00  0.00     0.104 H 
ATOM    107  H   IDS d   3      18.104 -41.822  31.502  0.00  0.00     0.097 H 
ATOM    108  H   IDS d   3      18.570 -39.610  32.539  0.00  0.00     0.091 H 
ATOM    109  H   IDS d   3      20.975 -39.110  33.005  0.00  0.00     0.092 H 
ENDROOT
TORSDOF 34
ENDMDL
MODEL 13
REMARK VINA RESULT:      -9.8      4.875      8.723
REMARK  0 active torsions:
REMARK  status: ('A' for Active; 'I' for Inactive)
REMARK       I    between atoms: C5_1  and  C6_10 
REMARK       I    between atoms: S2_2  and  O6_59 
REMARK       I    between atoms: O3_3  and  C3_61 
REMARK       I    between atoms: C5_5  and  C6_35 
REMARK       I    between atoms: C2_6  and  N_67 
REMARK       I    between atoms: C4_9  and  O4_55 
REMARK       I    between atoms: C1_11  and  O1_63 
REMARK       I    between atoms: C1_12  and  O4_30 
REMARK       I    between atoms: O1S_13  and  S1_24 
REMARK       I    between atoms: C3_14  and  O3_18 
REMARK       I    between atoms: C1_16  and  O4_29 
REMARK       I    between atoms: C2_19  and  O2_41 
REMARK       I    between atoms: C1_20  and  O4_38 
REMARK       I    between atoms: S2_21  and  O6_47 
REMARK       I    between atoms: O3_23  and  C3_58 
REMARK       I    between atoms: S1_24  and  N_33 
REMARK       I    between atoms: S1_24  and  O2S_37 
REMARK       I    between atoms: S1_24  and  O3S_34 
REMARK       I    between atoms: C4_25  and  O4_30 
REMARK       I    between atoms: C5_28  and  C6_56 
REMARK       I    between atoms: O4_29  and  C4_65 
REMARK       I    between atoms: S_31  and  O2_60 
REMARK       I    between atoms: C2_32  and  O2_60 
REMARK       I    between atoms: N_33  and  C2_46 
REMARK       I    between atoms: C6_35  and  O6_47 
REMARK       I    between atoms: C5_36  and  C6_40 
REMARK       I    between atoms: O4_38  and  C4_45 
REMARK       I    between atoms: C6_40  and  O6_59 
REMARK       I    between atoms: O2_41  and  S_54 
REMARK       I    between atoms: O1S_42  and  S1_53 
REMARK       I    between atoms: O3_43  and  C3_44 
REMARK       I    between atoms: O3S_50  and  S1_53 
REMARK       I    between atoms: O2S_52  and  S1_53 
REMARK       I    between atoms: S1_53  and  N_67 
ROOT
ATOM      1  C5  IDS d   1      21.452 -34.457  28.572  0.00  0.00     0.152 C 
ATOM      2  O2S IDS d   1      26.805 -34.212  27.916  0.00  0.00    -0.572 OA
ATOM      3  C4  IDS d   1      22.517 -34.346  27.476  0.00  0.00     0.097 C 
ATOM      4  C6  IDS d   1      20.406 -33.350  28.395  0.00  0.00     0.206 C 
ATOM      5  C2  IDS d   1      24.179 -35.234  29.123  0.00  0.00     0.134 C 
ATOM      6  C1  IDS d   1      23.035 -35.330  30.139  0.00  0.00     0.161 C 
ATOM      7  O61 IDS d   1      20.065 -32.696  29.406  0.00  0.00    -0.646 OA
ATOM      8  O3S IDS d   1      26.628 -35.301  30.098  0.00  0.00    -0.572 OA
ATOM      9  O2  IDS d   1      24.825 -33.963  29.256  0.00  0.00    -0.244 OA
ATOM     10  O3  IDS d   1      23.159 -36.697  27.482  0.00  0.00    -0.390 OA
ATOM     11  C3  IDS d   1      23.637 -35.365  27.699  0.00  0.00     0.094 C 
ATOM     12  O62 IDS d   1      19.924 -33.170  27.258  0.00  0.00    -0.646 OA
ATOM     13  S   IDS d   1      26.250 -34.087  29.303  0.00  0.00     0.252 S 
ATOM     14  O4  IDS d   1      23.058 -33.021  27.442  0.00  0.00    -0.390 OA
ATOM     15  O5  IDS d   1      22.046 -34.321  29.874  0.00  0.00    -0.340 OA
ATOM     16  O1S IDS d   1      26.830 -32.869  29.960  0.00  0.00    -0.572 OA
ATOM     17  H   IDS d   1      20.992 -35.419  28.491  0.00  0.00     0.104 H 
ATOM     18  H   IDS d   1      22.051 -34.556  26.536  0.00  0.00     0.091 H 
ATOM     19  H   IDS d   1      24.874 -36.026  29.311  0.00  0.00     0.097 H 
ATOM     20  H   IDS d   1      23.453 -35.177  31.112  0.00  0.00     0.133 H 
ATOM     21  H   IDS d   1      22.817 -36.774  26.578  0.00  0.00     0.210 HD
ATOM     22  H   IDS d   1      24.422 -35.166  26.999  0.00  0.00     0.091 H 
ATOM     23  H   IDS d   1      23.482 -32.824  28.292  0.00  0.00     0.210 HD
ATOM     24  S2  SGN d   2      23.619 -35.303  34.294  0.00  0.00     0.251 S 
ATOM     25  C2  SGN d   2      19.140 -37.813  31.442  0.00  0.00     0.081 C 
ATOM     26  O5S SGN d   2      22.960 -34.023  34.713  0.00  0.00    -0.572 OA
ATOM     27  O4S SGN d   2      24.779 -34.993  33.393  0.00  0.00    -0.572 OA
ATOM     28  C3  SGN d   2      20.170 -37.418  30.383  0.00  0.00     0.083 C 
ATOM     29  C1  SGN d   2      19.739 -38.800  32.447  0.00  0.00     0.150 C 
ATOM     30  O3  SGN d   2      19.617 -36.397  29.548  0.00  0.00    -0.391 OA
ATOM     31  C5  SGN d   2      21.947 -37.897  32.101  0.00  0.00     0.091 C 
ATOM     32  O4  SGN d   2      22.428 -36.594  30.105  0.00  0.00    -0.348 OA
ATOM     33  C6  SGN d   2      23.117 -37.274  32.867  0.00  0.00     0.067 C 
ATOM     34  O1S SGN d   2      16.409 -36.573  31.759  0.00  0.00    -0.296 OA
ATOM     35  C4  SGN d   2      21.422 -36.883  31.081  0.00  0.00     0.095 C 
ATOM     36  O6S SGN d   2      24.110 -36.028  35.512  0.00  0.00    -0.572 OA
ATOM     37  O3S SGN d   2      16.749 -38.640  33.046  0.00  0.00    -0.296 OA
ATOM     38  O2S SGN d   2      15.416 -38.669  30.991  0.00  0.00    -0.296 OA
ATOM     39  S1  SGN d   2      16.607 -38.057  31.671  0.00  0.00     0.156 S 
ATOM     40  O6  SGN d   2      22.679 -36.120  33.590  0.00  0.00    -0.254 OA
ATOM     41  N   SGN d   2      17.946 -38.381  30.799  0.00  0.00    -0.210 NA
ATOM     42  O5  SGN d   2      20.912 -38.220  33.044  0.00  0.00    -0.349 OA
ATOM     43  H   SGN d   2      18.852 -36.935  31.981  0.00  0.00     0.076 H 
ATOM     44  H   SGN d   2      20.426 -38.269  29.786  0.00  0.00     0.089 H 
ATOM     45  H   SGN d   2      19.004 -39.006  33.197  0.00  0.00     0.131 H 
ATOM     46  H   SGN d   2      19.385 -35.627  30.089  0.00  0.00     0.210 HD
ATOM     47  H   SGN d   2      22.260 -38.782  31.587  0.00  0.00     0.090 H 
ATOM     48  H   SGN d   2      23.880 -36.988  32.174  0.00  0.00     0.080 H 
ATOM     49  H   SGN d   2      23.503 -37.993  33.560  0.00  0.00     0.080 H 
ATOM     50  H   SGN d   2      15.612 -36.384  32.278  0.00  0.00     0.231 HD
ATOM     51  H   SGN d   2      21.168 -35.985  31.604  0.00  0.00     0.091 H 
ATOM     52  H   SGN d   2      15.952 -38.446  33.564  0.00  0.00     0.231 HD
ATOM     53  H   SGN d   2      14.617 -38.478  31.507  0.00  0.00     0.231 HD
ATOM     54  H   SGN d   2      18.057 -39.393  30.720  0.00  0.00     0.140 HD
ATOM     55  O3  SGN d   4      22.763 -44.953  32.401  0.00  0.00    -0.391 OA
ATOM     56  C5  SGN d   4      19.925 -46.688  30.648  0.00  0.00     0.091 C 
ATOM     57  C1  SGN d   4      21.653 -48.286  31.027  0.00  0.00     0.147 C 
ATOM     58  O1S SGN d   4      25.487 -47.219  30.880  0.00  0.00    -0.296 OA
ATOM     59  S2  SGN d   4      17.276 -47.047  27.994  0.00  0.00     0.251 S 
ATOM     60  S1  SGN d   4      24.875 -48.314  31.705  0.00  0.00     0.156 S 
ATOM     61  C4  SGN d   4      20.811 -45.525  31.099  0.00  0.00     0.095 C 
ATOM     62  O6S SGN d   4      15.975 -47.758  28.225  0.00  0.00    -0.572 OA
ATOM     63  O4  SGN d   4      20.009 -44.490  31.679  0.00  0.00    -0.348 OA
ATOM     64  N   SGN d   4      23.563 -47.734  32.479  0.00  0.00    -0.210 NA
ATOM     65  O3S SGN d   4      24.472 -49.450  30.813  0.00  0.00    -0.296 OA
ATOM     66  C6  SGN d   4      18.953 -46.180  29.584  0.00  0.00     0.067 C 
ATOM     67  O2S SGN d   4      25.874 -48.791  32.718  0.00  0.00    -0.296 OA
ATOM     68  C2  SGN d   4      22.609 -47.190  31.503  0.00  0.00     0.081 C 
ATOM     69  O6  SGN d   4      18.125 -47.250  29.125  0.00  0.00    -0.254 OA
ATOM     70  O4S SGN d   4      17.024 -45.578  27.816  0.00  0.00    -0.572 OA
ATOM     71  C3  SGN d   4      21.846 -46.013  32.114  0.00  0.00     0.083 C 
ATOM     72  O1  SGN d   4      20.928 -48.834  32.131  0.00  0.00    -0.369 OA
ATOM     73  O5  SGN d   4      20.741 -47.722  30.071  0.00  0.00    -0.350 OA
ATOM     74  O5S SGN d   4      17.936 -47.585  26.759  0.00  0.00    -0.572 OA
ATOM     75  H   SGN d   4      22.282 -44.205  32.788  0.00  0.00     0.210 HD
ATOM     76  H   SGN d   4      19.391 -47.079  31.488  0.00  0.00     0.090 H 
ATOM     77  H   SGN d   4      22.216 -49.074  30.573  0.00  0.00     0.131 H 
ATOM     78  H   SGN d   4      25.747 -46.485  31.458  0.00  0.00     0.231 HD
ATOM     79  H   SGN d   4      21.321 -45.131  30.245  0.00  0.00     0.091 H 
ATOM     80  H   SGN d   4      23.848 -46.995  33.122  0.00  0.00     0.140 HD
ATOM     81  H   SGN d   4      23.827 -49.136  30.160  0.00  0.00     0.231 HD
ATOM     82  H   SGN d   4      19.507 -45.782  28.759  0.00  0.00     0.080 H 
ATOM     83  H   SGN d   4      18.335 -45.416  30.008  0.00  0.00     0.080 H 
ATOM     84  H   SGN d   4      26.131 -48.052  33.292  0.00  0.00     0.231 HD
ATOM     85  H   SGN d   4      23.146 -46.831  30.650  0.00  0.00     0.076 H 
ATOM     86  H   SGN d   4      21.361 -46.318  33.018  0.00  0.00     0.089 H 
ATOM     87  H   SGN d   4      20.410 -48.134  32.557  0.00  0.00     0.212 HD
ATOM     88  C1  IDS d   3      19.793 -43.370  30.875  0.00  0.00     0.161 C 
ATOM     89  O61 IDS d   3      23.076 -41.049  30.948  0.00  0.00    -0.646 OA
ATOM     90  O3S IDS d   3      17.317 -40.960  28.297  0.00  0.00    -0.572 OA
ATOM     91  O3  IDS d   3      18.931 -42.919  33.719  0.00  0.00    -0.390 OA
ATOM     92  C5  IDS d   3      21.307 -42.068  32.174  0.00  0.00     0.152 C 
ATOM     93  O4  IDS d   3      20.085 -39.990  31.830  0.00  0.00    -0.348 OA
ATOM     94  S   IDS d   3      17.280 -41.886  29.477  0.00  0.00     0.252 S 
ATOM     95  C2  IDS d   3      18.589 -42.551  31.347  0.00  0.00     0.134 C 
ATOM     96  O2S IDS d   3      17.458 -43.290  28.979  0.00  0.00    -0.572 OA
ATOM     97  O5  IDS d   3      20.978 -42.558  30.865  0.00  0.00    -0.340 OA
ATOM     98  C6  IDS d   3      22.633 -41.309  32.082  0.00  0.00     0.206 C 
ATOM     99  C3  IDS d   3      18.873 -41.909  32.707  0.00  0.00     0.094 C 
ATOM    100  O2  IDS d   3      18.332 -41.529  30.378  0.00  0.00    -0.244 OA
ATOM    101  C4  IDS d   3      20.197 -41.141  32.672  0.00  0.00     0.103 C 
ATOM    102  O62 IDS d   3      23.203 -41.000  33.155  0.00  0.00    -0.646 OA
ATOM    103  O1S IDS d   3      15.962 -41.758  30.182  0.00  0.00    -0.572 OA
ATOM    104  H   IDS d   3      19.575 -43.707  29.882  0.00  0.00     0.133 H 
ATOM    105  H   IDS d   3      18.091 -43.405  33.740  0.00  0.00     0.210 HD
ATOM    106  H   IDS d   3      21.401 -42.880  32.865  0.00  0.00     0.104 H 
ATOM    107  H   IDS d   3      17.738 -43.192  31.451  0.00  0.00     0.097 H 
ATOM    108  H   IDS d   3      18.082 -41.224  32.931  0.00  0.00     0.091 H 
ATOM    109  H   IDS d   3      20.438 -40.806  33.659  0.00  0.00     0.092 H 
ENDROOT
TORSDOF 34
ENDMDL
MODEL 14
REMARK VINA RESULT:      -9.7      4.003      8.546
REMARK  0 active torsions:
REMARK  status: ('A' for Active; 'I' for Inactive)
REMARK       I    between atoms: C5_1  and  C6_10 
REMARK       I    between atoms: S2_2  and  O6_59 
REMARK       I    between atoms: O3_3  and  C3_61 
REMARK       I    between atoms: C5_5  and  C6_35 
REMARK       I    between atoms: C2_6  and  N_67 
REMARK       I    between atoms: C4_9  and  O4_55 
REMARK       I    between atoms: C1_11  and  O1_63 
REMARK       I    between atoms: C1_12  and  O4_30 
REMARK       I    between atoms: O1S_13  and  S1_24 
REMARK       I    between atoms: C3_14  and  O3_18 
REMARK       I    between atoms: C1_16  and  O4_29 
REMARK       I    between atoms: C2_19  and  O2_41 
REMARK       I    between atoms: C1_20  and  O4_38 
REMARK       I    between atoms: S2_21  and  O6_47 
REMARK       I    between atoms: O3_23  and  C3_58 
REMARK       I    between atoms: S1_24  and  N_33 
REMARK       I    between atoms: S1_24  and  O2S_37 
REMARK       I    between atoms: S1_24  and  O3S_34 
REMARK       I    between atoms: C4_25  and  O4_30 
REMARK       I    between atoms: C5_28  and  C6_56 
REMARK       I    between atoms: O4_29  and  C4_65 
REMARK       I    between atoms: S_31  and  O2_60 
REMARK       I    between atoms: C2_32  and  O2_60 
REMARK       I    between atoms: N_33  and  C2_46 
REMARK       I    between atoms: C6_35  and  O6_47 
REMARK       I    between atoms: C5_36  and  C6_40 
REMARK       I    between atoms: O4_38  and  C4_45 
REMARK       I    between atoms: C6_40  and  O6_59 
REMARK       I    between atoms: O2_41  and  S_54 
REMARK       I    between atoms: O1S_42  and  S1_53 
REMARK       I    between atoms: O3_43  and  C3_44 
REMARK       I    between atoms: O3S_50  and  S1_53 
REMARK       I    between atoms: O2S_52  and  S1_53 
REMARK       I    between atoms: S1_53  and  N_67 
ROOT
ATOM      1  C5  IDS d   1      20.062 -36.649  26.786  0.00  0.00     0.152 C 
ATOM      2  O2S IDS d   1      24.077 -33.204  25.713  0.00  0.00    -0.572 OA
ATOM      3  C4  IDS d   1      21.082 -36.306  25.695  0.00  0.00     0.097 C 
ATOM      4  C6  IDS d   1      18.655 -36.710  26.180  0.00  0.00     0.206 C 
ATOM      5  C2  IDS d   1      22.420 -35.116  27.444  0.00  0.00     0.134 C 
ATOM      6  C1  IDS d   1      21.353 -35.532  28.463  0.00  0.00     0.161 C 
ATOM      7  O61 IDS d   1      17.729 -36.120  26.782  0.00  0.00    -0.646 OA
ATOM      8  O3S IDS d   1      24.023 -33.148  28.156  0.00  0.00    -0.572 OA
ATOM      9  O2  IDS d   1      22.089 -33.827  26.913  0.00  0.00    -0.244 OA
ATOM     10  O3  IDS d   1      22.994 -37.371  26.768  0.00  0.00    -0.390 OA
ATOM     11  C3  IDS d   1      22.478 -36.122  26.294  0.00  0.00     0.094 C 
ATOM     12  O62 IDS d   1      18.491 -37.366  25.132  0.00  0.00    -0.646 OA
ATOM     13  S   IDS d   1      23.214 -32.942  26.911  0.00  0.00     0.252 S 
ATOM     14  O4  IDS d   1      20.686 -35.120  25.000  0.00  0.00    -0.390 OA
ATOM     15  O5  IDS d   1      20.071 -35.653  27.822  0.00  0.00    -0.340 OA
ATOM     16  O1S IDS d   1      22.726 -31.524  26.870  0.00  0.00    -0.572 OA
ATOM     17  H   IDS d   1      20.328 -37.597  27.203  0.00  0.00     0.104 H 
ATOM     18  H   IDS d   1      21.116 -37.121  25.003  0.00  0.00     0.091 H 
ATOM     19  H   IDS d   1      23.370 -35.083  27.934  0.00  0.00     0.097 H 
ATOM     20  H   IDS d   1      21.310 -34.772  29.214  0.00  0.00     0.133 H 
ATOM     21  H   IDS d   1      23.029 -38.006  26.036  0.00  0.00     0.210 HD
ATOM     22  H   IDS d   1      23.130 -35.753  25.529  0.00  0.00     0.091 H 
ATOM     23  H   IDS d   1      20.653 -34.377  25.622  0.00  0.00     0.210 HD
ATOM     24  S2  SGN d   2      20.654 -33.482  32.055  0.00  0.00     0.251 S 
ATOM     25  C2  SGN d   2      19.616 -39.176  31.060  0.00  0.00     0.081 C 
ATOM     26  O5S SGN d   2      19.269 -32.940  31.864  0.00  0.00    -0.572 OA
ATOM     27  O4S SGN d   2      21.571 -32.873  31.036  0.00  0.00    -0.572 OA
ATOM     28  C3  SGN d   2      20.427 -38.662  29.869  0.00  0.00     0.083 C 
ATOM     29  C1  SGN d   2      20.394 -39.007  32.366  0.00  0.00     0.150 C 
ATOM     30  O3  SGN d   2      19.616 -38.711  28.692  0.00  0.00    -0.391 OA
ATOM     31  C5  SGN d   2      21.581 -37.107  31.478  0.00  0.00     0.091 C 
ATOM     32  O4  SGN d   2      21.681 -36.751  29.074  0.00  0.00    -0.348 OA
ATOM     33  C6  SGN d   2      21.867 -35.631  31.772  0.00  0.00     0.067 C 
ATOM     34  O1S SGN d   2      16.739 -40.074  30.945  0.00  0.00    -0.296 OA
ATOM     35  C4  SGN d   2      20.845 -37.215  30.139  0.00  0.00     0.095 C 
ATOM     36  O6S SGN d   2      21.135 -33.134  33.433  0.00  0.00    -0.572 OA
ATOM     37  O3S SGN d   2      17.908 -40.651  33.029  0.00  0.00    -0.296 OA
ATOM     38  O2S SGN d   2      17.485 -42.367  31.334  0.00  0.00    -0.296 OA
ATOM     39  S1  SGN d   2      17.816 -40.920  31.556  0.00  0.00     0.156 S 
ATOM     40  O6  SGN d   2      20.642 -34.902  31.891  0.00  0.00    -0.254 OA
ATOM     41  N   SGN d   2      19.246 -40.584  30.848  0.00  0.00    -0.210 NA
ATOM     42  O5  SGN d   2      20.753 -37.624  32.532  0.00  0.00    -0.349 OA
ATOM     43  H   SGN d   2      18.720 -38.596  31.137  0.00  0.00     0.076 H 
ATOM     44  H   SGN d   2      21.297 -39.268  29.730  0.00  0.00     0.089 H 
ATOM     45  H   SGN d   2      19.771 -39.328  33.174  0.00  0.00     0.131 H 
ATOM     46  H   SGN d   2      18.827 -38.161  28.819  0.00  0.00     0.210 HD
ATOM     47  H   SGN d   2      22.493 -37.665  31.423  0.00  0.00     0.090 H 
ATOM     48  H   SGN d   2      22.447 -35.218  30.973  0.00  0.00     0.080 H 
ATOM     49  H   SGN d   2      22.407 -35.557  32.693  0.00  0.00     0.080 H 
ATOM     50  H   SGN d   2      15.890 -40.277  31.368  0.00  0.00     0.231 HD
ATOM     51  H   SGN d   2      19.968 -36.606  30.191  0.00  0.00     0.091 H 
ATOM     52  H   SGN d   2      17.056 -40.850  33.448  0.00  0.00     0.231 HD
ATOM     53  H   SGN d   2      16.634 -42.572  31.753  0.00  0.00     0.231 HD
ATOM     54  H   SGN d   2      19.967 -41.183  31.251  0.00  0.00     0.140 HD
ATOM     55  O3  SGN d   4      26.415 -40.927  35.024  0.00  0.00    -0.391 OA
ATOM     56  C5  SGN d   4      25.831 -44.605  34.509  0.00  0.00     0.091 C 
ATOM     57  C1  SGN d   4      27.992 -44.323  35.475  0.00  0.00     0.147 C 
ATOM     58  O1S SGN d   4      30.237 -41.162  34.568  0.00  0.00    -0.296 OA
ATOM     59  S2  SGN d   4      24.790 -47.641  32.538  0.00  0.00     0.251 S 
ATOM     60  S1  SGN d   4      30.228 -41.936  35.855  0.00  0.00     0.156 S 
ATOM     61  C4  SGN d   4      25.659 -43.100  34.291  0.00  0.00     0.095 C 
ATOM     62  O6S SGN d   4      24.193 -48.865  33.170  0.00  0.00    -0.572 OA
ATOM     63  O4  SGN d   4      24.275 -42.745  34.367  0.00  0.00    -0.348 OA
ATOM     64  N   SGN d   4      28.688 -42.131  36.353  0.00  0.00    -0.210 NA
ATOM     65  O3S SGN d   4      30.861 -43.278  35.638  0.00  0.00    -0.296 OA
ATOM     66  C6  SGN d   4      25.082 -45.349  33.403  0.00  0.00     0.067 C 
ATOM     67  O2S SGN d   4      30.991 -41.175  36.899  0.00  0.00    -0.296 OA
ATOM     68  C2  SGN d   4      27.907 -42.805  35.306  0.00  0.00     0.081 C 
ATOM     69  O6  SGN d   4      25.242 -46.759  33.567  0.00  0.00    -0.254 OA
ATOM     70  O4S SGN d   4      23.754 -46.947  31.704  0.00  0.00    -0.572 OA
ATOM     71  C3  SGN d   4      26.456 -42.322  35.340  0.00  0.00     0.083 C 
ATOM     72  O1  SGN d   4      27.490 -44.715  36.756  0.00  0.00    -0.369 OA
ATOM     73  O5  SGN d   4      27.225 -44.949  34.434  0.00  0.00    -0.350 OA
ATOM     74  O5S SGN d   4      25.942 -48.035  31.661  0.00  0.00    -0.572 OA
ATOM     75  H   SGN d   4      25.496 -40.617  35.044  0.00  0.00     0.210 HD
ATOM     76  H   SGN d   4      25.446 -44.875  35.470  0.00  0.00     0.090 H 
ATOM     77  H   SGN d   4      29.014 -44.631  35.410  0.00  0.00     0.131 H 
ATOM     78  H   SGN d   4      29.827 -40.294  34.709  0.00  0.00     0.231 HD
ATOM     79  H   SGN d   4      26.029 -42.851  33.319  0.00  0.00     0.091 H 
ATOM     80  H   SGN d   4      28.276 -41.218  36.548  0.00  0.00     0.140 HD
ATOM     81  H   SGN d   4      30.364 -43.766  34.963  0.00  0.00     0.231 HD
ATOM     82  H   SGN d   4      25.474 -45.055  32.452  0.00  0.00     0.080 H 
ATOM     83  H   SGN d   4      24.042 -45.105  33.458  0.00  0.00     0.080 H 
ATOM     84  H   SGN d   4      30.577 -40.308  37.035  0.00  0.00     0.231 HD
ATOM     85  H   SGN d   4      28.318 -42.559  34.349  0.00  0.00     0.076 H 
ATOM     86  H   SGN d   4      26.038 -42.479  36.313  0.00  0.00     0.089 H 
ATOM     87  H   SGN d   4      26.561 -44.445  36.835  0.00  0.00     0.212 HD
ATOM     88  C1  IDS d   3      23.647 -42.496  33.147  0.00  0.00     0.161 C 
ATOM     89  O61 IDS d   3      24.656 -38.816  31.878  0.00  0.00    -0.646 OA
ATOM     90  O3S IDS d   3      21.024 -43.629  29.918  0.00  0.00    -0.572 OA
ATOM     91  O3  IDS d   3      21.964 -41.655  35.491  0.00  0.00    -0.390 OA
ATOM     92  C5  IDS d   3      23.631 -40.150  33.563  0.00  0.00     0.152 C 
ATOM     93  O4  IDS d   3      21.545 -39.778  32.363  0.00  0.00    -0.348 OA
ATOM     94  S   IDS d   3      21.244 -43.775  31.395  0.00  0.00     0.252 S 
ATOM     95  C2  IDS d   3      22.122 -42.588  33.259  0.00  0.00     0.134 C 
ATOM     96  O2S IDS d   3      22.367 -44.745  31.610  0.00  0.00    -0.572 OA
ATOM     97  O5  IDS d   3      24.036 -41.198  32.669  0.00  0.00    -0.340 OA
ATOM     98  C6  IDS d   3      24.180 -38.826  33.028  0.00  0.00     0.206 C 
ATOM     99  C3  IDS d   3      21.577 -41.453  34.129  0.00  0.00     0.094 C 
ATOM    100  O2  IDS d   3      21.568 -42.492  31.942  0.00  0.00    -0.244 OA
ATOM    101  C4  IDS d   3      22.104 -40.100  33.640  0.00  0.00     0.103 C 
ATOM    102  O62 IDS d   3      24.127 -37.826  33.783  0.00  0.00    -0.646 OA
ATOM    103  O1S IDS d   3      19.994 -44.288  32.047  0.00  0.00    -0.572 OA
ATOM    104  H   IDS d   3      23.957 -43.248  32.450  0.00  0.00     0.133 H 
ATOM    105  H   IDS d   3      21.629 -42.511  35.799  0.00  0.00     0.210 HD
ATOM    106  H   IDS d   3      24.011 -40.330  34.547  0.00  0.00     0.104 H 
ATOM    107  H   IDS d   3      21.852 -43.517  33.714  0.00  0.00     0.097 H 
ATOM    108  H   IDS d   3      20.509 -41.453  34.057  0.00  0.00     0.091 H 
ATOM    109  H   IDS d   3      21.813 -39.337  34.330  0.00  0.00     0.092 H 
ENDROOT
TORSDOF 34
ENDMDL
MODEL 15
REMARK VINA RESULT:      -9.6      3.621      8.041
REMARK  0 active torsions:
REMARK  status: ('A' for Active; 'I' for Inactive)
REMARK       I    between atoms: C5_1  and  C6_10 
REMARK       I    between atoms: S2_2  and  O6_59 
REMARK       I    between atoms: O3_3  and  C3_61 
REMARK       I    between atoms: C5_5  and  C6_35 
REMARK       I    between atoms: C2_6  and  N_67 
REMARK       I    between atoms: C4_9  and  O4_55 
REMARK       I    between atoms: C1_11  and  O1_63 
REMARK       I    between atoms: C1_12  and  O4_30 
REMARK       I    between atoms: O1S_13  and  S1_24 
REMARK       I    between atoms: C3_14  and  O3_18 
REMARK       I    between atoms: C1_16  and  O4_29 
REMARK       I    between atoms: C2_19  and  O2_41 
REMARK       I    between atoms: C1_20  and  O4_38 
REMARK       I    between atoms: S2_21  and  O6_47 
REMARK       I    between atoms: O3_23  and  C3_58 
REMARK       I    between atoms: S1_24  and  N_33 
REMARK       I    between atoms: S1_24  and  O2S_37 
REMARK       I    between atoms: S1_24  and  O3S_34 
REMARK       I    between atoms: C4_25  and  O4_30 
REMARK       I    between atoms: C5_28  and  C6_56 
REMARK       I    between atoms: O4_29  and  C4_65 
REMARK       I    between atoms: S_31  and  O2_60 
REMARK       I    between atoms: C2_32  and  O2_60 
REMARK       I    between atoms: N_33  and  C2_46 
REMARK       I    between atoms: C6_35  and  O6_47 
REMARK       I    between atoms: C5_36  and  C6_40 
REMARK       I    between atoms: O4_38  and  C4_45 
REMARK       I    between atoms: C6_40  and  O6_59 
REMARK       I    between atoms: O2_41  and  S_54 
REMARK       I    between atoms: O1S_42  and  S1_53 
REMARK       I    between atoms: O3_43  and  C3_44 
REMARK       I    between atoms: O3S_50  and  S1_53 
REMARK       I    between atoms: O2S_52  and  S1_53 
REMARK       I    between atoms: S1_53  and  N_67 
ROOT
ATOM      1  C5  IDS d   1      22.106 -35.321  27.120  0.00  0.00     0.152 C 
ATOM      2  O2S IDS d   1      26.967 -33.489  25.648  0.00  0.00    -0.572 OA
ATOM      3  C4  IDS d   1      23.091 -35.358  25.948  0.00  0.00     0.097 C 
ATOM      4  C6  IDS d   1      20.721 -34.892  26.622  0.00  0.00     0.206 C 
ATOM      5  C2  IDS d   1      24.894 -34.699  27.555  0.00  0.00     0.134 C 
ATOM      6  C1  IDS d   1      23.833 -34.715  28.662  0.00  0.00     0.161 C 
ATOM      7  O61 IDS d   1      20.108 -34.015  27.271  0.00  0.00    -0.646 OA
ATOM      8  O3S IDS d   1      27.130 -33.408  28.086  0.00  0.00    -0.572 OA
ATOM      9  O2  IDS d   1      24.988 -33.379  27.010  0.00  0.00    -0.244 OA
ATOM     10  O3  IDS d   1      24.596 -37.016  26.911  0.00  0.00    -0.390 OA
ATOM     11  C3  IDS d   1      24.508 -35.668  26.436  0.00  0.00     0.094 C 
ATOM     12  O62 IDS d   1      20.258 -35.454  25.610  0.00  0.00    -0.646 OA
ATOM     13  S   IDS d   1      26.346 -32.939  26.897  0.00  0.00     0.252 S 
ATOM     14  O4  IDS d   1      23.076 -34.111  25.246  0.00  0.00    -0.390 OA
ATOM     15  O5  IDS d   1      22.542 -34.386  28.121  0.00  0.00    -0.340 OA
ATOM     16  O1S IDS d   1      26.376 -31.440  26.847  0.00  0.00    -0.572 OA
ATOM     17  H   IDS d   1      22.060 -36.301  27.546  0.00  0.00     0.104 H 
ATOM     18  H   IDS d   1      22.786 -36.137  25.281  0.00  0.00     0.091 H 
ATOM     19  H   IDS d   1      25.833 -34.996  27.973  0.00  0.00     0.097 H 
ATOM     20  H   IDS d   1      24.115 -33.985  29.391  0.00  0.00     0.133 H 
ATOM     21  H   IDS d   1      24.352 -37.627  26.198  0.00  0.00     0.210 HD
ATOM     22  H   IDS d   1      25.185 -35.552  25.615  0.00  0.00     0.091 H 
ATOM     23  H   IDS d   1      23.352 -33.400  25.846  0.00  0.00     0.210 HD
ATOM     24  S2  SGN d   2      24.175 -32.535  32.230  0.00  0.00     0.251 S 
ATOM     25  C2  SGN d   2      21.156 -37.518  31.493  0.00  0.00     0.081 C 
ATOM     26  O5S SGN d   2      23.053 -31.547  32.124  0.00  0.00    -0.572 OA
ATOM     27  O4S SGN d   2      25.162 -32.287  31.127  0.00  0.00    -0.572 OA
ATOM     28  C3  SGN d   2      21.998 -37.323  30.230  0.00  0.00     0.083 C 
ATOM     29  C1  SGN d   2      22.047 -37.625  32.733  0.00  0.00     0.150 C 
ATOM     30  O3  SGN d   2      21.128 -37.092  29.118  0.00  0.00    -0.391 OA
ATOM     31  C5  SGN d   2      23.743 -36.259  31.700  0.00  0.00     0.091 C 
ATOM     32  O4  SGN d   2      23.767 -35.969  29.286  0.00  0.00    -0.348 OA
ATOM     33  C6  SGN d   2      24.544 -34.973  31.926  0.00  0.00     0.067 C 
ATOM     34  O1S SGN d   2      18.146 -37.362  31.618  0.00  0.00    -0.296 OA
ATOM     35  C4  SGN d   2      22.910 -36.111  30.424  0.00  0.00     0.095 C 
ATOM     36  O6S SGN d   2      24.856 -32.370  33.557  0.00  0.00    -0.572 OA
ATOM     37  O3S SGN d   2      19.206 -38.300  33.628  0.00  0.00    -0.296 OA
ATOM     38  O2S SGN d   2      18.082 -39.770  32.023  0.00  0.00    -0.296 OA
ATOM     39  S1  SGN d   2      18.909 -38.527  32.175  0.00  0.00     0.156 S 
ATOM     40  O6  SGN d   2      23.659 -33.863  32.112  0.00  0.00    -0.254 OA
ATOM     41  N   SGN d   2      20.306 -38.711  31.354  0.00  0.00    -0.210 NA
ATOM     42  O5  SGN d   2      22.873 -36.452  32.829  0.00  0.00    -0.349 OA
ATOM     43  H   SGN d   2      20.525 -36.663  31.617  0.00  0.00     0.076 H 
ATOM     44  H   SGN d   2      22.590 -38.194  30.047  0.00  0.00     0.089 H 
ATOM     45  H   SGN d   2      21.417 -37.706  33.594  0.00  0.00     0.131 H 
ATOM     46  H   SGN d   2      20.591 -36.302  29.285  0.00  0.00     0.210 HD
ATOM     47  H   SGN d   2      24.397 -37.099  31.597  0.00  0.00     0.090 H 
ATOM     48  H   SGN d   2      25.165 -34.790  31.075  0.00  0.00     0.080 H 
ATOM     49  H   SGN d   2      25.147 -35.088  32.802  0.00  0.00     0.080 H 
ATOM     50  H   SGN d   2      17.316 -37.255  32.108  0.00  0.00     0.231 HD
ATOM     51  H   SGN d   2      22.305 -35.234  30.521  0.00  0.00     0.091 H 
ATOM     52  H   SGN d   2      18.374 -38.190  34.114  0.00  0.00     0.231 HD
ATOM     53  H   SGN d   2      17.249 -39.665  32.510  0.00  0.00     0.231 HD
ATOM     54  H   SGN d   2      20.805 -39.522  31.721  0.00  0.00     0.140 HD
ATOM     55  O3  SGN d   4      27.223 -41.505  35.001  0.00  0.00    -0.391 OA
ATOM     56  C5  SGN d   4      25.364 -44.754  34.647  0.00  0.00     0.091 C 
ATOM     57  C1  SGN d   4      27.559 -45.236  35.443  0.00  0.00     0.147 C 
ATOM     58  O1S SGN d   4      30.678 -43.055  34.274  0.00  0.00    -0.296 OA
ATOM     59  S2  SGN d   4      23.183 -47.248  32.854  0.00  0.00     0.251 S 
ATOM     60  S1  SGN d   4      30.505 -43.772  35.582  0.00  0.00     0.156 S 
ATOM     61  C4  SGN d   4      25.707 -43.284  34.395  0.00  0.00     0.095 C 
ATOM     62  O6S SGN d   4      22.252 -48.185  33.566  0.00  0.00    -0.572 OA
ATOM     63  O4  SGN d   4      24.541 -42.470  34.561  0.00  0.00    -0.348 OA
ATOM     64  N   SGN d   4      29.038 -43.418  36.198  0.00  0.00    -0.210 NA
ATOM     65  O3S SGN d   4      30.615 -45.252  35.362  0.00  0.00    -0.296 OA
ATOM     66  C6  SGN d   4      24.319 -45.196  33.623  0.00  0.00     0.067 C 
ATOM     67  O2S SGN d   4      31.565 -43.319  36.543  0.00  0.00    -0.296 OA
ATOM     68  C2  SGN d   4      27.991 -43.784  35.232  0.00  0.00     0.081 C 
ATOM     69  O6  SGN d   4      23.993 -46.573  33.818  0.00  0.00    -0.254 OA
ATOM     70  O4S SGN d   4      22.389 -46.240  32.076  0.00  0.00    -0.572 OA
ATOM     71  C3  SGN d   4      26.804 -42.826  35.357  0.00  0.00     0.083 C 
ATOM     72  O1  SGN d   4      27.056 -45.424  36.768  0.00  0.00    -0.369 OA
ATOM     73  O5  SGN d   4      26.542 -45.561  34.480  0.00  0.00    -0.350 OA
ATOM     74  O5S SGN d   4      24.054 -48.020  31.908  0.00  0.00    -0.572 OA
ATOM     75  H   SGN d   4      26.472 -40.896  35.079  0.00  0.00     0.210 HD
ATOM     76  H   SGN d   4      24.987 -44.869  35.641  0.00  0.00     0.090 H 
ATOM     77  H   SGN d   4      28.403 -45.880  35.312  0.00  0.00     0.131 H 
ATOM     78  H   SGN d   4      30.607 -42.098  34.418  0.00  0.00     0.231 HD
ATOM     79  H   SGN d   4      26.061 -43.182  33.391  0.00  0.00     0.091 H 
ATOM     80  H   SGN d   4      28.984 -42.419  36.393  0.00  0.00     0.140 HD
ATOM     81  H   SGN d   4      29.928 -45.539  34.740  0.00  0.00     0.231 HD
ATOM     82  H   SGN d   4      24.711 -45.061  32.636  0.00  0.00     0.080 H 
ATOM     83  H   SGN d   4      23.435 -44.606  33.746  0.00  0.00     0.080 H 
ATOM     84  H   SGN d   4      31.488 -42.362  36.681  0.00  0.00     0.231 HD
ATOM     85  H   SGN d   4      28.384 -43.699  34.241  0.00  0.00     0.076 H 
ATOM     86  H   SGN d   4      26.436 -42.824  36.362  0.00  0.00     0.089 H 
ATOM     87  H   SGN d   4      26.288 -44.848  36.907  0.00  0.00     0.212 HD
ATOM     88  C1  IDS d   3      23.943 -42.023  33.382  0.00  0.00     0.161 C 
ATOM     89  O61 IDS d   3      26.058 -38.928  31.928  0.00  0.00    -0.646 OA
ATOM     90  O3S IDS d   3      20.842 -42.188  30.392  0.00  0.00    -0.572 OA
ATOM     91  O3  IDS d   3      22.848 -40.640  35.816  0.00  0.00    -0.390 OA
ATOM     92  C5  IDS d   3      24.772 -39.816  33.725  0.00  0.00     0.152 C 
ATOM     93  O4  IDS d   3      22.855 -38.747  32.670  0.00  0.00    -0.348 OA
ATOM     94  S   IDS d   3      21.115 -42.395  31.853  0.00  0.00     0.252 S 
ATOM     95  C2  IDS d   3      22.495 -41.579  33.609  0.00  0.00     0.134 C 
ATOM     96  O2S IDS d   3      21.846 -43.694  32.016  0.00  0.00    -0.572 OA
ATOM     97  O5  IDS d   3      24.718 -40.943  32.837  0.00  0.00    -0.340 OA
ATOM     98  C6  IDS d   3      25.702 -38.767  33.110  0.00  0.00     0.206 C 
ATOM     99  C3  IDS d   3      22.447 -40.322  34.480  0.00  0.00     0.094 C 
ATOM    100  O2  IDS d   3      21.904 -41.302  32.334  0.00  0.00    -0.244 OA
ATOM    101  C4  IDS d   3      23.369 -39.239  33.912  0.00  0.00     0.103 C 
ATOM    102  O62 IDS d   3      26.058 -37.808  33.835  0.00  0.00    -0.646 OA
ATOM    103  O1S IDS d   3      19.821 -42.439  32.611  0.00  0.00    -0.572 OA
ATOM    104  H   IDS d   3      23.917 -42.838  32.689  0.00  0.00     0.133 H 
ATOM    105  H   IDS d   3      22.263 -41.326  36.174  0.00  0.00     0.210 HD
ATOM    106  H   IDS d   3      25.144 -40.113  34.683  0.00  0.00     0.104 H 
ATOM    107  H   IDS d   3      21.957 -42.355  34.112  0.00  0.00     0.097 H 
ATOM    108  H   IDS d   3      21.443 -39.951  34.487  0.00  0.00     0.091 H 
ATOM    109  H   IDS d   3      23.415 -38.419  34.597  0.00  0.00     0.092 H 
ENDROOT
TORSDOF 34
ENDMDL
MODEL 16
REMARK VINA RESULT:      -9.4      5.082     10.906
REMARK  0 active torsions:
REMARK  status: ('A' for Active; 'I' for Inactive)
REMARK       I    between atoms: C5_1  and  C6_10 
REMARK       I    between atoms: S2_2  and  O6_59 
REMARK       I    between atoms: O3_3  and  C3_61 
REMARK       I    between atoms: C5_5  and  C6_35 
REMARK       I    between atoms: C2_6  and  N_67 
REMARK       I    between atoms: C4_9  and  O4_55 
REMARK       I    between atoms: C1_11  and  O1_63 
REMARK       I    between atoms: C1_12  and  O4_30 
REMARK       I    between atoms: O1S_13  and  S1_24 
REMARK       I    between atoms: C3_14  and  O3_18 
REMARK       I    between atoms: C1_16  and  O4_29 
REMARK       I    between atoms: C2_19  and  O2_41 
REMARK       I    between atoms: C1_20  and  O4_38 
REMARK       I    between atoms: S2_21  and  O6_47 
REMARK       I    between atoms: O3_23  and  C3_58 
REMARK       I    between atoms: S1_24  and  N_33 
REMARK       I    between atoms: S1_24  and  O2S_37 
REMARK       I    between atoms: S1_24  and  O3S_34 
REMARK       I    between atoms: C4_25  and  O4_30 
REMARK       I    between atoms: C5_28  and  C6_56 
REMARK       I    between atoms: O4_29  and  C4_65 
REMARK       I    between atoms: S_31  and  O2_60 
REMARK       I    between atoms: C2_32  and  O2_60 
REMARK       I    between atoms: N_33  and  C2_46 
REMARK       I    between atoms: C6_35  and  O6_47 
REMARK       I    between atoms: C5_36  and  C6_40 
REMARK       I    between atoms: O4_38  and  C4_45 
REMARK       I    between atoms: C6_40  and  O6_59 
REMARK       I    between atoms: O2_41  and  S_54 
REMARK       I    between atoms: O1S_42  and  S1_53 
REMARK       I    between atoms: O3_43  and  C3_44 
REMARK       I    between atoms: O3S_50  and  S1_53 
REMARK       I    between atoms: O2S_52  and  S1_53 
REMARK       I    between atoms: S1_53  and  N_67 
ROOT
ATOM      1  C5  IDS d   1      16.127 -36.629  31.585  0.00  0.00     0.152 C 
ATOM      2  O2S IDS d   1      14.412 -40.421  35.024  0.00  0.00    -0.572 OA
ATOM      3  C4  IDS d   1      15.356 -36.789  32.899  0.00  0.00     0.097 C 
ATOM      4  C6  IDS d   1      15.315 -35.775  30.606  0.00  0.00     0.206 C 
ATOM      5  C2  IDS d   1      16.402 -39.051  33.136  0.00  0.00     0.134 C 
ATOM      6  C1  IDS d   1      17.147 -38.781  31.824  0.00  0.00     0.161 C 
ATOM      7  O61 IDS d   1      15.202 -36.179  29.426  0.00  0.00    -0.646 OA
ATOM      8  O3S IDS d   1      16.270 -41.564  33.920  0.00  0.00    -0.572 OA
ATOM      9  O2  IDS d   1      15.169 -39.722  32.851  0.00  0.00    -0.244 OA
ATOM     10  O3  IDS d   1      17.307 -37.139  34.318  0.00  0.00    -0.390 OA
ATOM     11  C3  IDS d   1      16.092 -37.735  33.851  0.00  0.00     0.094 C 
ATOM     12  O62 IDS d   1      14.825 -34.705  31.020  0.00  0.00    -0.646 OA
ATOM     13  S   IDS d   1      14.967 -40.857  33.701  0.00  0.00     0.252 S 
ATOM     14  O4  IDS d   1      14.036 -37.278  32.644  0.00  0.00    -0.390 OA
ATOM     15  O5  IDS d   1      16.373 -37.910  30.980  0.00  0.00    -0.340 OA
ATOM     16  O1S IDS d   1      14.000 -41.798  33.044  0.00  0.00    -0.572 OA
ATOM     17  H   IDS d   1      17.061 -36.155  31.804  0.00  0.00     0.104 H 
ATOM     18  H   IDS d   1      15.288 -35.828  33.364  0.00  0.00     0.091 H 
ATOM     19  H   IDS d   1      17.019 -39.658  33.764  0.00  0.00     0.097 H 
ATOM     20  H   IDS d   1      17.290 -39.721  31.335  0.00  0.00     0.133 H 
ATOM     21  H   IDS d   1      17.105 -36.305  34.771  0.00  0.00     0.210 HD
ATOM     22  H   IDS d   1      15.461 -37.927  34.695  0.00  0.00     0.091 H 
ATOM     23  H   IDS d   1      14.091 -38.150  32.222  0.00  0.00     0.210 HD
ATOM     24  S2  SGN d   2      18.597 -41.817  29.318  0.00  0.00     0.251 S 
ATOM     25  C2  SGN d   2      20.771 -36.381  29.789  0.00  0.00     0.081 C 
ATOM     26  O5S SGN d   2      17.771 -41.647  28.079  0.00  0.00    -0.572 OA
ATOM     27  O4S SGN d   2      17.703 -42.185  30.465  0.00  0.00    -0.572 OA
ATOM     28  C3  SGN d   2      19.769 -36.555  30.932  0.00  0.00     0.083 C 
ATOM     29  C1  SGN d   2      21.902 -37.408  29.892  0.00  0.00     0.150 C 
ATOM     30  O3  SGN d   2      18.663 -35.672  30.724  0.00  0.00    -0.391 OA
ATOM     31  C5  SGN d   2      20.450 -38.978  31.004  0.00  0.00     0.091 C 
ATOM     32  O4  SGN d   2      18.402 -38.202  32.060  0.00  0.00    -0.348 OA
ATOM     33  C6  SGN d   2      19.919 -40.409  30.881  0.00  0.00     0.067 C 
ATOM     34  O1S SGN d   2      20.422 -34.526  27.437  0.00  0.00    -0.296 OA
ATOM     35  C4  SGN d   2      19.272 -38.002  30.942  0.00  0.00     0.095 C 
ATOM     36  O6S SGN d   2      19.602 -42.908  29.096  0.00  0.00    -0.572 OA
ATOM     37  O3S SGN d   2      22.685 -35.454  27.681  0.00  0.00    -0.296 OA
ATOM     38  O2S SGN d   2      22.224 -33.135  28.322  0.00  0.00    -0.296 OA
ATOM     39  S1  SGN d   2      21.666 -34.527  28.275  0.00  0.00     0.156 S 
ATOM     40  O6  SGN d   2      19.271 -40.592  29.618  0.00  0.00    -0.254 OA
ATOM     41  N   SGN d   2      21.306 -35.011  29.790  0.00  0.00    -0.210 NA
ATOM     42  O5  SGN d   2      21.343 -38.733  29.905  0.00  0.00    -0.349 OA
ATOM     43  H   SGN d   2      20.263 -36.549  28.862  0.00  0.00     0.076 H 
ATOM     44  H   SGN d   2      20.237 -36.328  31.867  0.00  0.00     0.089 H 
ATOM     45  H   SGN d   2      22.547 -37.285  29.048  0.00  0.00     0.131 H 
ATOM     46  H   SGN d   2      18.239 -35.878  29.876  0.00  0.00     0.210 HD
ATOM     47  H   SGN d   2      20.967 -38.845  31.931  0.00  0.00     0.090 H 
ATOM     48  H   SGN d   2      19.218 -40.594  31.667  0.00  0.00     0.080 H 
ATOM     49  H   SGN d   2      20.739 -41.093  30.953  0.00  0.00     0.080 H 
ATOM     50  H   SGN d   2      20.639 -34.238  26.537  0.00  0.00     0.231 HD
ATOM     51  H   SGN d   2      18.732 -38.188  30.037  0.00  0.00     0.091 H 
ATOM     52  H   SGN d   2      22.898 -35.165  26.779  0.00  0.00     0.231 HD
ATOM     53  H   SGN d   2      22.439 -32.843  27.422  0.00  0.00     0.231 HD
ATOM     54  H   SGN d   2      22.152 -34.982  30.360  0.00  0.00     0.140 HD
ATOM     55  O3  SGN d   4      26.671 -39.334  34.425  0.00  0.00    -0.391 OA
ATOM     56  C5  SGN d   4      28.198 -35.914  34.752  0.00  0.00     0.091 C 
ATOM     57  C1  SGN d   4      29.369 -37.394  36.208  0.00  0.00     0.147 C 
ATOM     58  O1S SGN d   4      27.471 -40.369  38.053  0.00  0.00    -0.296 OA
ATOM     59  S2  SGN d   4      28.105 -32.174  35.187  0.00  0.00     0.251 S 
ATOM     60  S1  SGN d   4      28.909 -40.331  37.625  0.00  0.00     0.156 S 
ATOM     61  C4  SGN d   4      27.130 -36.963  34.437  0.00  0.00     0.095 C 
ATOM     62  O6S SGN d   4      29.131 -31.253  34.594  0.00  0.00    -0.572 OA
ATOM     63  O4  SGN d   4      26.617 -36.765  33.115  0.00  0.00    -0.348 OA
ATOM     64  N   SGN d   4      28.997 -39.824  36.078  0.00  0.00    -0.210 NA
ATOM     65  O3S SGN d   4      29.671 -39.387  38.508  0.00  0.00    -0.296 OA
ATOM     66  C6  SGN d   4      27.558 -34.528  34.687  0.00  0.00     0.067 C 
ATOM     67  O2S SGN d   4      29.496 -41.708  37.726  0.00  0.00    -0.296 OA
ATOM     68  C2  SGN d   4      28.354 -38.509  35.948  0.00  0.00     0.081 C 
ATOM     69  O6  SGN d   4      28.527 -33.526  34.998  0.00  0.00    -0.254 OA
ATOM     70  O4S SGN d   4      26.784 -31.964  34.506  0.00  0.00    -0.572 OA
ATOM     71  C3  SGN d   4      27.718 -38.370  34.563  0.00  0.00     0.083 C 
ATOM     72  O1  SGN d   4      30.455 -37.476  35.281  0.00  0.00    -0.369 OA
ATOM     73  O5  SGN d   4      28.707 -36.125  36.080  0.00  0.00    -0.350 OA
ATOM     74  O5S SGN d   4      27.953 -31.887  36.652  0.00  0.00    -0.572 OA
ATOM     75  H   SGN d   4      26.265 -39.248  33.548  0.00  0.00     0.210 HD
ATOM     76  H   SGN d   4      28.997 -35.992  34.044  0.00  0.00     0.090 H 
ATOM     77  H   SGN d   4      29.766 -37.500  37.196  0.00  0.00     0.131 H 
ATOM     78  H   SGN d   4      26.979 -40.979  37.481  0.00  0.00     0.231 HD
ATOM     79  H   SGN d   4      26.329 -36.858  35.139  0.00  0.00     0.091 H 
ATOM     80  H   SGN d   4      28.521 -40.495  35.475  0.00  0.00     0.140 HD
ATOM     81  H   SGN d   4      29.288 -38.498  38.438  0.00  0.00     0.231 HD
ATOM     82  H   SGN d   4      26.755 -34.476  35.392  0.00  0.00     0.080 H 
ATOM     83  H   SGN d   4      27.185 -34.359  33.698  0.00  0.00     0.080 H 
ATOM     84  H   SGN d   4      29.000 -42.314  37.153  0.00  0.00     0.231 HD
ATOM     85  H   SGN d   4      27.579 -38.423  36.680  0.00  0.00     0.076 H 
ATOM     86  H   SGN d   4      28.454 -38.532  33.802  0.00  0.00     0.089 H 
ATOM     87  H   SGN d   4      30.116 -37.382  34.377  0.00  0.00     0.212 HD
ATOM     88  C1  IDS d   3      25.357 -36.172  33.038  0.00  0.00     0.161 C 
ATOM     89  O61 IDS d   3      22.553 -38.936  33.852  0.00  0.00    -0.646 OA
ATOM     90  O3S IDS d   3      22.783 -32.797  32.284  0.00  0.00    -0.572 OA
ATOM     91  O3  IDS d   3      26.257 -37.292  30.398  0.00  0.00    -0.390 OA
ATOM     92  C5  IDS d   3      24.348 -38.247  32.447  0.00  0.00     0.152 C 
ATOM     93  O4  IDS d   3      22.644 -37.217  31.046  0.00  0.00    -0.348 OA
ATOM     94  S   IDS d   3      24.075 -33.439  31.872  0.00  0.00     0.252 S 
ATOM     95  C2  IDS d   3      25.089 -35.578  31.652  0.00  0.00     0.134 C 
ATOM     96  O2S IDS d   3      25.093 -33.176  32.942  0.00  0.00    -0.572 OA
ATOM     97  O5  IDS d   3      24.353 -37.146  33.368  0.00  0.00    -0.340 OA
ATOM     98  C6  IDS d   3      23.327 -39.277  32.939  0.00  0.00     0.206 C 
ATOM     99  C3  IDS d   3      24.978 -36.686  30.603  0.00  0.00     0.094 C 
ATOM    100  O2  IDS d   3      23.861 -34.844  31.707  0.00  0.00    -0.244 OA
ATOM    101  C4  IDS d   3      23.971 -37.751  31.051  0.00  0.00     0.103 C 
ATOM    102  O62 IDS d   3      23.335 -40.408  32.399  0.00  0.00    -0.646 OA
ATOM    103  O1S IDS d   3      24.540 -32.855  30.570  0.00  0.00    -0.572 OA
ATOM    104  H   IDS d   3      25.323 -35.363  33.739  0.00  0.00     0.133 H 
ATOM    105  H   IDS d   3      26.893 -36.617  30.114  0.00  0.00     0.210 HD
ATOM    106  H   IDS d   3      25.318 -38.696  32.394  0.00  0.00     0.104 H 
ATOM    107  H   IDS d   3      25.899 -34.935  31.375  0.00  0.00     0.097 H 
ATOM    108  H   IDS d   3      24.636 -36.253  29.686  0.00  0.00     0.091 H 
ATOM    109  H   IDS d   3      23.999 -38.573  30.367  0.00  0.00     0.092 H 
ENDROOT
TORSDOF 34
ENDMDL
MODEL 17
REMARK VINA RESULT:      -9.4      4.506     11.004
REMARK  0 active torsions:
REMARK  status: ('A' for Active; 'I' for Inactive)
REMARK       I    between atoms: C5_1  and  C6_10 
REMARK       I    between atoms: S2_2  and  O6_59 
REMARK       I    between atoms: O3_3  and  C3_61 
REMARK       I    between atoms: C5_5  and  C6_35 
REMARK       I    between atoms: C2_6  and  N_67 
REMARK       I    between atoms: C4_9  and  O4_55 
REMARK       I    between atoms: C1_11  and  O1_63 
REMARK       I    between atoms: C1_12  and  O4_30 
REMARK       I    between atoms: O1S_13  and  S1_24 
REMARK       I    between atoms: C3_14  and  O3_18 
REMARK       I    between atoms: C1_16  and  O4_29 
REMARK       I    between atoms: C2_19  and  O2_41 
REMARK       I    between atoms: C1_20  and  O4_38 
REMARK       I    between atoms: S2_21  and  O6_47 
REMARK       I    between atoms: O3_23  and  C3_58 
REMARK       I    between atoms: S1_24  and  N_33 
REMARK       I    between atoms: S1_24  and  O2S_37 
REMARK       I    between atoms: S1_24  and  O3S_34 
REMARK       I    between atoms: C4_25  and  O4_30 
REMARK       I    between atoms: C5_28  and  C6_56 
REMARK       I    between atoms: O4_29  and  C4_65 
REMARK       I    between atoms: S_31  and  O2_60 
REMARK       I    between atoms: C2_32  and  O2_60 
REMARK       I    between atoms: N_33  and  C2_46 
REMARK       I    between atoms: C6_35  and  O6_47 
REMARK       I    between atoms: C5_36  and  C6_40 
REMARK       I    between atoms: O4_38  and  C4_45 
REMARK       I    between atoms: C6_40  and  O6_59 
REMARK       I    between atoms: O2_41  and  S_54 
REMARK       I    between atoms: O1S_42  and  S1_53 
REMARK       I    between atoms: O3_43  and  C3_44 
REMARK       I    between atoms: O3S_50  and  S1_53 
REMARK       I    between atoms: O2S_52  and  S1_53 
REMARK       I    between atoms: S1_53  and  N_67 
ROOT
ATOM      1  C5  IDS d   1      16.035 -39.454  30.544  0.00  0.00     0.152 C 
ATOM      2  O2S IDS d   1      14.693 -43.109  34.283  0.00  0.00    -0.572 OA
ATOM      3  C4  IDS d   1      15.195 -39.608  31.816  0.00  0.00     0.097 C 
ATOM      4  C6  IDS d   1      15.176 -38.860  29.422  0.00  0.00     0.206 C 
ATOM      5  C2  IDS d   1      16.577 -41.617  32.380  0.00  0.00     0.134 C 
ATOM      6  C1  IDS d   1      17.373 -41.360  31.096  0.00  0.00     0.161 C 
ATOM      7  O61 IDS d   1      15.229 -39.397  28.293  0.00  0.00    -0.646 OA
ATOM      8  O3S IDS d   1      16.799 -44.020  33.440  0.00  0.00    -0.572 OA
ATOM      9  O2  IDS d   1      15.501 -42.518  32.097  0.00  0.00    -0.244 OA
ATOM     10  O3  IDS d   1      17.053 -39.465  33.387  0.00  0.00    -0.390 OA
ATOM     11  C3  IDS d   1      15.996 -40.308  32.916  0.00  0.00     0.094 C 
ATOM     12  O62 IDS d   1      14.484 -37.854  29.678  0.00  0.00    -0.646 OA
ATOM     13  S   IDS d   1      15.419 -43.577  33.058  0.00  0.00     0.252 S 
ATOM     14  O4  IDS d   1      14.000 -40.343  31.535  0.00  0.00    -0.390 OA
ATOM     15  O5  IDS d   1      16.539 -40.728  30.109  0.00  0.00    -0.340 OA
ATOM     16  O1S IDS d   1      14.679 -44.734  32.454  0.00  0.00    -0.572 OA
ATOM     17  H   IDS d   1      16.856 -38.805  30.765  0.00  0.00     0.104 H 
ATOM     18  H   IDS d   1      14.930 -38.630  32.161  0.00  0.00     0.091 H 
ATOM     19  H   IDS d   1      17.233 -42.040  33.113  0.00  0.00     0.097 H 
ATOM     20  H   IDS d   1      17.710 -42.306  30.729  0.00  0.00     0.133 H 
ATOM     21  H   IDS d   1      16.680 -38.636  33.726  0.00  0.00     0.210 HD
ATOM     22  H   IDS d   1      15.338 -40.518  33.735  0.00  0.00     0.091 H 
ATOM     23  H   IDS d   1      14.233 -41.231  31.222  0.00  0.00     0.210 HD
ATOM     24  S2  SGN d   2      19.508 -44.340  29.056  0.00  0.00     0.251 S 
ATOM     25  C2  SGN d   2      20.707 -38.591  29.031  0.00  0.00     0.081 C 
ATOM     26  O5S SGN d   2      18.770 -44.445  27.756  0.00  0.00    -0.572 OA
ATOM     27  O4S SGN d   2      18.595 -44.737  30.179  0.00  0.00    -0.572 OA
ATOM     28  C3  SGN d   2      19.656 -38.817  30.120  0.00  0.00     0.083 C 
ATOM     29  C1  SGN d   2      21.979 -39.389  29.325  0.00  0.00     0.150 C 
ATOM     30  O3  SGN d   2      18.440 -38.165  29.741  0.00  0.00    -0.391 OA
ATOM     31  C5  SGN d   2      20.719 -41.064  30.516  0.00  0.00     0.091 C 
ATOM     32  O4  SGN d   2      18.491 -40.550  31.343  0.00  0.00    -0.348 OA
ATOM     33  C6  SGN d   2      20.445 -42.571  30.527  0.00  0.00     0.067 C 
ATOM     34  O1S SGN d   2      20.250 -37.078  26.462  0.00  0.00    -0.296 OA
ATOM     35  C4  SGN d   2      19.405 -40.319  30.266  0.00  0.00     0.095 C 
ATOM     36  O6S SGN d   2      20.694 -45.258  29.028  0.00  0.00    -0.572 OA
ATOM     37  O3S SGN d   2      22.608 -37.568  26.956  0.00  0.00    -0.296 OA
ATOM     38  O2S SGN d   2      21.718 -35.311  27.293  0.00  0.00    -0.296 OA
ATOM     39  S1  SGN d   2      21.404 -36.777  27.372  0.00  0.00     0.156 S 
ATOM     40  O6  SGN d   2      19.943 -42.992  29.255  0.00  0.00    -0.254 OA
ATOM     41  N   SGN d   2      21.005 -37.156  28.907  0.00  0.00    -0.210 NA
ATOM     42  O5  SGN d   2      21.648 -40.783  29.455  0.00  0.00    -0.349 OA
ATOM     43  H   SGN d   2      20.312 -38.939  28.100  0.00  0.00     0.076 H 
ATOM     44  H   SGN d   2      20.001 -38.417  31.050  0.00  0.00     0.089 H 
ATOM     45  H   SGN d   2      22.662 -39.244  28.515  0.00  0.00     0.131 H 
ATOM     46  H   SGN d   2      18.128 -38.528  28.898  0.00  0.00     0.210 HD
ATOM     47  H   SGN d   2      21.130 -40.748  31.452  0.00  0.00     0.090 H 
ATOM     48  H   SGN d   2      19.721 -42.792  31.283  0.00  0.00     0.080 H 
ATOM     49  H   SGN d   2      21.358 -43.090  30.730  0.00  0.00     0.080 H 
ATOM     50  H   SGN d   2      20.491 -36.851  25.550  0.00  0.00     0.231 HD
ATOM     51  H   SGN d   2      18.981 -40.688  29.356  0.00  0.00     0.091 H 
ATOM     52  H   SGN d   2      22.844 -37.342  26.042  0.00  0.00     0.231 HD
ATOM     53  H   SGN d   2      21.956 -35.081  26.381  0.00  0.00     0.231 HD
ATOM     54  H   SGN d   2      21.785 -36.922  29.523  0.00  0.00     0.140 HD
ATOM     55  O3  SGN d   4      26.610 -39.979  34.346  0.00  0.00    -0.391 OA
ATOM     56  C5  SGN d   4      27.518 -36.330  34.370  0.00  0.00     0.091 C 
ATOM     57  C1  SGN d   4      28.793 -37.426  36.060  0.00  0.00     0.147 C 
ATOM     58  O1S SGN d   4      27.267 -40.478  38.112  0.00  0.00    -0.296 OA
ATOM     59  S2  SGN d   4      26.772 -32.638  34.361  0.00  0.00     0.251 S 
ATOM     60  S1  SGN d   4      28.710 -40.235  37.776  0.00  0.00     0.156 S 
ATOM     61  C4  SGN d   4      26.668 -37.576  34.112  0.00  0.00     0.095 C 
ATOM     62  O6S SGN d   4      27.677 -31.620  33.732  0.00  0.00    -0.572 OA
ATOM     63  O4  SGN d   4      26.240 -37.608  32.746  0.00  0.00    -0.348 OA
ATOM     64  N   SGN d   4      28.840 -39.884  36.189  0.00  0.00    -0.210 NA
ATOM     65  O3S SGN d   4      29.229 -39.087  38.590  0.00  0.00    -0.296 OA
ATOM     66  C6  SGN d   4      26.665 -35.091  34.104  0.00  0.00     0.067 C 
ATOM     67  O2S SGN d   4      29.506 -41.472  38.074  0.00  0.00    -0.296 OA
ATOM     68  C2  SGN d   4      28.002 -38.721  35.867  0.00  0.00     0.081 C 
ATOM     69  O6  SGN d   4      27.426 -33.909  34.358  0.00  0.00    -0.254 OA
ATOM     70  O4S SGN d   4      25.495 -32.732  33.578  0.00  0.00    -0.572 OA
ATOM     71  C3  SGN d   4      27.468 -38.838  34.437  0.00  0.00     0.083 C 
ATOM     72  O1  SGN d   4      29.950 -37.414  35.220  0.00  0.00    -0.369 OA
ATOM     73  O5  SGN d   4      27.944 -36.311  35.743  0.00  0.00    -0.350 OA
ATOM     74  O5S SGN d   4      26.453 -32.232  35.770  0.00  0.00    -0.572 OA
ATOM     75  H   SGN d   4      26.269 -40.056  33.440  0.00  0.00     0.210 HD
ATOM     76  H   SGN d   4      28.374 -36.341  33.729  0.00  0.00     0.090 H 
ATOM     77  H   SGN d   4      29.119 -37.358  37.077  0.00  0.00     0.131 H 
ATOM     78  H   SGN d   4      26.932 -41.220  37.585  0.00  0.00     0.231 HD
ATOM     79  H   SGN d   4      25.806 -37.539  34.744  0.00  0.00     0.091 H 
ATOM     80  H   SGN d   4      28.533 -40.686  35.639  0.00  0.00     0.140 HD
ATOM     81  H   SGN d   4      28.712 -38.291  38.394  0.00  0.00     0.231 HD
ATOM     82  H   SGN d   4      25.809 -35.106  34.746  0.00  0.00     0.080 H 
ATOM     83  H   SGN d   4      26.352 -35.093  33.081  0.00  0.00     0.080 H 
ATOM     84  H   SGN d   4      29.166 -42.211  37.544  0.00  0.00     0.231 HD
ATOM     85  H   SGN d   4      27.165 -38.696  36.533  0.00  0.00     0.076 H 
ATOM     86  H   SGN d   4      28.280 -38.948  33.749  0.00  0.00     0.089 H 
ATOM     87  H   SGN d   4      29.676 -37.474  34.291  0.00  0.00     0.212 HD
ATOM     88  C1  IDS d   3      24.910 -37.253  32.520  0.00  0.00     0.161 C 
ATOM     89  O61 IDS d   3      22.544 -40.363  33.469  0.00  0.00    -0.646 OA
ATOM     90  O3S IDS d   3      21.884 -34.473  31.217  0.00  0.00    -0.572 OA
ATOM     91  O3  IDS d   3      26.198 -38.468  30.091  0.00  0.00    -0.390 OA
ATOM     92  C5  IDS d   3      24.310 -39.522  32.111  0.00  0.00     0.152 C 
ATOM     93  O4  IDS d   3      22.581 -38.954  30.493  0.00  0.00    -0.348 OA
ATOM     94  S   IDS d   3      23.294 -34.920  30.965  0.00  0.00     0.252 S 
ATOM     95  C2  IDS d   3      24.663 -36.862  31.060  0.00  0.00     0.134 C 
ATOM     96  O2S IDS d   3      24.163 -34.375  32.060  0.00  0.00    -0.572 OA
ATOM     97  O5  IDS d   3      24.058 -38.347  32.896  0.00  0.00    -0.340 OA
ATOM     98  C6  IDS d   3      23.437 -40.657  32.652  0.00  0.00     0.206 C 
ATOM     99  C3  IDS d   3      24.823 -38.075  30.142  0.00  0.00     0.094 C 
ATOM    100  O2  IDS d   3      23.330 -36.350  30.951  0.00  0.00    -0.244 OA
ATOM    101  C4  IDS d   3      23.974 -39.246  30.645  0.00  0.00     0.103 C 
ATOM    102  O62 IDS d   3      23.676 -41.819  32.249  0.00  0.00    -0.646 OA
ATOM    103  O1S IDS d   3      23.762 -34.402  29.637  0.00  0.00    -0.572 OA
ATOM    104  H   IDS d   3      24.685 -36.395  33.118  0.00  0.00     0.133 H 
ATOM    105  H   IDS d   3      26.735 -37.725  29.772  0.00  0.00     0.210 HD
ATOM    106  H   IDS d   3      25.342 -39.798  32.172  0.00  0.00     0.104 H 
ATOM    107  H   IDS d   3      25.375 -36.121  30.763  0.00  0.00     0.097 H 
ATOM    108  H   IDS d   3      24.492 -37.805  29.160  0.00  0.00     0.091 H 
ATOM    109  H   IDS d   3      24.193 -40.117  30.065  0.00  0.00     0.092 H 
ENDROOT
TORSDOF 34
ENDMDL
MODEL 18
REMARK VINA RESULT:      -9.3      4.373     12.195
REMARK  0 active torsions:
REMARK  status: ('A' for Active; 'I' for Inactive)
REMARK       I    between atoms: C5_1  and  C6_10 
REMARK       I    between atoms: S2_2  and  O6_59 
REMARK       I    between atoms: O3_3  and  C3_61 
REMARK       I    between atoms: C5_5  and  C6_35 
REMARK       I    between atoms: C2_6  and  N_67 
REMARK       I    between atoms: C4_9  and  O4_55 
REMARK       I    between atoms: C1_11  and  O1_63 
REMARK       I    between atoms: C1_12  and  O4_30 
REMARK       I    between atoms: O1S_13  and  S1_24 
REMARK       I    between atoms: C3_14  and  O3_18 
REMARK       I    between atoms: C1_16  and  O4_29 
REMARK       I    between atoms: C2_19  and  O2_41 
REMARK       I    between atoms: C1_20  and  O4_38 
REMARK       I    between atoms: S2_21  and  O6_47 
REMARK       I    between atoms: O3_23  and  C3_58 
REMARK       I    between atoms: S1_24  and  N_33 
REMARK       I    between atoms: S1_24  and  O2S_37 
REMARK       I    between atoms: S1_24  and  O3S_34 
REMARK       I    between atoms: C4_25  and  O4_30 
REMARK       I    between atoms: C5_28  and  C6_56 
REMARK       I    between atoms: O4_29  and  C4_65 
REMARK       I    between atoms: S_31  and  O2_60 
REMARK       I    between atoms: C2_32  and  O2_60 
REMARK       I    between atoms: N_33  and  C2_46 
REMARK       I    between atoms: C6_35  and  O6_47 
REMARK       I    between atoms: C5_36  and  C6_40 
REMARK       I    between atoms: O4_38  and  C4_45 
REMARK       I    between atoms: C6_40  and  O6_59 
REMARK       I    between atoms: O2_41  and  S_54 
REMARK       I    between atoms: O1S_42  and  S1_53 
REMARK       I    between atoms: O3_43  and  C3_44 
REMARK       I    between atoms: O3S_50  and  S1_53 
REMARK       I    between atoms: O2S_52  and  S1_53 
REMARK       I    between atoms: S1_53  and  N_67 
ROOT
ATOM      1  C5  IDS d   1      20.342 -47.856  28.975  0.00  0.00     0.152 C 
ATOM      2  O2S IDS d   1      15.422 -47.502  26.781  0.00  0.00    -0.572 OA
ATOM      3  C4  IDS d   1      19.628 -47.955  27.624  0.00  0.00     0.097 C 
ATOM      4  C6  IDS d   1      21.215 -49.097  29.194  0.00  0.00     0.206 C 
ATOM      5  C2  IDS d   1      17.722 -46.687  28.638  0.00  0.00     0.134 C 
ATOM      6  C1  IDS d   1      18.531 -46.622  29.938  0.00  0.00     0.161 C 
ATOM      7  O61 IDS d   1      21.152 -49.672  30.305  0.00  0.00    -0.646 OA
ATOM      8  O3S IDS d   1      15.137 -46.208  28.835  0.00  0.00    -0.572 OA
ATOM      9  O2  IDS d   1      16.879 -47.845  28.663  0.00  0.00    -0.244 OA
ATOM     10  O3  IDS d   1      19.374 -45.556  27.274  0.00  0.00    -0.390 OA
ATOM     11  C3  IDS d   1      18.659 -46.786  27.433  0.00  0.00     0.094 C 
ATOM     12  O62 IDS d   1      21.966 -49.461  28.268  0.00  0.00    -0.646 OA
ATOM     13  S   IDS d   1      15.535 -47.540  28.276  0.00  0.00     0.252 S 
ATOM     14  O4  IDS d   1      18.924 -49.197  27.525  0.00  0.00    -0.390 OA
ATOM     15  O5  IDS d   1      19.390 -47.770  30.050  0.00  0.00    -0.340 OA
ATOM     16  O1S IDS d   1      14.616 -48.596  28.816  0.00  0.00    -0.572 OA
ATOM     17  H   IDS d   1      20.947 -46.974  28.967  0.00  0.00     0.104 H 
ATOM     18  H   IDS d   1      20.367 -47.911  26.852  0.00  0.00     0.091 H 
ATOM     19  H   IDS d   1      17.130 -45.800  28.555  0.00  0.00     0.097 H 
ATOM     20  H   IDS d   1      17.836 -46.612  30.751  0.00  0.00     0.133 H 
ATOM     21  H   IDS d   1      19.967 -45.623  26.509  0.00  0.00     0.210 HD
ATOM     22  H   IDS d   1      18.083 -46.961  26.547  0.00  0.00     0.091 H 
ATOM     23  H   IDS d   1      18.251 -49.243  28.222  0.00  0.00     0.210 HD
ATOM     24  S2  SGN d   2      16.797 -46.113  33.724  0.00  0.00     0.251 S 
ATOM     25  C2  SGN d   2      22.228 -44.514  32.159  0.00  0.00     0.081 C 
ATOM     26  O5S SGN d   2      17.108 -47.410  34.408  0.00  0.00    -0.572 OA
ATOM     27  O4S SGN d   2      15.907 -46.374  32.544  0.00  0.00    -0.572 OA
ATOM     28  C3  SGN d   2      21.492 -44.894  30.872  0.00  0.00     0.083 C 
ATOM     29  C1  SGN d   2      21.525 -43.355  32.869  0.00  0.00     0.150 C 
ATOM     30  O3  SGN d   2      22.098 -46.062  30.313  0.00  0.00    -0.391 OA
ATOM     31  C5  SGN d   2      19.396 -44.008  31.948  0.00  0.00     0.091 C 
ATOM     32  O4  SGN d   2      19.308 -45.456  29.996  0.00  0.00    -0.348 OA
ATOM     33  C6  SGN d   2      17.975 -44.391  32.375  0.00  0.00     0.067 C 
ATOM     34  O1S SGN d   2      24.536 -46.042  33.357  0.00  0.00    -0.296 OA
ATOM     35  C4  SGN d   2      20.028 -45.187  31.203  0.00  0.00     0.095 C 
ATOM     36  O6S SGN d   2      16.097 -45.201  34.687  0.00  0.00    -0.572 OA
ATOM     37  O3S SGN d   2      24.162 -43.818  34.336  0.00  0.00    -0.296 OA
ATOM     38  O2S SGN d   2      26.011 -44.185  32.772  0.00  0.00    -0.296 OA
ATOM     39  S1  SGN d   2      24.599 -44.564  33.110  0.00  0.00     0.156 S 
ATOM     40  O6  SGN d   2      18.010 -45.503  33.275  0.00  0.00    -0.254 OA
ATOM     41  N   SGN d   2      23.627 -44.175  31.860  0.00  0.00    -0.210 NA
ATOM     42  O5  SGN d   2      20.157 -43.714  33.131  0.00  0.00    -0.349 OA
ATOM     43  H   SGN d   2      22.214 -45.356  32.819  0.00  0.00     0.076 H 
ATOM     44  H   SGN d   2      21.548 -44.090  30.168  0.00  0.00     0.089 H 
ATOM     45  H   SGN d   2      22.040 -43.159  33.786  0.00  0.00     0.131 H 
ATOM     46  H   SGN d   2      22.047 -46.790  30.951  0.00  0.00     0.210 HD
ATOM     47  H   SGN d   2      19.380 -43.154  31.304  0.00  0.00     0.090 H 
ATOM     48  H   SGN d   2      17.406 -44.656  31.509  0.00  0.00     0.080 H 
ATOM     49  H   SGN d   2      17.523 -43.557  32.870  0.00  0.00     0.080 H 
ATOM     50  H   SGN d   2      25.115 -46.270  34.101  0.00  0.00     0.231 HD
ATOM     51  H   SGN d   2      19.983 -46.046  31.840  0.00  0.00     0.091 H 
ATOM     52  H   SGN d   2      24.740 -44.051  35.080  0.00  0.00     0.231 HD
ATOM     53  H   SGN d   2      26.593 -44.416  33.514  0.00  0.00     0.231 HD
ATOM     54  H   SGN d   2      23.697 -43.173  31.681  0.00  0.00     0.140 HD
ATOM     55  O3  SGN d   4      19.609 -36.917  31.496  0.00  0.00    -0.391 OA
ATOM     56  C5  SGN d   4      23.057 -35.755  30.545  0.00  0.00     0.091 C 
ATOM     57  C1  SGN d   4      21.555 -33.923  30.282  0.00  0.00     0.147 C 
ATOM     58  O1S SGN d   4      17.805 -34.513  29.080  0.00  0.00    -0.296 OA
ATOM     59  S2  SGN d   4      26.372 -36.028  28.778  0.00  0.00     0.251 S 
ATOM     60  S1  SGN d   4      18.316 -33.418  29.971  0.00  0.00     0.156 S 
ATOM     61  C4  SGN d   4      21.913 -36.742  30.795  0.00  0.00     0.095 C 
ATOM     62  O6S SGN d   4      27.646 -35.463  29.333  0.00  0.00    -0.572 OA
ATOM     63  O4  SGN d   4      22.351 -37.797  31.657  0.00  0.00    -0.348 OA
ATOM     64  N   SGN d   4      19.251 -34.066  31.138  0.00  0.00    -0.210 NA
ATOM     65  O3S SGN d   4      19.123 -32.447  29.160  0.00  0.00    -0.296 OA
ATOM     66  C6  SGN d   4      24.202 -36.497  29.856  0.00  0.00     0.067 C 
ATOM     67  O2S SGN d   4      17.156 -32.709  30.606  0.00  0.00    -0.296 OA
ATOM     68  C2  SGN d   4      20.349 -34.831  30.529  0.00  0.00     0.081 C 
ATOM     69  O6  SGN d   4      25.278 -35.596  29.589  0.00  0.00    -0.254 OA
ATOM     70  O4S SGN d   4      26.438 -37.527  28.785  0.00  0.00    -0.572 OA
ATOM     71  C3  SGN d   4      20.720 -36.018  31.420  0.00  0.00     0.083 C 
ATOM     72  O1  SGN d   4      22.012 -33.349  31.509  0.00  0.00    -0.369 OA
ATOM     73  O5  SGN d   4      22.604 -34.699  29.681  0.00  0.00    -0.350 OA
ATOM     74  O5S SGN d   4      26.179 -35.554  27.367  0.00  0.00    -0.572 OA
ATOM     75  H   SGN d   4      19.841 -37.671  32.060  0.00  0.00     0.210 HD
ATOM     76  H   SGN d   4      23.384 -35.343  31.476  0.00  0.00     0.090 H 
ATOM     77  H   SGN d   4      21.271 -33.126  29.627  0.00  0.00     0.131 H 
ATOM     78  H   SGN d   4      17.283 -35.140  29.605  0.00  0.00     0.231 HD
ATOM     79  H   SGN d   4      21.613 -37.161  29.858  0.00  0.00     0.091 H 
ATOM     80  H   SGN d   4      18.687 -34.687  31.718  0.00  0.00     0.140 HD
ATOM     81  H   SGN d   4      19.872 -32.910  28.752  0.00  0.00     0.231 HD
ATOM     82  H   SGN d   4      23.850 -36.912  28.934  0.00  0.00     0.080 H 
ATOM     83  H   SGN d   4      24.550 -37.279  30.497  0.00  0.00     0.080 H 
ATOM     84  H   SGN d   4      16.638 -33.342  31.129  0.00  0.00     0.231 HD
ATOM     85  H   SGN d   4      20.027 -35.213  29.583  0.00  0.00     0.076 H 
ATOM     86  H   SGN d   4      20.969 -35.677  32.404  0.00  0.00     0.089 H 
ATOM     87  H   SGN d   4      22.276 -34.057  32.119  0.00  0.00     0.212 HD
ATOM     88  C1  IDS d   3      22.613 -39.018  31.034  0.00  0.00     0.161 C 
ATOM     89  O61 IDS d   3      19.132 -40.888  30.294  0.00  0.00    -0.646 OA
ATOM     90  O3S IDS d   3      25.323 -41.990  29.482  0.00  0.00    -0.572 OA
ATOM     91  O3  IDS d   3      22.556 -39.252  34.030  0.00  0.00    -0.390 OA
ATOM     92  C5  IDS d   3      20.614 -39.967  31.914  0.00  0.00     0.152 C 
ATOM     93  O4  IDS d   3      21.553 -42.207  32.095  0.00  0.00    -0.348 OA
ATOM     94  S   IDS d   3      25.164 -40.950  30.551  0.00  0.00     0.252 S 
ATOM     95  C2  IDS d   3      23.496 -39.923  31.899  0.00  0.00     0.134 C 
ATOM     96  O2S IDS d   3      25.350 -39.600  29.926  0.00  0.00    -0.572 OA
ATOM     97  O5  IDS d   3      21.371 -39.672  30.731  0.00  0.00    -0.340 OA
ATOM     98  C6  IDS d   3      19.269 -40.561  31.487  0.00  0.00     0.206 C 
ATOM     99  C3  IDS d   3      22.744 -40.368  33.154  0.00  0.00     0.094 C 
ATOM    100  O2  IDS d   3      23.858 -41.071  31.123  0.00  0.00    -0.244 OA
ATOM    101  C4  IDS d   3      21.383 -40.964  32.783  0.00  0.00     0.103 C 
ATOM    102  O62 IDS d   3      18.379 -40.675  32.362  0.00  0.00    -0.646 OA
ATOM    103  O1S IDS d   3      26.193 -41.162  31.623  0.00  0.00    -0.572 OA
ATOM    104  H   IDS d   3      23.152 -38.824  30.130  0.00  0.00     0.133 H 
ATOM    105  H   IDS d   3      23.418 -38.876  34.264  0.00  0.00     0.210 HD
ATOM    106  H   IDS d   3      20.452 -39.078  32.487  0.00  0.00     0.104 H 
ATOM    107  H   IDS d   3      24.369 -39.385  32.204  0.00  0.00     0.097 H 
ATOM    108  H   IDS d   3      23.325 -41.118  33.651  0.00  0.00     0.091 H 
ATOM    109  H   IDS d   3      20.825 -41.155  33.675  0.00  0.00     0.092 H 
ENDROOT
TORSDOF 34
ENDMDL
MODEL 19
REMARK VINA RESULT:      -9.1      4.622     12.421
REMARK  0 active torsions:
REMARK  status: ('A' for Active; 'I' for Inactive)
REMARK       I    between atoms: C5_1  and  C6_10 
REMARK       I    between atoms: S2_2  and  O6_59 
REMARK       I    between atoms: O3_3  and  C3_61 
REMARK       I    between atoms: C5_5  and  C6_35 
REMARK       I    between atoms: C2_6  and  N_67 
REMARK       I    between atoms: C4_9  and  O4_55 
REMARK       I    between atoms: C1_11  and  O1_63 
REMARK       I    between atoms: C1_12  and  O4_30 
REMARK       I    between atoms: O1S_13  and  S1_24 
REMARK       I    between atoms: C3_14  and  O3_18 
REMARK       I    between atoms: C1_16  and  O4_29 
REMARK       I    between atoms: C2_19  and  O2_41 
REMARK       I    between atoms: C1_20  and  O4_38 
REMARK       I    between atoms: S2_21  and  O6_47 
REMARK       I    between atoms: O3_23  and  C3_58 
REMARK       I    between atoms: S1_24  and  N_33 
REMARK       I    between atoms: S1_24  and  O2S_37 
REMARK       I    between atoms: S1_24  and  O3S_34 
REMARK       I    between atoms: C4_25  and  O4_30 
REMARK       I    between atoms: C5_28  and  C6_56 
REMARK       I    between atoms: O4_29  and  C4_65 
REMARK       I    between atoms: S_31  and  O2_60 
REMARK       I    between atoms: C2_32  and  O2_60 
REMARK       I    between atoms: N_33  and  C2_46 
REMARK       I    between atoms: C6_35  and  O6_47 
REMARK       I    between atoms: C5_36  and  C6_40 
REMARK       I    between atoms: O4_38  and  C4_45 
REMARK       I    between atoms: C6_40  and  O6_59 
REMARK       I    between atoms: O2_41  and  S_54 
REMARK       I    between atoms: O1S_42  and  S1_53 
REMARK       I    between atoms: O3_43  and  C3_44 
REMARK       I    between atoms: O3S_50  and  S1_53 
REMARK       I    between atoms: O2S_52  and  S1_53 
REMARK       I    between atoms: S1_53  and  N_67 
ROOT
ATOM      1  C5  IDS d   1      21.670 -47.361  30.753  0.00  0.00     0.152 C 
ATOM      2  O2S IDS d   1      17.339 -48.809  27.873  0.00  0.00    -0.572 OA
ATOM      3  C4  IDS d   1      21.285 -48.042  29.436  0.00  0.00     0.097 C 
ATOM      4  C6  IDS d   1      22.654 -48.245  31.528  0.00  0.00     0.206 C 
ATOM      5  C2  IDS d   1      19.036 -46.962  29.636  0.00  0.00     0.134 C 
ATOM      6  C1  IDS d   1      19.528 -46.308  30.932  0.00  0.00     0.161 C 
ATOM      7  O61 IDS d   1      22.443 -48.432  32.748  0.00  0.00    -0.646 OA
ATOM      8  O3S IDS d   1      16.427 -47.018  29.264  0.00  0.00    -0.572 OA
ATOM      9  O2  IDS d   1      18.395 -48.204  29.947  0.00  0.00    -0.244 OA
ATOM     10  O3  IDS d   1      20.750 -45.999  28.220  0.00  0.00    -0.390 OA
ATOM     11  C3  IDS d   1      20.213 -47.236  28.699  0.00  0.00     0.094 C 
ATOM     12  O62 IDS d   1      23.633 -48.716  30.915  0.00  0.00    -0.646 OA
ATOM     13  S   IDS d   1      17.134 -48.339  29.282  0.00  0.00     0.252 S 
ATOM     14  O4  IDS d   1      20.817 -49.372  29.683  0.00  0.00    -0.390 OA
ATOM     15  O5  IDS d   1      20.508 -47.144  31.572  0.00  0.00    -0.340 OA
ATOM     16  O1S IDS d   1      16.292 -49.338  30.019  0.00  0.00    -0.572 OA
ATOM     17  H   IDS d   1      22.121 -46.420  30.521  0.00  0.00     0.104 H 
ATOM     18  H   IDS d   1      22.157 -48.089  28.818  0.00  0.00     0.091 H 
ATOM     19  H   IDS d   1      18.348 -46.299  29.156  0.00  0.00     0.097 H 
ATOM     20  H   IDS d   1      18.682 -46.189  31.576  0.00  0.00     0.133 H 
ATOM     21  H   IDS d   1      21.496 -46.178  27.626  0.00  0.00     0.210 HD
ATOM     22  H   IDS d   1      19.875 -47.808  27.859  0.00  0.00     0.091 H 
ATOM     23  H   IDS d   1      20.026 -49.336  30.243  0.00  0.00     0.210 HD
ATOM     24  S2  SGN d   2      16.966 -44.998  33.985  0.00  0.00     0.251 S 
ATOM     25  C2  SGN d   2      22.297 -42.849  32.778  0.00  0.00     0.081 C 
ATOM     26  O5S SGN d   2      17.317 -45.907  35.125  0.00  0.00    -0.572 OA
ATOM     27  O4S SGN d   2      16.400 -45.811  32.858  0.00  0.00    -0.572 OA
ATOM     28  C3  SGN d   2      21.921 -43.772  31.617  0.00  0.00     0.083 C 
ATOM     29  C1  SGN d   2      21.290 -41.704  32.915  0.00  0.00     0.150 C 
ATOM     30  O3  SGN d   2      22.804 -44.897  31.608  0.00  0.00    -0.391 OA
ATOM     31  C5  SGN d   2      19.533 -43.065  31.983  0.00  0.00     0.091 C 
ATOM     32  O4  SGN d   2      20.087 -45.046  30.686  0.00  0.00    -0.348 OA
ATOM     33  C6  SGN d   2      18.129 -43.589  32.302  0.00  0.00     0.067 C 
ATOM     34  O1S SGN d   2      24.500 -43.371  34.771  0.00  0.00    -0.296 OA
ATOM     35  C4  SGN d   2      20.482 -44.254  31.810  0.00  0.00     0.095 C 
ATOM     36  O6S SGN d   2      15.945 -44.000  34.444  0.00  0.00    -0.572 OA
ATOM     37  O3S SGN d   2      23.590 -41.088  34.826  0.00  0.00    -0.296 OA
ATOM     38  O2S SGN d   2      25.765 -41.527  33.789  0.00  0.00    -0.296 OA
ATOM     39  S1  SGN d   2      24.388 -42.074  34.025  0.00  0.00     0.156 S 
ATOM     40  O6  SGN d   2      18.140 -44.317  33.534  0.00  0.00    -0.254 OA
ATOM     41  N   SGN d   2      23.659 -42.328  32.589  0.00  0.00    -0.210 NA
ATOM     42  O5  SGN d   2      19.969 -42.248  33.082  0.00  0.00    -0.349 OA
ATOM     43  H   SGN d   2      22.271 -43.416  33.685  0.00  0.00     0.076 H 
ATOM     44  H   SGN d   2      22.003 -43.245  30.690  0.00  0.00     0.089 H 
ATOM     45  H   SGN d   2      21.561 -41.118  33.768  0.00  0.00     0.131 H 
ATOM     46  H   SGN d   2      22.729 -45.374  32.449  0.00  0.00     0.210 HD
ATOM     47  H   SGN d   2      19.525 -42.488  31.081  0.00  0.00     0.090 H 
ATOM     48  H   SGN d   2      17.806 -44.235  31.513  0.00  0.00     0.080 H 
ATOM     49  H   SGN d   2      17.460 -42.760  32.394  0.00  0.00     0.080 H 
ATOM     50  H   SGN d   2      24.934 -43.216  35.625  0.00  0.00     0.231 HD
ATOM     51  H   SGN d   2      20.434 -44.850  32.697  0.00  0.00     0.091 H 
ATOM     52  H   SGN d   2      24.025 -40.938  35.681  0.00  0.00     0.231 HD
ATOM     53  H   SGN d   2      26.203 -41.375  34.641  0.00  0.00     0.231 HD
ATOM     54  H   SGN d   2      23.613 -41.447  32.077  0.00  0.00     0.140 HD
ATOM     55  O3  SGN d   4      18.754 -36.628  29.068  0.00  0.00    -0.391 OA
ATOM     56  C5  SGN d   4      22.107 -35.114  28.289  0.00  0.00     0.091 C 
ATOM     57  C1  SGN d   4      20.435 -33.836  27.170  0.00  0.00     0.147 C 
ATOM     58  O1S SGN d   4      17.164 -35.580  25.715  0.00  0.00    -0.296 OA
ATOM     59  S2  SGN d   4      25.726 -35.214  27.249  0.00  0.00     0.251 S 
ATOM     60  S1  SGN d   4      17.300 -34.174  26.222  0.00  0.00     0.156 S 
ATOM     61  C4  SGN d   4      21.101 -36.191  28.701  0.00  0.00     0.095 C 
ATOM     62  O6S SGN d   4      26.750 -34.238  27.748  0.00  0.00    -0.572 OA
ATOM     63  O4  SGN d   4      21.499 -36.792  29.938  0.00  0.00    -0.348 OA
ATOM     64  N   SGN d   4      18.051 -34.193  27.668  0.00  0.00    -0.210 NA
ATOM     65  O3S SGN d   4      18.104 -33.364  25.248  0.00  0.00    -0.296 OA
ATOM     66  C6  SGN d   4      23.472 -35.771  28.088  0.00  0.00     0.067 C 
ATOM     67  O2S SGN d   4      15.936 -33.568  26.383  0.00  0.00    -0.296 OA
ATOM     68  C2  SGN d   4      19.357 -34.855  27.542  0.00  0.00     0.081 C 
ATOM     69  O6  SGN d   4      24.430 -34.793  27.681  0.00  0.00    -0.254 OA
ATOM     70  O4S SGN d   4      26.016 -36.579  27.800  0.00  0.00    -0.572 OA
ATOM     71  C3  SGN d   4      19.705 -35.583  28.843  0.00  0.00     0.083 C 
ATOM     72  O1  SGN d   4      20.525 -32.813  28.165  0.00  0.00    -0.369 OA
ATOM     73  O5  SGN d   4      21.694 -34.517  27.048  0.00  0.00    -0.350 OA
ATOM     74  O5S SGN d   4      25.769 -35.272  25.750  0.00  0.00    -0.572 OA
ATOM     75  H   SGN d   4      18.972 -37.092  29.892  0.00  0.00     0.210 HD
ATOM     76  H   SGN d   4      22.160 -34.364  29.050  0.00  0.00     0.090 H 
ATOM     77  H   SGN d   4      20.180 -33.373  26.240  0.00  0.00     0.131 H 
ATOM     78  H   SGN d   4      16.644 -36.102  26.346  0.00  0.00     0.231 HD
ATOM     79  H   SGN d   4      21.076 -36.945  27.942  0.00  0.00     0.091 H 
ATOM     80  H   SGN d   4      17.477 -34.702  28.341  0.00  0.00     0.140 HD
ATOM     81  H   SGN d   4      18.984 -33.759  25.148  0.00  0.00     0.231 HD
ATOM     82  H   SGN d   4      23.394 -36.526  27.333  0.00  0.00     0.080 H 
ATOM     83  H   SGN d   4      23.790 -36.210  29.010  0.00  0.00     0.080 H 
ATOM     84  H   SGN d   4      15.420 -34.096  27.014  0.00  0.00     0.231 HD
ATOM     85  H   SGN d   4      19.308 -35.581  26.758  0.00  0.00     0.076 H 
ATOM     86  H   SGN d   4      19.682 -34.898  29.666  0.00  0.00     0.089 H 
ATOM     87  H   SGN d   4      20.757 -33.212  29.019  0.00  0.00     0.212 HD
ATOM     88  C1  IDS d   3      22.072 -38.060  29.838  0.00  0.00     0.161 C 
ATOM     89  O61 IDS d   3      19.157 -40.778  29.305  0.00  0.00    -0.646 OA
ATOM     90  O3S IDS d   3      25.472 -40.711  29.868  0.00  0.00    -0.572 OA
ATOM     91  O3  IDS d   3      21.410 -37.326  32.676  0.00  0.00    -0.390 OA
ATOM     92  C5  IDS d   3      20.099 -39.087  30.692  0.00  0.00     0.152 C 
ATOM     93  O4  IDS d   3      21.308 -40.889  31.796  0.00  0.00    -0.348 OA
ATOM     94  S   IDS d   3      24.931 -39.443  30.461  0.00  0.00     0.252 S 
ATOM     95  C2  IDS d   3      22.876 -38.425  31.089  0.00  0.00     0.134 C 
ATOM     96  O2S IDS d   3      25.038 -38.359  29.430  0.00  0.00    -0.572 OA
ATOM     97  O5  IDS d   3      21.038 -39.031  29.607  0.00  0.00    -0.340 OA
ATOM     98  C6  IDS d   3      18.984 -40.063  30.309  0.00  0.00     0.206 C 
ATOM     99  C3  IDS d   3      21.949 -38.595  32.294  0.00  0.00     0.094 C 
ATOM    100  O2  IDS d   3      23.566 -39.654  30.837  0.00  0.00    -0.244 OA
ATOM    101  C4  IDS d   3      20.807 -39.560  31.962  0.00  0.00     0.103 C 
ATOM    102  O62 IDS d   3      17.955 -40.080  31.025  0.00  0.00    -0.646 OA
ATOM    103  O1S IDS d   3      25.726 -39.070  31.677  0.00  0.00    -0.572 OA
ATOM    104  H   IDS d   3      22.756 -38.055  29.014  0.00  0.00     0.133 H 
ATOM    105  H   IDS d   3      22.135 -36.717  32.887  0.00  0.00     0.210 HD
ATOM    106  H   IDS d   3      19.685 -38.118  30.878  0.00  0.00     0.104 H 
ATOM    107  H   IDS d   3      23.571 -37.642  31.309  0.00  0.00     0.097 H 
ATOM    108  H   IDS d   3      22.518 -39.001  33.106  0.00  0.00     0.091 H 
ATOM    109  H   IDS d   3      20.106 -39.570  32.770  0.00  0.00     0.092 H 
ENDROOT
TORSDOF 34
ENDMDL
MODEL 20
REMARK VINA RESULT:      -9.1      4.189      5.945
REMARK  0 active torsions:
REMARK  status: ('A' for Active; 'I' for Inactive)
REMARK       I    between atoms: C5_1  and  C6_10 
REMARK       I    between atoms: S2_2  and  O6_59 
REMARK       I    between atoms: O3_3  and  C3_61 
REMARK       I    between atoms: C5_5  and  C6_35 
REMARK       I    between atoms: C2_6  and  N_67 
REMARK       I    between atoms: C4_9  and  O4_55 
REMARK       I    between atoms: C1_11  and  O1_63 
REMARK       I    between atoms: C1_12  and  O4_30 
REMARK       I    between atoms: O1S_13  and  S1_24 
REMARK       I    between atoms: C3_14  and  O3_18 
REMARK       I    between atoms: C1_16  and  O4_29 
REMARK       I    between atoms: C2_19  and  O2_41 
REMARK       I    between atoms: C1_20  and  O4_38 
REMARK       I    between atoms: S2_21  and  O6_47 
REMARK       I    between atoms: O3_23  and  C3_58 
REMARK       I    between atoms: S1_24  and  N_33 
REMARK       I    between atoms: S1_24  and  O2S_37 
REMARK       I    between atoms: S1_24  and  O3S_34 
REMARK       I    between atoms: C4_25  and  O4_30 
REMARK       I    between atoms: C5_28  and  C6_56 
REMARK       I    between atoms: O4_29  and  C4_65 
REMARK       I    between atoms: S_31  and  O2_60 
REMARK       I    between atoms: C2_32  and  O2_60 
REMARK       I    between atoms: N_33  and  C2_46 
REMARK       I    between atoms: C6_35  and  O6_47 
REMARK       I    between atoms: C5_36  and  C6_40 
REMARK       I    between atoms: O4_38  and  C4_45 
REMARK       I    between atoms: C6_40  and  O6_59 
REMARK       I    between atoms: O2_41  and  S_54 
REMARK       I    between atoms: O1S_42  and  S1_53 
REMARK       I    between atoms: O3_43  and  C3_44 
REMARK       I    between atoms: O3S_50  and  S1_53 
REMARK       I    between atoms: O2S_52  and  S1_53 
REMARK       I    between atoms: S1_53  and  N_67 
ROOT
ATOM      1  C5  IDS d   1      19.341 -34.491  31.749  0.00  0.00     0.152 C 
ATOM      2  O2S IDS d   1      14.005 -34.947  31.066  0.00  0.00    -0.572 OA
ATOM      3  C4  IDS d   1      18.019 -34.269  32.490  0.00  0.00     0.097 C 
ATOM      4  C6  IDS d   1      20.200 -33.224  31.825  0.00  0.00     0.206 C 
ATOM      5  C2  IDS d   1      16.938 -35.814  30.845  0.00  0.00     0.134 C 
ATOM      6  C1  IDS d   1      18.313 -35.988  30.191  0.00  0.00     0.161 C 
ATOM      7  O61 IDS d   1      20.736 -32.811  30.772  0.00  0.00    -0.646 OA
ATOM      8  O3S IDS d   1      14.850 -36.527  29.402  0.00  0.00    -0.572 OA
ATOM      9  O2  IDS d   1      16.239 -34.744  30.199  0.00  0.00    -0.244 OA
ATOM     10  O3  IDS d   1      17.614 -36.610  33.031  0.00  0.00    -0.390 OA
ATOM     11  C3  IDS d   1      17.094 -35.477  32.328  0.00  0.00     0.094 C 
ATOM     12  O62 IDS d   1      20.347 -32.676  32.937  0.00  0.00    -0.646 OA
ATOM     13  S   IDS d   1      14.893 -35.103  29.867  0.00  0.00     0.252 S 
ATOM     14  O4  IDS d   1      17.372 -33.087  32.008  0.00  0.00    -0.390 OA
ATOM     15  O5  IDS d   1      19.103 -34.799  30.365  0.00  0.00    -0.340 OA
ATOM     16  O1S IDS d   1      14.402 -34.210  28.767  0.00  0.00    -0.572 OA
ATOM     17  H   IDS d   1      19.848 -35.311  32.213  0.00  0.00     0.104 H 
ATOM     18  H   IDS d   1      18.237 -34.147  33.530  0.00  0.00     0.091 H 
ATOM     19  H   IDS d   1      16.391 -36.728  30.745  0.00  0.00     0.097 H 
ATOM     20  H   IDS d   1      18.155 -36.166  29.148  0.00  0.00     0.133 H 
ATOM     21  H   IDS d   1      17.711 -36.392  33.971  0.00  0.00     0.210 HD
ATOM     22  H   IDS d   1      16.137 -35.231  32.741  0.00  0.00     0.091 H 
ATOM     23  H   IDS d   1      17.172 -33.191  31.065  0.00  0.00     0.210 HD
ATOM     24  S2  SGN d   2      18.848 -37.148  26.194  0.00  0.00     0.251 S 
ATOM     25  C2  SGN d   2      22.620 -38.066  30.601  0.00  0.00     0.081 C 
ATOM     26  O5S SGN d   2      19.477 -35.934  25.578  0.00  0.00    -0.572 OA
ATOM     27  O4S SGN d   2      17.469 -36.803  26.674  0.00  0.00    -0.572 OA
ATOM     28  C3  SGN d   2      21.315 -37.578  31.233  0.00  0.00     0.083 C 
ATOM     29  C1  SGN d   2      22.399 -39.366  29.823  0.00  0.00     0.150 C 
ATOM     30  O3  SGN d   2      21.535 -36.298  31.833  0.00  0.00    -0.391 OA
ATOM     31  C5  SGN d   2      20.106 -38.771  29.375  0.00  0.00     0.091 C 
ATOM     32  O4  SGN d   2      19.000 -37.084  30.733  0.00  0.00    -0.348 OA
ATOM     33  C6  SGN d   2      19.129 -38.567  28.214  0.00  0.00     0.067 C 
ATOM     34  O1S SGN d   2      25.216 -36.530  30.564  0.00  0.00    -0.296 OA
ATOM     35  C4  SGN d   2      20.250 -37.454  30.143  0.00  0.00     0.095 C 
ATOM     36  O6S SGN d   2      18.763 -38.236  25.166  0.00  0.00    -0.572 OA
ATOM     37  O3S SGN d   2      25.413 -38.890  29.901  0.00  0.00    -0.296 OA
ATOM     38  O2S SGN d   2      26.153 -38.163  32.120  0.00  0.00    -0.296 OA
ATOM     39  S1  SGN d   2      25.135 -37.951  31.038  0.00  0.00     0.156 S 
ATOM     40  O6  SGN d   2      19.638 -37.588  27.302  0.00  0.00    -0.254 OA
ATOM     41  N   SGN d   2      23.648 -38.246  31.638  0.00  0.00    -0.210 NA
ATOM     42  O5  SGN d   2      21.378 -39.159  28.830  0.00  0.00    -0.349 OA
ATOM     43  H   SGN d   2      22.961 -37.326  29.908  0.00  0.00     0.076 H 
ATOM     44  H   SGN d   2      20.988 -38.271  31.979  0.00  0.00     0.089 H 
ATOM     45  H   SGN d   2      23.321 -39.640  29.356  0.00  0.00     0.131 H 
ATOM     46  H   SGN d   2      21.832 -35.670  31.157  0.00  0.00     0.210 HD
ATOM     47  H   SGN d   2      19.749 -39.528  30.041  0.00  0.00     0.090 H 
ATOM     48  H   SGN d   2      18.187 -38.235  28.599  0.00  0.00     0.080 H 
ATOM     49  H   SGN d   2      19.006 -39.495  27.695  0.00  0.00     0.080 H 
ATOM     50  H   SGN d   2      26.102 -36.359  30.208  0.00  0.00     0.231 HD
ATOM     51  H   SGN d   2      20.552 -36.696  29.450  0.00  0.00     0.091 H 
ATOM     52  H   SGN d   2      26.298 -38.713  29.545  0.00  0.00     0.231 HD
ATOM     53  H   SGN d   2      27.040 -37.988  31.768  0.00  0.00     0.231 HD
ATOM     54  H   SGN d   2      23.611 -39.205  31.983  0.00  0.00     0.140 HD
ATOM     55  O3  SGN d   4      20.033 -45.693  30.990  0.00  0.00    -0.391 OA
ATOM     56  C5  SGN d   4      22.450 -46.427  33.775  0.00  0.00     0.091 C 
ATOM     57  C1  SGN d   4      21.033 -48.325  33.500  0.00  0.00     0.147 C 
ATOM     58  O1S SGN d   4      17.218 -47.888  32.449  0.00  0.00    -0.296 OA
ATOM     59  S2  SGN d   4      24.325 -45.645  36.947  0.00  0.00     0.251 S 
ATOM     60  S1  SGN d   4      18.121 -49.048  32.145  0.00  0.00     0.156 S 
ATOM     61  C4  SGN d   4      21.615 -45.581  32.811  0.00  0.00     0.095 C 
ATOM     62  O6S SGN d   4      25.699 -46.174  37.239  0.00  0.00    -0.572 OA
ATOM     63  O4  SGN d   4      22.445 -44.620  32.151  0.00  0.00    -0.348 OA
ATOM     64  N   SGN d   4      19.534 -48.489  31.554  0.00  0.00    -0.210 NA
ATOM     65  O3S SGN d   4      18.374 -49.830  33.400  0.00  0.00    -0.296 OA
ATOM     66  C6  SGN d   4      23.057 -45.508  34.834  0.00  0.00     0.067 C 
ATOM     67  O2S SGN d   4      17.472 -49.929  31.118  0.00  0.00    -0.296 OA
ATOM     68  C2  SGN d   4      20.143 -47.561  32.518  0.00  0.00     0.081 C 
ATOM     69  O6  SGN d   4      23.826 -46.272  35.763  0.00  0.00    -0.254 OA
ATOM     70  O4S SGN d   4      24.388 -44.161  36.737  0.00  0.00    -0.572 OA
ATOM     71  C3  SGN d   4      20.932 -46.479  31.778  0.00  0.00     0.083 C 
ATOM     72  O1  SGN d   4      22.070 -49.020  32.803  0.00  0.00    -0.369 OA
ATOM     73  O5  SGN d   4      21.606 -47.391  34.429  0.00  0.00    -0.350 OA
ATOM     74  O5S SGN d   4      23.413 -45.939  38.102  0.00  0.00    -0.572 OA
ATOM     75  H   SGN d   4      20.530 -45.006  30.520  0.00  0.00     0.210 HD
ATOM     76  H   SGN d   4      23.220 -46.934  33.233  0.00  0.00     0.090 H 
ATOM     77  H   SGN d   4      20.444 -49.046  34.026  0.00  0.00     0.131 H 
ATOM     78  H   SGN d   4      17.055 -47.383  31.637  0.00  0.00     0.231 HD
ATOM     79  H   SGN d   4      20.864 -45.065  33.372  0.00  0.00     0.091 H 
ATOM     80  H   SGN d   4      19.364 -48.001  30.675  0.00  0.00     0.140 HD
ATOM     81  H   SGN d   4      18.793 -49.256  34.060  0.00  0.00     0.231 HD
ATOM     82  H   SGN d   4      22.271 -45.002  35.356  0.00  0.00     0.080 H 
ATOM     83  H   SGN d   4      23.694 -44.793  34.356  0.00  0.00     0.080 H 
ATOM     84  H   SGN d   4      17.311 -49.418  30.309  0.00  0.00     0.231 HD
ATOM     85  H   SGN d   4      19.370 -47.082  33.081  0.00  0.00     0.076 H 
ATOM     86  H   SGN d   4      21.664 -46.929  31.139  0.00  0.00     0.089 H 
ATOM     87  H   SGN d   4      22.618 -48.382  32.319  0.00  0.00     0.212 HD
ATOM     88  C1  IDS d   3      22.340 -43.309  32.617  0.00  0.00     0.161 C 
ATOM     89  O61 IDS d   3      18.999 -41.648  31.117  0.00  0.00    -0.646 OA
ATOM     90  O3S IDS d   3      23.821 -39.941  34.863  0.00  0.00    -0.572 OA
ATOM     91  O3  IDS d   3      23.879 -43.488  30.041  0.00  0.00    -0.390 OA
ATOM     92  C5  IDS d   3      21.113 -42.655  30.682  0.00  0.00     0.152 C 
ATOM     93  O4  IDS d   3      22.009 -40.392  30.668  0.00  0.00    -0.348 OA
ATOM     94  S   IDS d   3      24.251 -41.126  34.049  0.00  0.00     0.252 S 
ATOM     95  C2  IDS d   3      23.548 -42.460  32.211  0.00  0.00     0.134 C 
ATOM     96  O2S IDS d   3      24.075 -42.359  34.884  0.00  0.00    -0.572 OA
ATOM     97  O5  IDS d   3      21.127 -42.724  32.116  0.00  0.00    -0.340 OA
ATOM     98  C6  IDS d   3      19.747 -42.122  30.242  0.00  0.00     0.206 C 
ATOM     99  C3  IDS d   3      23.577 -42.253  30.696  0.00  0.00     0.094 C 
ATOM    100  O2  IDS d   3      23.447 -41.192  32.868  0.00  0.00    -0.244 OA
ATOM    101  C4  IDS d   3      22.227 -41.726  30.200  0.00  0.00     0.103 C 
ATOM    102  O62 IDS d   3      19.456 -42.202  29.025  0.00  0.00    -0.646 OA
ATOM    103  O1S IDS d   3      25.692 -40.977  33.658  0.00  0.00    -0.572 OA
ATOM    104  H   IDS d   3      22.317 -43.334  33.686  0.00  0.00     0.133 H 
ATOM    105  H   IDS d   3      24.734 -43.821  30.356  0.00  0.00     0.210 HD
ATOM    106  H   IDS d   3      21.277 -43.625  30.259  0.00  0.00     0.104 H 
ATOM    107  H   IDS d   3      24.450 -42.961  32.498  0.00  0.00     0.097 H 
ATOM    108  H   IDS d   3      24.334 -41.532  30.465  0.00  0.00     0.091 H 
ATOM    109  H   IDS d   3      22.227 -41.705  29.130  0.00  0.00     0.092 H 
ENDROOT
TORSDOF 34
ENDMDL
MODEL 21
REMARK VINA RESULT:      -9.0      2.973      4.398
REMARK  0 active torsions:
REMARK  status: ('A' for Active; 'I' for Inactive)
REMARK       I    between atoms: C5_1  and  C6_10 
REMARK       I    between atoms: S2_2  and  O6_59 
REMARK       I    between atoms: O3_3  and  C3_61 
REMARK       I    between atoms: C5_5  and  C6_35 
REMARK       I    between atoms: C2_6  and  N_67 
REMARK       I    between atoms: C4_9  and  O4_55 
REMARK       I    between atoms: C1_11  and  O1_63 
REMARK       I    between atoms: C1_12  and  O4_30 
REMARK       I    between atoms: O1S_13  and  S1_24 
REMARK       I    between atoms: C3_14  and  O3_18 
REMARK       I    between atoms: C1_16  and  O4_29 
REMARK       I    between atoms: C2_19  and  O2_41 
REMARK       I    between atoms: C1_20  and  O4_38 
REMARK       I    between atoms: S2_21  and  O6_47 
REMARK       I    between atoms: O3_23  and  C3_58 
REMARK       I    between atoms: S1_24  and  N_33 
REMARK       I    between atoms: S1_24  and  O2S_37 
REMARK       I    between atoms: S1_24  and  O3S_34 
REMARK       I    between atoms: C4_25  and  O4_30 
REMARK       I    between atoms: C5_28  and  C6_56 
REMARK       I    between atoms: O4_29  and  C4_65 
REMARK       I    between atoms: S_31  and  O2_60 
REMARK       I    between atoms: C2_32  and  O2_60 
REMARK       I    between atoms: N_33  and  C2_46 
REMARK       I    between atoms: C6_35  and  O6_47 
REMARK       I    between atoms: C5_36  and  C6_40 
REMARK       I    between atoms: O4_38  and  C4_45 
REMARK       I    between atoms: C6_40  and  O6_59 
REMARK       I    between atoms: O2_41  and  S_54 
REMARK       I    between atoms: O1S_42  and  S1_53 
REMARK       I    between atoms: O3_43  and  C3_44 
REMARK       I    between atoms: O3S_50  and  S1_53 
REMARK       I    between atoms: O2S_52  and  S1_53 
REMARK       I    between atoms: S1_53  and  N_67 
ROOT
ATOM      1  C5  IDS d   1      24.341 -34.667  31.588  0.00  0.00     0.152 C 
ATOM      2  O2S IDS d   1      19.784 -32.469  33.473  0.00  0.00    -0.572 OA
ATOM      3  C4  IDS d   1      23.799 -33.890  32.792  0.00  0.00     0.097 C 
ATOM      4  C6  IDS d   1      25.594 -33.973  31.042  0.00  0.00     0.206 C 
ATOM      5  C2  IDS d   1      21.501 -34.616  32.114  0.00  0.00     0.134 C 
ATOM      6  C1  IDS d   1      22.147 -35.381  30.954  0.00  0.00     0.161 C 
ATOM      7  O61 IDS d   1      25.679 -33.797  29.806  0.00  0.00    -0.646 OA
ATOM      8  O3S IDS d   1      18.915 -34.144  31.919  0.00  0.00    -0.572 OA
ATOM      9  O2  IDS d   1      21.145 -33.300  31.673  0.00  0.00    -0.244 OA
ATOM     10  O3  IDS d   1      22.702 -35.783  33.865  0.00  0.00    -0.390 OA
ATOM     11  C3  IDS d   1      22.481 -34.495  33.282  0.00  0.00     0.094 C 
ATOM     12  O62 IDS d   1      26.483 -33.638  31.851  0.00  0.00    -0.646 OA
ATOM     13  S   IDS d   1      19.810 -32.949  32.053  0.00  0.00     0.252 S 
ATOM     14  O4  IDS d   1      23.610 -32.513  32.450  0.00  0.00    -0.390 OA
ATOM     15  O5  IDS d   1      23.360 -34.729  30.539  0.00  0.00    -0.340 OA
ATOM     16  O1S IDS d   1      19.312 -31.858  31.152  0.00  0.00    -0.572 OA
ATOM     17  H   IDS d   1      24.577 -35.658  31.912  0.00  0.00     0.104 H 
ATOM     18  H   IDS d   1      24.517 -33.958  33.582  0.00  0.00     0.091 H 
ATOM     19  H   IDS d   1      20.630 -35.148  32.436  0.00  0.00     0.097 H 
ATOM     20  H   IDS d   1      21.448 -35.390  30.144  0.00  0.00     0.133 H 
ATOM     21  H   IDS d   1      23.324 -35.702  34.605  0.00  0.00     0.210 HD
ATOM     22  H   IDS d   1      22.068 -33.850  34.030  0.00  0.00     0.091 H 
ATOM     23  H   IDS d   1      22.960 -32.445  31.734  0.00  0.00     0.210 HD
ATOM     24  S2  SGN d   2      20.114 -36.382  27.423  0.00  0.00     0.251 S 
ATOM     25  C2  SGN d   2      24.659 -39.288  29.745  0.00  0.00     0.081 C 
ATOM     26  O5S SGN d   2      20.838 -35.578  26.385  0.00  0.00    -0.572 OA
ATOM     27  O4S SGN d   2      19.459 -35.453  28.403  0.00  0.00    -0.572 OA
ATOM     28  C3  SGN d   2      24.197 -38.279  30.798  0.00  0.00     0.083 C 
ATOM     29  C1  SGN d   2      23.536 -40.267  29.395  0.00  0.00     0.150 C 
ATOM     30  O3  SGN d   2      25.225 -37.304  30.996  0.00  0.00    -0.391 OA
ATOM     31  C5  SGN d   2      21.859 -38.620  29.929  0.00  0.00     0.091 C 
ATOM     32  O4  SGN d   2      22.433 -36.706  31.315  0.00  0.00    -0.348 OA
ATOM     33  C6  SGN d   2      20.657 -37.896  29.317  0.00  0.00     0.067 C 
ATOM     34  O1S SGN d   2      27.289 -39.181  28.271  0.00  0.00    -0.296 OA
ATOM     35  C4  SGN d   2      22.927 -37.587  30.301  0.00  0.00     0.095 C 
ATOM     36  O6S SGN d   2      19.068 -37.225  26.756  0.00  0.00    -0.572 OA
ATOM     37  O3S SGN d   2      26.061 -41.297  28.022  0.00  0.00    -0.296 OA
ATOM     38  O2S SGN d   2      28.009 -41.164  29.501  0.00  0.00    -0.296 OA
ATOM     39  S1  SGN d   2      26.818 -40.419  28.975  0.00  0.00     0.156 S 
ATOM     40  O6  SGN d   2      21.043 -37.221  28.116  0.00  0.00    -0.254 OA
ATOM     41  N   SGN d   2      25.851 -40.006  30.222  0.00  0.00    -0.210 NA
ATOM     42  O5  SGN d   2      22.384 -39.531  28.949  0.00  0.00    -0.349 OA
ATOM     43  H   SGN d   2      24.916 -38.755  28.853  0.00  0.00     0.076 H 
ATOM     44  H   SGN d   2      23.997 -38.780  31.722  0.00  0.00     0.089 H 
ATOM     45  H   SGN d   2      23.884 -40.917  28.620  0.00  0.00     0.131 H 
ATOM     46  H   SGN d   2      25.406 -36.850  30.159  0.00  0.00     0.210 HD
ATOM     47  H   SGN d   2      21.570 -39.157  30.808  0.00  0.00     0.090 H 
ATOM     48  H   SGN d   2      20.280 -37.181  30.018  0.00  0.00     0.080 H 
ATOM     49  H   SGN d   2      19.899 -38.615  29.083  0.00  0.00     0.080 H 
ATOM     50  H   SGN d   2      27.863 -39.430  27.530  0.00  0.00     0.231 HD
ATOM     51  H   SGN d   2      23.162 -37.021  29.424  0.00  0.00     0.091 H 
ATOM     52  H   SGN d   2      26.637 -41.541  27.281  0.00  0.00     0.231 HD
ATOM     53  H   SGN d   2      28.587 -41.411  28.763  0.00  0.00     0.231 HD
ATOM     54  H   SGN d   2      25.558 -40.852  30.712  0.00  0.00     0.140 HD
ATOM     55  O3  SGN d   4      19.472 -44.756  32.610  0.00  0.00    -0.391 OA
ATOM     56  C5  SGN d   4      22.301 -46.743  34.089  0.00  0.00     0.091 C 
ATOM     57  C1  SGN d   4      20.249 -47.708  34.825  0.00  0.00     0.147 C 
ATOM     58  O1S SGN d   4      17.063 -45.431  35.544  0.00  0.00    -0.296 OA
ATOM     59  S2  SGN d   4      25.586 -47.169  35.881  0.00  0.00     0.251 S 
ATOM     60  S1  SGN d   4      17.078 -46.857  35.079  0.00  0.00     0.156 S 
ATOM     61  C4  SGN d   4      21.588 -45.537  33.471  0.00  0.00     0.095 C 
ATOM     62  O6S SGN d   4      26.525 -48.308  35.613  0.00  0.00    -0.572 OA
ATOM     63  O4  SGN d   4      22.329 -45.048  32.348  0.00  0.00    -0.348 OA
ATOM     64  N   SGN d   4      18.111 -47.003  33.826  0.00  0.00    -0.210 NA
ATOM     65  O3S SGN d   4      17.519 -47.748  36.202  0.00  0.00    -0.296 OA
ATOM     66  C6  SGN d   4      23.679 -46.299  34.579  0.00  0.00     0.067 C 
ATOM     67  O2S SGN d   4      15.701 -47.249  34.629  0.00  0.00    -0.296 OA
ATOM     68  C2  SGN d   4      19.449 -46.548  34.230  0.00  0.00     0.081 C 
ATOM     69  O6  SGN d   4      24.361 -47.399  35.182  0.00  0.00    -0.254 OA
ATOM     70  O4S SGN d   4      26.199 -45.885  35.405  0.00  0.00    -0.572 OA
ATOM     71  C3  SGN d   4      20.175 -45.927  33.034  0.00  0.00     0.083 C 
ATOM     72  O1  SGN d   4      20.385 -48.766  33.872  0.00  0.00    -0.369 OA
ATOM     73  O5  SGN d   4      21.546 -47.227  35.213  0.00  0.00    -0.350 OA
ATOM     74  O5S SGN d   4      25.320 -47.067  37.355  0.00  0.00    -0.572 OA
ATOM     75  H   SGN d   4      19.930 -44.360  31.852  0.00  0.00     0.210 HD
ATOM     76  H   SGN d   4      22.394 -47.518  33.358  0.00  0.00     0.090 H 
ATOM     77  H   SGN d   4      19.733 -48.094  35.678  0.00  0.00     0.131 H 
ATOM     78  H   SGN d   4      16.778 -44.856  34.817  0.00  0.00     0.231 HD
ATOM     79  H   SGN d   4      21.523 -44.764  34.207  0.00  0.00     0.091 H 
ATOM     80  H   SGN d   4      17.781 -46.435  33.046  0.00  0.00     0.140 HD
ATOM     81  H   SGN d   4      18.410 -47.491  36.489  0.00  0.00     0.231 HD
ATOM     82  H   SGN d   4      23.563 -45.516  35.299  0.00  0.00     0.080 H 
ATOM     83  H   SGN d   4      24.250 -45.946  33.746  0.00  0.00     0.080 H 
ATOM     84  H   SGN d   4      15.421 -46.671  33.902  0.00  0.00     0.231 HD
ATOM     85  H   SGN d   4      19.351 -45.796  34.985  0.00  0.00     0.076 H 
ATOM     86  H   SGN d   4      20.219 -46.628  32.225  0.00  0.00     0.089 H 
ATOM     87  H   SGN d   4      20.852 -48.437  33.088  0.00  0.00     0.212 HD
ATOM     88  C1  IDS d   3      23.061 -43.881  32.569  0.00  0.00     0.161 C 
ATOM     89  O61 IDS d   3      20.568 -40.728  32.464  0.00  0.00    -0.646 OA
ATOM     90  O3S IDS d   3      26.767 -41.791  33.268  0.00  0.00    -0.572 OA
ATOM     91  O3  IDS d   3      22.907 -44.600  29.655  0.00  0.00    -0.390 OA
ATOM     92  C5  IDS d   3      21.502 -42.591  31.312  0.00  0.00     0.152 C 
ATOM     93  O4  IDS d   3      23.187 -41.036  30.493  0.00  0.00    -0.348 OA
ATOM     94  S   IDS d   3      26.170 -42.980  32.574  0.00  0.00     0.252 S 
ATOM     95  C2  IDS d   3      24.159 -43.688  31.519  0.00  0.00     0.134 C 
ATOM     96  O2S IDS d   3      25.883 -44.032  33.603  0.00  0.00    -0.572 OA
ATOM     97  O5  IDS d   3      22.169 -42.755  32.573  0.00  0.00    -0.340 OA
ATOM     98  C6  IDS d   3      20.500 -41.442  31.447  0.00  0.00     0.206 C 
ATOM     99  C3  IDS d   3      23.548 -43.418  30.143  0.00  0.00     0.094 C 
ATOM    100  O2  IDS d   3      24.967 -42.573  31.913  0.00  0.00    -0.244 OA
ATOM    101  C4  IDS d   3      22.528 -42.277  30.223  0.00  0.00     0.103 C 
ATOM    102  O62 IDS d   3      19.662 -41.290  30.527  0.00  0.00    -0.646 OA
ATOM    103  O1S IDS d   3      27.135 -43.512  31.556  0.00  0.00    -0.572 OA
ATOM    104  H   IDS d   3      23.546 -43.964  33.520  0.00  0.00     0.133 H 
ATOM    105  H   IDS d   3      23.554 -45.321  29.605  0.00  0.00     0.210 HD
ATOM    106  H   IDS d   3      20.989 -43.490  31.041  0.00  0.00     0.104 H 
ATOM    107  H   IDS d   3      24.752 -44.577  31.454  0.00  0.00     0.097 H 
ATOM    108  H   IDS d   3      24.332 -43.133  29.473  0.00  0.00     0.091 H 
ATOM    109  H   IDS d   3      22.025 -42.187  29.283  0.00  0.00     0.092 H 
ENDROOT
TORSDOF 34
ENDMDL
MODEL 22
REMARK VINA RESULT:      -8.8      4.032      8.089
REMARK  0 active torsions:
REMARK  status: ('A' for Active; 'I' for Inactive)
REMARK       I    between atoms: C5_1  and  C6_10 
REMARK       I    between atoms: S2_2  and  O6_59 
REMARK       I    between atoms: O3_3  and  C3_61 
REMARK       I    between atoms: C5_5  and  C6_35 
REMARK       I    between atoms: C2_6  and  N_67 
REMARK       I    between atoms: C4_9  and  O4_55 
REMARK       I    between atoms: C1_11  and  O1_63 
REMARK       I    between atoms: C1_12  and  O4_30 
REMARK       I    between atoms: O1S_13  and  S1_24 
REMARK       I    between atoms: C3_14  and  O3_18 
REMARK       I    between atoms: C1_16  and  O4_29 
REMARK       I    between atoms: C2_19  and  O2_41 
REMARK       I    between atoms: C1_20  and  O4_38 
REMARK       I    between atoms: S2_21  and  O6_47 
REMARK       I    between atoms: O3_23  and  C3_58 
REMARK       I    between atoms: S1_24  and  N_33 
REMARK       I    between atoms: S1_24  and  O2S_37 
REMARK       I    between atoms: S1_24  and  O3S_34 
REMARK       I    between atoms: C4_25  and  O4_30 
REMARK       I    between atoms: C5_28  and  C6_56 
REMARK       I    between atoms: O4_29  and  C4_65 
REMARK       I    between atoms: S_31  and  O2_60 
REMARK       I    between atoms: C2_32  and  O2_60 
REMARK       I    between atoms: N_33  and  C2_46 
REMARK       I    between atoms: C6_35  and  O6_47 
REMARK       I    between atoms: C5_36  and  C6_40 
REMARK       I    between atoms: O4_38  and  C4_45 
REMARK       I    between atoms: C6_40  and  O6_59 
REMARK       I    between atoms: O2_41  and  S_54 
REMARK       I    between atoms: O1S_42  and  S1_53 
REMARK       I    between atoms: O3_43  and  C3_44 
REMARK       I    between atoms: O3S_50  and  S1_53 
REMARK       I    between atoms: O2S_52  and  S1_53 
REMARK       I    between atoms: S1_53  and  N_67 
ROOT
ATOM      1  C5  IDS d   1      22.843 -35.263  27.150  0.00  0.00     0.152 C 
ATOM      2  O2S IDS d   1      27.819 -33.550  28.353  0.00  0.00    -0.572 OA
ATOM      3  C4  IDS d   1      24.242 -35.138  26.540  0.00  0.00     0.097 C 
ATOM      4  C6  IDS d   1      21.807 -34.637  26.208  0.00  0.00     0.206 C 
ATOM      5  C2  IDS d   1      25.145 -34.958  28.868  0.00  0.00     0.134 C 
ATOM      6  C1  IDS d   1      23.707 -35.117  29.376  0.00  0.00     0.161 C 
ATOM      7  O61 IDS d   1      20.954 -33.865  26.701  0.00  0.00    -0.646 OA
ATOM      8  O3S IDS d   1      26.896 -33.977  30.576  0.00  0.00    -0.572 OA
ATOM      9  O2  IDS d   1      25.442 -33.566  28.715  0.00  0.00    -0.244 OA
ATOM     10  O3  IDS d   1      25.207 -37.066  27.675  0.00  0.00    -0.390 OA
ATOM     11  C3  IDS d   1      25.308 -35.648  27.512  0.00  0.00     0.094 C 
ATOM     12  O62 IDS d   1      21.845 -34.945  25.000  0.00  0.00    -0.646 OA
ATOM     13  S   IDS d   1      26.703 -33.218  29.298  0.00  0.00     0.252 S 
ATOM     14  O4  IDS d   1      24.510 -33.776  26.188  0.00  0.00    -0.390 OA
ATOM     15  O5  IDS d   1      22.777 -34.586  28.416  0.00  0.00    -0.340 OA
ATOM     16  O1S IDS d   1      26.722 -31.747  29.591  0.00  0.00    -0.572 OA
ATOM     17  H   IDS d   1      22.634 -36.302  27.291  0.00  0.00     0.104 H 
ATOM     18  H   IDS d   1      24.276 -35.739  25.656  0.00  0.00     0.091 H 
ATOM     19  H   IDS d   1      25.812 -35.405  29.575  0.00  0.00     0.097 H 
ATOM     20  H   IDS d   1      23.627 -34.573  30.294  0.00  0.00     0.133 H 
ATOM     21  H   IDS d   1      25.311 -37.500  26.813  0.00  0.00     0.210 HD
ATOM     22  H   IDS d   1      26.273 -35.420  27.110  0.00  0.00     0.091 H 
ATOM     23  H   IDS d   1      24.482 -33.226  26.986  0.00  0.00     0.210 HD
ATOM     24  S2  SGN d   2      22.409 -33.738  33.119  0.00  0.00     0.251 S 
ATOM     25  C2  SGN d   2      20.118 -38.221  30.095  0.00  0.00     0.081 C 
ATOM     26  O5S SGN d   2      21.427 -32.665  32.755  0.00  0.00    -0.572 OA
ATOM     27  O4S SGN d   2      23.774 -33.348  32.633  0.00  0.00    -0.572 OA
ATOM     28  C3  SGN d   2      21.423 -37.839  29.395  0.00  0.00     0.083 C 
ATOM     29  C1  SGN d   2      20.378 -38.645  31.543  0.00  0.00     0.150 C 
ATOM     30  O3  SGN d   2      21.124 -37.322  28.095  0.00  0.00    -0.391 OA
ATOM     31  C5  SGN d   2      22.327 -37.233  31.665  0.00  0.00     0.091 C 
ATOM     32  O4  SGN d   2      23.400 -36.463  29.623  0.00  0.00    -0.348 OA
ATOM     33  C6  SGN d   2      22.922 -36.085  32.486  0.00  0.00     0.067 C 
ATOM     34  O1S SGN d   2      17.355 -37.863  28.939  0.00  0.00    -0.296 OA
ATOM     35  C4  SGN d   2      22.135 -36.765  30.220  0.00  0.00     0.095 C 
ATOM     36  O6S SGN d   2      22.436 -33.898  34.611  0.00  0.00    -0.572 OA
ATOM     37  O3S SGN d   2      17.447 -39.268  30.955  0.00  0.00    -0.296 OA
ATOM     38  O2S SGN d   2      17.169 -40.291  28.747  0.00  0.00    -0.296 OA
ATOM     39  S1  SGN d   2      17.821 -39.172  29.505  0.00  0.00     0.156 S 
ATOM     40  O6  SGN d   2      22.023 -34.971  32.507  0.00  0.00    -0.254 OA
ATOM     41  N   SGN d   2      19.439 -39.292  29.350  0.00  0.00    -0.210 NA
ATOM     42  O5  SGN d   2      21.055 -37.583  32.237  0.00  0.00    -0.349 OA
ATOM     43  H   SGN d   2      19.479 -37.363  30.117  0.00  0.00     0.076 H 
ATOM     44  H   SGN d   2      22.054 -38.698  29.302  0.00  0.00     0.089 H 
ATOM     45  H   SGN d   2      19.436 -38.851  32.008  0.00  0.00     0.131 H 
ATOM     46  H   SGN d   2      20.553 -36.543  28.180  0.00  0.00     0.210 HD
ATOM     47  H   SGN d   2      22.977 -38.082  31.676  0.00  0.00     0.090 H 
ATOM     48  H   SGN d   2      23.849 -35.782  32.048  0.00  0.00     0.080 H 
ATOM     49  H   SGN d   2      23.083 -36.421  33.489  0.00  0.00     0.080 H 
ATOM     50  H   SGN d   2      16.392 -37.794  29.034  0.00  0.00     0.231 HD
ATOM     51  H   SGN d   2      21.530 -35.882  30.232  0.00  0.00     0.091 H 
ATOM     52  H   SGN d   2      16.484 -39.195  31.046  0.00  0.00     0.231 HD
ATOM     53  H   SGN d   2      16.205 -40.223  28.837  0.00  0.00     0.231 HD
ATOM     54  H   SGN d   2      19.743 -40.197  29.711  0.00  0.00     0.140 HD
ATOM     55  O3  SGN d   4      24.116 -43.291  34.926  0.00  0.00    -0.391 OA
ATOM     56  C5  SGN d   4      22.665 -46.248  33.112  0.00  0.00     0.091 C 
ATOM     57  C1  SGN d   4      24.299 -47.048  34.652  0.00  0.00     0.147 C 
ATOM     58  O1S SGN d   4      27.571 -44.922  35.446  0.00  0.00    -0.296 OA
ATOM     59  S2  SGN d   4      21.540 -48.151  30.062  0.00  0.00     0.251 S 
ATOM     60  S1  SGN d   4      26.857 -45.873  36.361  0.00  0.00     0.156 S 
ATOM     61  C4  SGN d   4      23.054 -44.788  33.357  0.00  0.00     0.095 C 
ATOM     62  O6S SGN d   4      20.411 -49.139  30.082  0.00  0.00    -0.572 OA
ATOM     63  O4  SGN d   4      21.917 -43.937  33.175  0.00  0.00    -0.348 OA
ATOM     64  N   SGN d   4      25.261 -45.540  36.344  0.00  0.00    -0.210 NA
ATOM     65  O3S SGN d   4      27.082 -47.282  35.897  0.00  0.00    -0.296 OA
ATOM     66  C6  SGN d   4      22.183 -46.391  31.669  0.00  0.00     0.067 C 
ATOM     67  O2S SGN d   4      27.379 -45.708  37.758  0.00  0.00    -0.296 OA
ATOM     68  C2  SGN d   4      24.751 -45.621  34.968  0.00  0.00     0.081 C 
ATOM     69  O6  SGN d   4      21.833 -47.750  31.403  0.00  0.00    -0.254 OA
ATOM     70  O4S SGN d   4      21.146 -46.948  29.256  0.00  0.00    -0.572 OA
ATOM     71  C3  SGN d   4      23.610 -44.620  34.772  0.00  0.00     0.083 C 
ATOM     72  O1  SGN d   4      23.271 -47.461  35.556  0.00  0.00    -0.369 OA
ATOM     73  O5  SGN d   4      23.814 -47.092  33.301  0.00  0.00    -0.350 OA
ATOM     74  O5S SGN d   4      22.753 -48.780  29.443  0.00  0.00    -0.572 OA
ATOM     75  H   SGN d   4      23.395 -42.654  34.802  0.00  0.00     0.210 HD
ATOM     76  H   SGN d   4      21.893 -46.533  33.795  0.00  0.00     0.090 H 
ATOM     77  H   SGN d   4      25.128 -47.715  34.764  0.00  0.00     0.131 H 
ATOM     78  H   SGN d   4      27.424 -44.011  35.747  0.00  0.00     0.231 HD
ATOM     79  H   SGN d   4      23.810 -44.512  32.652  0.00  0.00     0.091 H 
ATOM     80  H   SGN d   4      25.107 -44.600  36.708  0.00  0.00     0.140 HD
ATOM     81  H   SGN d   4      26.743 -47.383  34.994  0.00  0.00     0.231 HD
ATOM     82  H   SGN d   4      22.965 -46.089  31.003  0.00  0.00     0.080 H 
ATOM     83  H   SGN d   4      21.323 -45.772  31.523  0.00  0.00     0.080 H 
ATOM     84  H   SGN d   4      27.231 -44.795  38.053  0.00  0.00     0.231 HD
ATOM     85  H   SGN d   4      25.536 -45.367  34.287  0.00  0.00     0.076 H 
ATOM     86  H   SGN d   4      22.839 -44.794  35.494  0.00  0.00     0.089 H 
ATOM     87  H   SGN d   4      22.508 -46.868  35.470  0.00  0.00     0.212 HD
ATOM     88  C1  IDS d   3      21.886 -43.216  31.981  0.00  0.00     0.161 C 
ATOM     89  O61 IDS d   3      24.362 -40.063  32.287  0.00  0.00    -0.646 OA
ATOM     90  O3S IDS d   3      20.412 -42.533  27.988  0.00  0.00    -0.572 OA
ATOM     91  O3  IDS d   3      19.809 -42.275  33.938  0.00  0.00    -0.390 OA
ATOM     92  C5  IDS d   3      22.438 -41.195  33.115  0.00  0.00     0.152 C 
ATOM     93  O4  IDS d   3      21.155 -39.790  31.595  0.00  0.00    -0.348 OA
ATOM     94  S   IDS d   3      20.022 -43.052  29.341  0.00  0.00     0.252 S 
ATOM     95  C2  IDS d   3      20.477 -42.717  31.650  0.00  0.00     0.134 C 
ATOM     96  O2S IDS d   3      20.634 -44.409  29.518  0.00  0.00    -0.572 OA
ATOM     97  O5  IDS d   3      22.800 -42.111  32.070  0.00  0.00    -0.340 OA
ATOM     98  C6  IDS d   3      23.521 -40.117  33.203  0.00  0.00     0.206 C 
ATOM     99  C3  IDS d   3      20.027 -41.663  32.664  0.00  0.00     0.094 C 
ATOM    100  O2  IDS d   3      20.499 -42.144  30.338  0.00  0.00    -0.244 OA
ATOM    101  C4  IDS d   3      21.082 -40.561  32.797  0.00  0.00     0.103 C 
ATOM    102  O62 IDS d   3      23.504 -39.356  34.199  0.00  0.00    -0.646 OA
ATOM    103  O1S IDS d   3      18.528 -43.150  29.436  0.00  0.00    -0.572 OA
ATOM    104  H   IDS d   3      22.183 -43.869  31.186  0.00  0.00     0.133 H 
ATOM    105  H   IDS d   3      19.140 -42.972  33.852  0.00  0.00     0.210 HD
ATOM    106  H   IDS d   3      22.358 -41.707  34.051  0.00  0.00     0.104 H 
ATOM    107  H   IDS d   3      19.789 -43.536  31.691  0.00  0.00     0.097 H 
ATOM    108  H   IDS d   3      19.114 -41.225  32.316  0.00  0.00     0.091 H 
ATOM    109  H   IDS d   3      20.808 -39.904  33.595  0.00  0.00     0.092 H 
ENDROOT
TORSDOF 34
ENDMDL
MODEL 23
REMARK VINA RESULT:      -8.7      4.341      8.475
REMARK  0 active torsions:
REMARK  status: ('A' for Active; 'I' for Inactive)
REMARK       I    between atoms: C5_1  and  C6_10 
REMARK       I    between atoms: S2_2  and  O6_59 
REMARK       I    between atoms: O3_3  and  C3_61 
REMARK       I    between atoms: C5_5  and  C6_35 
REMARK       I    between atoms: C2_6  and  N_67 
REMARK       I    between atoms: C4_9  and  O4_55 
REMARK       I    between atoms: C1_11  and  O1_63 
REMARK       I    between atoms: C1_12  and  O4_30 
REMARK       I    between atoms: O1S_13  and  S1_24 
REMARK       I    between atoms: C3_14  and  O3_18 
REMARK       I    between atoms: C1_16  and  O4_29 
REMARK       I    between atoms: C2_19  and  O2_41 
REMARK       I    between atoms: C1_20  and  O4_38 
REMARK       I    between atoms: S2_21  and  O6_47 
REMARK       I    between atoms: O3_23  and  C3_58 
REMARK       I    between atoms: S1_24  and  N_33 
REMARK       I    between atoms: S1_24  and  O2S_37 
REMARK       I    between atoms: S1_24  and  O3S_34 
REMARK       I    between atoms: C4_25  and  O4_30 
REMARK       I    between atoms: C5_28  and  C6_56 
REMARK       I    between atoms: O4_29  and  C4_65 
REMARK       I    between atoms: S_31  and  O2_60 
REMARK       I    between atoms: C2_32  and  O2_60 
REMARK       I    between atoms: N_33  and  C2_46 
REMARK       I    between atoms: C6_35  and  O6_47 
REMARK       I    between atoms: C5_36  and  C6_40 
REMARK       I    between atoms: O4_38  and  C4_45 
REMARK       I    between atoms: C6_40  and  O6_59 
REMARK       I    between atoms: O2_41  and  S_54 
REMARK       I    between atoms: O1S_42  and  S1_53 
REMARK       I    between atoms: O3_43  and  C3_44 
REMARK       I    between atoms: O3S_50  and  S1_53 
REMARK       I    between atoms: O2S_52  and  S1_53 
REMARK       I    between atoms: S1_53  and  N_67 
ROOT
ATOM      1  C5  IDS d   1      27.179 -44.346  36.686  0.00  0.00     0.152 C 
ATOM      2  O2S IDS d   1      27.524 -39.078  37.815  0.00  0.00    -0.572 OA
ATOM      3  C4  IDS d   1      26.985 -43.357  37.840  0.00  0.00     0.097 C 
ATOM      4  C6  IDS d   1      28.096 -45.491  37.131  0.00  0.00     0.206 C 
ATOM      5  C2  IDS d   1      26.800 -41.536  36.132  0.00  0.00     0.134 C 
ATOM      6  C1  IDS d   1      26.976 -42.609  35.052  0.00  0.00     0.161 C 
ATOM      7  O61 IDS d   1      29.027 -45.830  36.365  0.00  0.00    -0.646 OA
ATOM      8  O3S IDS d   1      27.214 -39.040  35.391  0.00  0.00    -0.572 OA
ATOM      9  O2  IDS d   1      28.081 -40.995  36.475  0.00  0.00    -0.244 OA
ATOM     10  O3  IDS d   1      24.815 -42.516  37.117  0.00  0.00    -0.390 OA
ATOM     11  C3  IDS d   1      26.170 -42.143  37.387  0.00  0.00     0.094 C 
ATOM     12  O62 IDS d   1      27.858 -46.049  38.220  0.00  0.00    -0.646 OA
ATOM     13  S   IDS d   1      28.069 -39.563  36.505  0.00  0.00     0.252 S 
ATOM     14  O4  IDS d   1      28.254 -42.933  38.348  0.00  0.00    -0.390 OA
ATOM     15  O5  IDS d   1      27.776 -43.695  35.552  0.00  0.00    -0.340 OA
ATOM     16  O1S IDS d   1      29.469 -39.055  36.332  0.00  0.00    -0.572 OA
ATOM     17  H   IDS d   1      26.218 -44.726  36.411  0.00  0.00     0.104 H 
ATOM     18  H   IDS d   1      26.447 -43.854  38.619  0.00  0.00     0.091 H 
ATOM     19  H   IDS d   1      26.161 -40.766  35.752  0.00  0.00     0.097 H 
ATOM     20  H   IDS d   1      27.469 -42.152  34.220  0.00  0.00     0.133 H 
ATOM     21  H   IDS d   1      24.420 -42.901  37.915  0.00  0.00     0.210 HD
ATOM     22  H   IDS d   1      26.173 -41.418  38.174  0.00  0.00     0.091 H 
ATOM     23  H   IDS d   1      28.748 -42.481  37.647  0.00  0.00     0.210 HD
ATOM     24  S2  SGN d   2      28.419 -41.801  31.196  0.00  0.00     0.251 S 
ATOM     25  C2  SGN d   2      24.830 -46.200  32.699  0.00  0.00     0.081 C 
ATOM     26  O5S SGN d   2      29.721 -42.542  31.168  0.00  0.00    -0.572 OA
ATOM     27  O4S SGN d   2      28.483 -40.723  32.239  0.00  0.00    -0.572 OA
ATOM     28  C3  SGN d   2      24.914 -45.267  33.909  0.00  0.00     0.083 C 
ATOM     29  C1  SGN d   2      24.272 -45.464  31.478  0.00  0.00     0.150 C 
ATOM     30  O3  SGN d   2      25.562 -45.952  34.984  0.00  0.00    -0.391 OA
ATOM     31  C5  SGN d   2      25.144 -43.364  32.278  0.00  0.00     0.091 C 
ATOM     32  O4  SGN d   2      25.738 -43.107  34.622  0.00  0.00    -0.348 OA
ATOM     33  C6  SGN d   2      26.058 -42.210  31.855  0.00  0.00     0.067 C 
ATOM     34  O1S SGN d   2      25.932 -49.005  32.587  0.00  0.00    -0.296 OA
ATOM     35  C4  SGN d   2      25.727 -44.029  33.528  0.00  0.00     0.095 C 
ATOM     36  O6S SGN d   2      28.172 -41.182  29.852  0.00  0.00    -0.572 OA
ATOM     37  O3S SGN d   2      24.435 -48.418  30.726  0.00  0.00    -0.296 OA
ATOM     38  O2S SGN d   2      23.642 -49.856  32.544  0.00  0.00    -0.296 OA
ATOM     39  S1  SGN d   2      24.518 -48.686  32.200  0.00  0.00     0.156 S 
ATOM     40  O6  SGN d   2      27.358 -42.705  31.516  0.00  0.00    -0.254 OA
ATOM     41  N   SGN d   2      24.006 -47.375  33.023  0.00  0.00    -0.210 NA
ATOM     42  O5  SGN d   2      25.090 -44.314  31.200  0.00  0.00    -0.349 OA
ATOM     43  H   SGN d   2      25.817 -46.532  32.456  0.00  0.00     0.076 H 
ATOM     44  H   SGN d   2      23.931 -44.973  34.213  0.00  0.00     0.089 H 
ATOM     45  H   SGN d   2      24.281 -46.136  30.646  0.00  0.00     0.131 H 
ATOM     46  H   SGN d   2      26.453 -46.218  34.708  0.00  0.00     0.210 HD
ATOM     47  H   SGN d   2      24.160 -43.005  32.497  0.00  0.00     0.090 H 
ATOM     48  H   SGN d   2      26.145 -41.514  32.662  0.00  0.00     0.080 H 
ATOM     49  H   SGN d   2      25.636 -41.727  30.998  0.00  0.00     0.080 H 
ATOM     50  H   SGN d   2      26.233 -49.786  32.095  0.00  0.00     0.231 HD
ATOM     51  H   SGN d   2      26.730 -44.329  33.308  0.00  0.00     0.091 H 
ATOM     52  H   SGN d   2      24.741 -49.199  30.238  0.00  0.00     0.231 HD
ATOM     53  H   SGN d   2      23.943 -50.639  32.056  0.00  0.00     0.231 HD
ATOM     54  H   SGN d   2      23.036 -47.182  32.775  0.00  0.00     0.140 HD
ATOM     55  O3  SGN d   4      18.655 -41.932  29.753  0.00  0.00    -0.391 OA
ATOM     56  C5  SGN d   4      16.262 -44.704  30.607  0.00  0.00     0.091 C 
ATOM     57  C1  SGN d   4      14.993 -42.827  29.867  0.00  0.00     0.147 C 
ATOM     58  O1S SGN d   4      16.187 -39.113  30.663  0.00  0.00    -0.296 OA
ATOM     59  S2  SGN d   4      14.878 -47.456  32.775  0.00  0.00     0.251 S 
ATOM     60  S1  SGN d   4      15.393 -39.582  29.479  0.00  0.00     0.156 S 
ATOM     61  C4  SGN d   4      17.563 -43.898  30.634  0.00  0.00     0.095 C 
ATOM     62  O6S SGN d   4      14.204 -48.677  32.220  0.00  0.00    -0.572 OA
ATOM     63  O4  SGN d   4      18.679 -44.751  30.362  0.00  0.00    -0.348 OA
ATOM     64  N   SGN d   4      16.114 -40.894  28.834  0.00  0.00    -0.210 NA
ATOM     65  O3S SGN d   4      14.001 -39.935  29.915  0.00  0.00    -0.296 OA
ATOM     66  C6  SGN d   4      16.327 -45.774  31.697  0.00  0.00     0.067 C 
ATOM     67  O2S SGN d   4      15.342 -38.491  28.449  0.00  0.00    -0.296 OA
ATOM     68  C2  SGN d   4      16.242 -41.944  29.854  0.00  0.00     0.081 C 
ATOM     69  O6  SGN d   4      15.116 -46.531  31.712  0.00  0.00    -0.254 OA
ATOM     70  O4S SGN d   4      16.185 -47.842  33.403  0.00  0.00    -0.572 OA
ATOM     71  C3  SGN d   4      17.505 -42.770  29.602  0.00  0.00     0.083 C 
ATOM     72  O1  SGN d   4      14.798 -43.440  28.590  0.00  0.00    -0.369 OA
ATOM     73  O5  SGN d   4      15.149 -43.836  30.878  0.00  0.00    -0.350 OA
ATOM     74  O5S SGN d   4      14.002 -46.822  33.815  0.00  0.00    -0.572 OA
ATOM     75  H   SGN d   4      19.458 -42.453  29.594  0.00  0.00     0.210 HD
ATOM     76  H   SGN d   4      16.140 -45.156  29.645  0.00  0.00     0.090 H 
ATOM     77  H   SGN d   4      14.135 -42.226  30.082  0.00  0.00     0.131 H 
ATOM     78  H   SGN d   4      17.086 -38.885  30.380  0.00  0.00     0.231 HD
ATOM     79  H   SGN d   4      17.681 -43.471  31.608  0.00  0.00     0.091 H 
ATOM     80  H   SGN d   4      17.040 -40.638  28.493  0.00  0.00     0.140 HD
ATOM     81  H   SGN d   4      14.040 -40.640  30.580  0.00  0.00     0.231 HD
ATOM     82  H   SGN d   4      16.462 -45.302  32.648  0.00  0.00     0.080 H 
ATOM     83  H   SGN d   4      17.148 -46.430  31.497  0.00  0.00     0.080 H 
ATOM     84  H   SGN d   4      16.244 -38.267  28.171  0.00  0.00     0.231 HD
ATOM     85  H   SGN d   4      16.330 -41.487  30.818  0.00  0.00     0.076 H 
ATOM     86  H   SGN d   4      17.488 -43.176  28.612  0.00  0.00     0.089 H 
ATOM     87  H   SGN d   4      15.567 -43.992  28.375  0.00  0.00     0.212 HD
ATOM     88  C1  IDS d   3      19.452 -45.106  31.468  0.00  0.00     0.161 C 
ATOM     89  O61 IDS d   3      21.865 -42.035  32.423  0.00  0.00    -0.646 OA
ATOM     90  O3S IDS d   3      20.709 -47.918  34.484  0.00  0.00    -0.572 OA
ATOM     91  O3  IDS d   3      20.768 -45.845  28.869  0.00  0.00    -0.390 OA
ATOM     92  C5  IDS d   3      21.204 -43.639  30.793  0.00  0.00     0.152 C 
ATOM     93  O4  IDS d   3      22.968 -45.052  31.698  0.00  0.00    -0.348 OA
ATOM     94  S   IDS d   3      20.227 -47.811  33.067  0.00  0.00     0.252 S 
ATOM     95  C2  IDS d   3      20.305 -46.349  31.194  0.00  0.00     0.134 C 
ATOM     96  O2S IDS d   3      18.752 -47.542  33.091  0.00  0.00    -0.572 OA
ATOM     97  O5  IDS d   3      20.287 -43.997  31.838  0.00  0.00    -0.340 OA
ATOM     98  C6  IDS d   3      21.970 -42.390  31.235  0.00  0.00     0.206 C 
ATOM     99  C3  IDS d   3      21.378 -46.045  30.147  0.00  0.00     0.094 C 
ATOM    100  O2  IDS d   3      20.929 -46.744  32.421  0.00  0.00    -0.244 OA
ATOM    101  C4  IDS d   3      22.172 -44.795  30.538  0.00  0.00     0.103 C 
ATOM    102  O62 IDS d   3      22.653 -41.791  30.371  0.00  0.00    -0.646 OA
ATOM    103  O1S IDS d   3      20.500 -49.094  32.339  0.00  0.00    -0.572 OA
ATOM    104  H   IDS d   3      18.792 -45.349  32.275  0.00  0.00     0.133 H 
ATOM    105  H   IDS d   3      20.266 -46.638  28.622  0.00  0.00     0.210 HD
ATOM    106  H   IDS d   3      20.675 -43.438  29.884  0.00  0.00     0.104 H 
ATOM    107  H   IDS d   3      19.683 -47.134  30.818  0.00  0.00     0.097 H 
ATOM    108  H   IDS d   3      22.049 -46.878  30.096  0.00  0.00     0.091 H 
ATOM    109  H   IDS d   3      22.831 -44.530  29.737  0.00  0.00     0.092 H 
ENDROOT
TORSDOF 34
ENDMDL
MODEL 24
REMARK VINA RESULT:      -8.7      4.380     11.236
REMARK  0 active torsions:
REMARK  status: ('A' for Active; 'I' for Inactive)
REMARK       I    between atoms: C5_1  and  C6_10 
REMARK       I    between atoms: S2_2  and  O6_59 
REMARK       I    between atoms: O3_3  and  C3_61 
REMARK       I    between atoms: C5_5  and  C6_35 
REMARK       I    between atoms: C2_6  and  N_67 
REMARK       I    between atoms: C4_9  and  O4_55 
REMARK       I    between atoms: C1_11  and  O1_63 
REMARK       I    between atoms: C1_12  and  O4_30 
REMARK       I    between atoms: O1S_13  and  S1_24 
REMARK       I    between atoms: C3_14  and  O3_18 
REMARK       I    between atoms: C1_16  and  O4_29 
REMARK       I    between atoms: C2_19  and  O2_41 
REMARK       I    between atoms: C1_20  and  O4_38 
REMARK       I    between atoms: S2_21  and  O6_47 
REMARK       I    between atoms: O3_23  and  C3_58 
REMARK       I    between atoms: S1_24  and  N_33 
REMARK       I    between atoms: S1_24  and  O2S_37 
REMARK       I    between atoms: S1_24  and  O3S_34 
REMARK       I    between atoms: C4_25  and  O4_30 
REMARK       I    between atoms: C5_28  and  C6_56 
REMARK       I    between atoms: O4_29  and  C4_65 
REMARK       I    between atoms: S_31  and  O2_60 
REMARK       I    between atoms: C2_32  and  O2_60 
REMARK       I    between atoms: N_33  and  C2_46 
REMARK       I    between atoms: C6_35  and  O6_47 
REMARK       I    between atoms: C5_36  and  C6_40 
REMARK       I    between atoms: O4_38  and  C4_45 
REMARK       I    between atoms: C6_40  and  O6_59 
REMARK       I    between atoms: O2_41  and  S_54 
REMARK       I    between atoms: O1S_42  and  S1_53 
REMARK       I    between atoms: O3_43  and  C3_44 
REMARK       I    between atoms: O3S_50  and  S1_53 
REMARK       I    between atoms: O2S_52  and  S1_53 
REMARK       I    between atoms: S1_53  and  N_67 
ROOT
ATOM      1  C5  IDS d   1      16.001 -42.435  30.165  0.00  0.00     0.152 C 
ATOM      2  O2S IDS d   1      16.064 -47.067  32.938  0.00  0.00    -0.572 OA
ATOM      3  C4  IDS d   1      15.364 -43.104  31.388  0.00  0.00     0.097 C 
ATOM      4  C6  IDS d   1      14.907 -41.872  29.252  0.00  0.00     0.206 C 
ATOM      5  C2  IDS d   1      17.282 -44.712  31.398  0.00  0.00     0.134 C 
ATOM      6  C1  IDS d   1      17.847 -43.957  30.190  0.00  0.00     0.161 C 
ATOM      7  O61 IDS d   1      14.989 -42.102  28.024  0.00  0.00    -0.646 OA
ATOM      8  O3S IDS d   1      18.242 -47.129  31.830  0.00  0.00    -0.572 OA
ATOM      9  O2  IDS d   1      16.462 -45.793  30.938  0.00  0.00    -0.244 OA
ATOM     10  O3  IDS d   1      17.263 -42.799  32.885  0.00  0.00    -0.390 OA
ATOM     11  C3  IDS d   1      16.428 -43.778  32.257  0.00  0.00     0.094 C 
ATOM     12  O62 IDS d   1      14.000 -41.188  29.768  0.00  0.00    -0.646 OA
ATOM     13  S   IDS d   1      16.763 -47.020  31.613  0.00  0.00     0.252 S 
ATOM     14  O4  IDS d   1      14.387 -44.064  30.975  0.00  0.00    -0.390 OA
ATOM     15  O5  IDS d   1      16.780 -43.382  29.416  0.00  0.00    -0.340 OA
ATOM     16  O1S IDS d   1      16.303 -48.172  30.769  0.00  0.00    -0.572 OA
ATOM     17  H   IDS d   1      16.637 -41.648  30.512  0.00  0.00     0.104 H 
ATOM     18  H   IDS d   1      14.883 -42.346  31.969  0.00  0.00     0.091 H 
ATOM     19  H   IDS d   1      18.095 -45.086  31.983  0.00  0.00     0.097 H 
ATOM     20  H   IDS d   1      18.387 -44.661  29.592  0.00  0.00     0.133 H 
ATOM     21  H   IDS d   1      16.717 -42.209  33.428  0.00  0.00     0.210 HD
ATOM     22  H   IDS d   1      15.935 -44.345  33.019  0.00  0.00     0.091 H 
ATOM     23  H   IDS d   1      14.816 -44.755  30.447  0.00  0.00     0.210 HD
ATOM     24  S2  SGN d   2      20.487 -45.670  27.415  0.00  0.00     0.251 S 
ATOM     25  C2  SGN d   2      20.097 -39.966  28.758  0.00  0.00     0.081 C 
ATOM     26  O5S SGN d   2      19.678 -45.683  26.153  0.00  0.00    -0.572 OA
ATOM     27  O4S SGN d   2      19.830 -46.552  28.436  0.00  0.00    -0.572 OA
ATOM     28  C3  SGN d   2      19.258 -40.720  29.792  0.00  0.00     0.083 C 
ATOM     29  C1  SGN d   2      21.559 -40.416  28.806  0.00  0.00     0.150 C 
ATOM     30  O3  SGN d   2      17.881 -40.372  29.624  0.00  0.00    -0.391 OA
ATOM     31  C5  SGN d   2      20.918 -42.602  29.592  0.00  0.00     0.091 C 
ATOM     32  O4  SGN d   2      18.727 -42.941  30.591  0.00  0.00    -0.348 OA
ATOM     33  C6  SGN d   2      21.058 -44.087  29.242  0.00  0.00     0.067 C 
ATOM     34  O1S SGN d   2      18.999 -38.105  26.654  0.00  0.00    -0.296 OA
ATOM     35  C4  SGN d   2      19.434 -42.224  29.575  0.00  0.00     0.095 C 
ATOM     36  O6S SGN d   2      21.866 -46.183  27.124  0.00  0.00    -0.572 OA
ATOM     37  O3S SGN d   2      21.439 -38.005  26.935  0.00  0.00    -0.296 OA
ATOM     38  O2S SGN d   2      20.017 -36.230  27.843  0.00  0.00    -0.296 OA
ATOM     39  S1  SGN d   2      20.115 -37.703  27.572  0.00  0.00     0.156 S 
ATOM     40  O6  SGN d   2      20.563 -44.335  27.923  0.00  0.00    -0.254 OA
ATOM     41  N   SGN d   2      19.987 -38.516  28.979  0.00  0.00    -0.210 NA
ATOM     42  O5  SGN d   2      21.627 -41.838  28.602  0.00  0.00    -0.349 OA
ATOM     43  H   SGN d   2      19.718 -40.192  27.783  0.00  0.00     0.076 H 
ATOM     44  H   SGN d   2      19.575 -40.459  30.780  0.00  0.00     0.089 H 
ATOM     45  H   SGN d   2      22.094 -39.904  28.034  0.00  0.00     0.131 H 
ATOM     46  H   SGN d   2      17.595 -40.608  28.728  0.00  0.00     0.210 HD
ATOM     47  H   SGN d   2      21.320 -42.403  30.563  0.00  0.00     0.090 H 
ATOM     48  H   SGN d   2      20.499 -44.669  29.945  0.00  0.00     0.080 H 
ATOM     49  H   SGN d   2      22.093 -44.358  29.283  0.00  0.00     0.080 H 
ATOM     50  H   SGN d   2      19.078 -37.619  25.817  0.00  0.00     0.231 HD
ATOM     51  H   SGN d   2      19.035 -42.483  28.616  0.00  0.00     0.091 H 
ATOM     52  H   SGN d   2      21.514 -37.522  26.097  0.00  0.00     0.231 HD
ATOM     53  H   SGN d   2      20.092 -35.742  27.008  0.00  0.00     0.231 HD
ATOM     54  H   SGN d   2      20.733 -38.216  29.608  0.00  0.00     0.140 HD
ATOM     55  O3  SGN d   4      26.655 -40.787  33.376  0.00  0.00    -0.391 OA
ATOM     56  C5  SGN d   4      26.554 -37.134  34.263  0.00  0.00     0.091 C 
ATOM     57  C1  SGN d   4      28.237 -38.175  35.591  0.00  0.00     0.147 C 
ATOM     58  O1S SGN d   4      27.794 -41.916  36.883  0.00  0.00    -0.296 OA
ATOM     59  S2  SGN d   4      24.851 -33.902  35.181  0.00  0.00     0.251 S 
ATOM     60  S1  SGN d   4      29.078 -41.205  36.569  0.00  0.00     0.156 S 
ATOM     61  C4  SGN d   4      26.045 -38.478  33.735  0.00  0.00     0.095 C 
ATOM     62  O6S SGN d   4      25.383 -32.555  34.792  0.00  0.00    -0.572 OA
ATOM     63  O4  SGN d   4      25.508 -38.320  32.418  0.00  0.00    -0.348 OA
ATOM     64  N   SGN d   4      28.951 -40.483  35.114  0.00  0.00    -0.210 NA
ATOM     65  O3S SGN d   4      29.351 -40.171  37.622  0.00  0.00    -0.296 OA
ATOM     66  C6  SGN d   4      25.378 -36.160  34.336  0.00  0.00     0.067 C 
ATOM     67  O2S SGN d   4      30.202 -42.199  36.529  0.00  0.00    -0.296 OA
ATOM     68  C2  SGN d   4      27.805 -39.563  35.113  0.00  0.00     0.081 C 
ATOM     69  O6  SGN d   4      25.817 -34.901  34.846  0.00  0.00    -0.254 OA
ATOM     70  O4S SGN d   4      23.574 -34.175  34.441  0.00  0.00    -0.572 OA
ATOM     71  C3  SGN d   4      27.182 -39.501  33.716  0.00  0.00     0.083 C 
ATOM     72  O1  SGN d   4      29.259 -37.647  34.742  0.00  0.00    -0.369 OA
ATOM     73  O5  SGN d   4      27.093 -37.306  35.585  0.00  0.00    -0.350 OA
ATOM     74  O5S SGN d   4      24.578 -33.932  36.656  0.00  0.00    -0.572 OA
ATOM     75  H   SGN d   4      26.259 -40.751  32.491  0.00  0.00     0.210 HD
ATOM     76  H   SGN d   4      27.313 -36.757  33.611  0.00  0.00     0.090 H 
ATOM     77  H   SGN d   4      28.632 -38.249  36.582  0.00  0.00     0.131 H 
ATOM     78  H   SGN d   4      27.619 -42.584  36.202  0.00  0.00     0.231 HD
ATOM     79  H   SGN d   4      25.272 -38.830  34.385  0.00  0.00     0.091 H 
ATOM     80  H   SGN d   4      28.816 -41.192  34.394  0.00  0.00     0.140 HD
ATOM     81  H   SGN d   4      28.622 -39.531  37.643  0.00  0.00     0.231 HD
ATOM     82  H   SGN d   4      24.626 -36.562  34.982  0.00  0.00     0.080 H 
ATOM     83  H   SGN d   4      24.976 -36.020  33.354  0.00  0.00     0.080 H 
ATOM     84  H   SGN d   4      30.021 -42.865  35.847  0.00  0.00     0.231 HD
ATOM     85  H   SGN d   4      27.062 -39.927  35.792  0.00  0.00     0.076 H 
ATOM     86  H   SGN d   4      27.922 -39.218  32.995  0.00  0.00     0.089 H 
ATOM     87  H   SGN d   4      28.920 -37.571  33.836  0.00  0.00     0.212 HD
ATOM     88  C1  IDS d   3      24.116 -38.316  32.329  0.00  0.00     0.161 C 
ATOM     89  O61 IDS d   3      22.774 -42.099  32.565  0.00  0.00    -0.646 OA
ATOM     90  O3S IDS d   3      20.343 -36.287  31.845  0.00  0.00    -0.572 OA
ATOM     91  O3  IDS d   3      25.433 -38.534  29.636  0.00  0.00    -0.390 OA
ATOM     92  C5  IDS d   3      24.107 -40.508  31.397  0.00  0.00     0.152 C 
ATOM     93  O4  IDS d   3      22.136 -40.103  30.025  0.00  0.00    -0.348 OA
ATOM     94  S   IDS d   3      21.789 -36.247  31.446  0.00  0.00     0.252 S 
ATOM     95  C2  IDS d   3      23.629 -37.691  31.018  0.00  0.00     0.134 C 
ATOM     96  O2S IDS d   3      22.585 -35.741  32.612  0.00  0.00    -0.572 OA
ATOM     97  O5  IDS d   3      23.629 -39.662  32.453  0.00  0.00    -0.340 OA
ATOM     98  C6  IDS d   3      23.627 -41.935  31.673  0.00  0.00     0.206 C 
ATOM     99  C3  IDS d   3      24.016 -38.569  29.826  0.00  0.00     0.094 C 
ATOM    100  O2  IDS d   3      22.204 -37.568  31.081  0.00  0.00    -0.244 OA
ATOM    101  C4  IDS d   3      23.564 -40.015  30.055  0.00  0.00     0.103 C 
ATOM    102  O62 IDS d   3      24.126 -42.860  30.990  0.00  0.00    -0.646 OA
ATOM    103  O1S IDS d   3      21.966 -35.332  30.270  0.00  0.00    -0.572 OA
ATOM    104  H   IDS d   3      23.731 -37.714  33.126  0.00  0.00     0.133 H 
ATOM    105  H   IDS d   3      25.717 -37.618  29.491  0.00  0.00     0.210 HD
ATOM    106  H   IDS d   3      25.176 -40.487  31.355  0.00  0.00     0.104 H 
ATOM    107  H   IDS d   3      24.084 -36.731  30.888  0.00  0.00     0.097 H 
ATOM    108  H   IDS d   3      23.528 -38.190  28.952  0.00  0.00     0.091 H 
ATOM    109  H   IDS d   3      23.949 -40.634  29.273  0.00  0.00     0.092 H 
ENDROOT
TORSDOF 34
ENDMDL
MODEL 25
REMARK VINA RESULT:      -8.6      4.559     12.412
REMARK  0 active torsions:
REMARK  status: ('A' for Active; 'I' for Inactive)
REMARK       I    between atoms: C5_1  and  C6_10 
REMARK       I    between atoms: S2_2  and  O6_59 
REMARK       I    between atoms: O3_3  and  C3_61 
REMARK       I    between atoms: C5_5  and  C6_35 
REMARK       I    between atoms: C2_6  and  N_67 
REMARK       I    between atoms: C4_9  and  O4_55 
REMARK       I    between atoms: C1_11  and  O1_63 
REMARK       I    between atoms: C1_12  and  O4_30 
REMARK       I    between atoms: O1S_13  and  S1_24 
REMARK       I    between atoms: C3_14  and  O3_18 
REMARK       I    between atoms: C1_16  and  O4_29 
REMARK       I    between atoms: C2_19  and  O2_41 
REMARK       I    between atoms: C1_20  and  O4_38 
REMARK       I    between atoms: S2_21  and  O6_47 
REMARK       I    between atoms: O3_23  and  C3_58 
REMARK       I    between atoms: S1_24  and  N_33 
REMARK       I    between atoms: S1_24  and  O2S_37 
REMARK       I    between atoms: S1_24  and  O3S_34 
REMARK       I    between atoms: C4_25  and  O4_30 
REMARK       I    between atoms: C5_28  and  C6_56 
REMARK       I    between atoms: O4_29  and  C4_65 
REMARK       I    between atoms: S_31  and  O2_60 
REMARK       I    between atoms: C2_32  and  O2_60 
REMARK       I    between atoms: N_33  and  C2_46 
REMARK       I    between atoms: C6_35  and  O6_47 
REMARK       I    between atoms: C5_36  and  C6_40 
REMARK       I    between atoms: O4_38  and  C4_45 
REMARK       I    between atoms: C6_40  and  O6_59 
REMARK       I    between atoms: O2_41  and  S_54 
REMARK       I    between atoms: O1S_42  and  S1_53 
REMARK       I    between atoms: O3_43  and  C3_44 
REMARK       I    between atoms: O3S_50  and  S1_53 
REMARK       I    between atoms: O2S_52  and  S1_53 
REMARK       I    between atoms: S1_53  and  N_67 
ROOT
ATOM      1  C5  IDS d   1      19.723 -48.791  28.680  0.00  0.00     0.152 C 
ATOM      2  O2S IDS d   1      14.655 -48.346  26.874  0.00  0.00    -0.572 OA
ATOM      3  C4  IDS d   1      18.912 -48.816  27.380  0.00  0.00     0.097 C 
ATOM      4  C6  IDS d   1      20.613 -50.037  28.760  0.00  0.00     0.206 C 
ATOM      5  C2  IDS d   1      17.081 -47.625  28.604  0.00  0.00     0.134 C 
ATOM      6  C1  IDS d   1      17.983 -47.631  29.843  0.00  0.00     0.161 C 
ATOM      7  O61 IDS d   1      20.634 -50.677  29.836  0.00  0.00    -0.646 OA
ATOM      8  O3S IDS d   1      14.516 -47.177  29.017  0.00  0.00    -0.572 OA
ATOM      9  O2  IDS d   1      16.247 -48.789  28.621  0.00  0.00    -0.244 OA
ATOM     10  O3  IDS d   1      18.626 -46.403  27.193  0.00  0.00    -0.390 OA
ATOM     11  C3  IDS d   1      17.928 -47.645  27.330  0.00  0.00     0.094 C 
ATOM     12  O62 IDS d   1      21.296 -50.340  27.762  0.00  0.00    -0.646 OA
ATOM     13  S   IDS d   1      14.877 -48.471  28.351  0.00  0.00     0.252 S 
ATOM     14  O4  IDS d   1      18.206 -50.055  27.259  0.00  0.00    -0.390 OA
ATOM     15  O5  IDS d   1      18.852 -48.777  29.823  0.00  0.00    -0.340 OA
ATOM     16  O1S IDS d   1      14.002 -49.563  28.893  0.00  0.00    -0.572 OA
ATOM     17  H   IDS d   1      20.323 -47.906  28.680  0.00  0.00     0.104 H 
ATOM     18  H   IDS d   1      19.593 -48.721  26.561  0.00  0.00     0.091 H 
ATOM     19  H   IDS d   1      16.483 -46.738  28.617  0.00  0.00     0.097 H 
ATOM     20  H   IDS d   1      17.350 -47.674  30.703  0.00  0.00     0.133 H 
ATOM     21  H   IDS d   1      19.162 -46.420  26.384  0.00  0.00     0.210 HD
ATOM     22  H   IDS d   1      17.290 -47.772  26.479  0.00  0.00     0.091 H 
ATOM     23  H   IDS d   1      17.587 -50.147  27.999  0.00  0.00     0.210 HD
ATOM     24  S2  SGN d   2      16.529 -47.359  33.768  0.00  0.00     0.251 S 
ATOM     25  C2  SGN d   2      21.825 -45.630  31.911  0.00  0.00     0.081 C 
ATOM     26  O5S SGN d   2      16.892 -48.692  34.350  0.00  0.00    -0.572 OA
ATOM     27  O4S SGN d   2      15.556 -47.556  32.643  0.00  0.00    -0.572 OA
ATOM     28  C3  SGN d   2      20.999 -45.938  30.660  0.00  0.00     0.083 C 
ATOM     29  C1  SGN d   2      21.173 -44.520  32.738  0.00  0.00     0.150 C 
ATOM     30  O3  SGN d   2      21.566 -47.067  29.990  0.00  0.00    -0.391 OA
ATOM     31  C5  SGN d   2      18.984 -45.134  31.937  0.00  0.00     0.091 C 
ATOM     32  O4  SGN d   2      18.759 -46.464  29.914  0.00  0.00    -0.348 OA
ATOM     33  C6  SGN d   2      17.600 -45.552  32.442  0.00  0.00     0.067 C 
ATOM     34  O1S SGN d   2      24.220 -47.209  32.845  0.00  0.00    -0.296 OA
ATOM     35  C4  SGN d   2      19.564 -46.262  31.079  0.00  0.00     0.095 C 
ATOM     36  O6S SGN d   2      15.898 -46.510  34.833  0.00  0.00    -0.572 OA
ATOM     37  O3S SGN d   2      23.911 -45.050  33.979  0.00  0.00    -0.296 OA
ATOM     38  O2S SGN d   2      25.642 -45.310  32.266  0.00  0.00    -0.296 OA
ATOM     39  S1  SGN d   2      24.260 -45.719  32.682  0.00  0.00     0.156 S 
ATOM     40  O6  SGN d   2      17.704 -46.715  33.269  0.00  0.00    -0.254 OA
ATOM     41  N   SGN d   2      23.198 -45.263  31.531  0.00  0.00    -0.210 NA
ATOM     42  O5  SGN d   2      19.829 -44.904  33.077  0.00  0.00    -0.349 OA
ATOM     43  H   SGN d   2      21.863 -46.510  32.519  0.00  0.00     0.076 H 
ATOM     44  H   SGN d   2      21.001 -45.094  30.003  0.00  0.00     0.089 H 
ATOM     45  H   SGN d   2      21.753 -44.375  33.625  0.00  0.00     0.131 H 
ATOM     46  H   SGN d   2      21.564 -47.832  30.586  0.00  0.00     0.210 HD
ATOM     47  H   SGN d   2      18.918 -44.243  31.347  0.00  0.00     0.090 H 
ATOM     48  H   SGN d   2      16.970 -45.769  31.605  0.00  0.00     0.080 H 
ATOM     49  H   SGN d   2      17.183 -44.752  33.017  0.00  0.00     0.080 H 
ATOM     50  H   SGN d   2      24.852 -47.476  33.530  0.00  0.00     0.231 HD
ATOM     51  H   SGN d   2      19.569 -47.157  31.665  0.00  0.00     0.091 H 
ATOM     52  H   SGN d   2      24.543 -45.322  34.663  0.00  0.00     0.231 HD
ATOM     53  H   SGN d   2      26.278 -45.579  32.948  0.00  0.00     0.231 HD
ATOM     54  H   SGN d   2      23.252 -44.252  31.408  0.00  0.00     0.140 HD
ATOM     55  O3  SGN d   4      19.142 -38.027  31.893  0.00  0.00    -0.391 OA
ATOM     56  C5  SGN d   4      22.507 -36.785  30.765  0.00  0.00     0.091 C 
ATOM     57  C1  SGN d   4      20.985 -34.952  30.721  0.00  0.00     0.147 C 
ATOM     58  O1S SGN d   4      17.159 -35.497  29.762  0.00  0.00    -0.296 OA
ATOM     59  S2  SGN d   4      25.685 -36.929  28.748  0.00  0.00     0.251 S 
ATOM     60  S1  SGN d   4      17.730 -34.453  30.677  0.00  0.00     0.156 S 
ATOM     61  C4  SGN d   4      21.388 -37.793  31.038  0.00  0.00     0.095 C 
ATOM     62  O6S SGN d   4      26.995 -36.388  29.242  0.00  0.00    -0.572 OA
ATOM     63  O4  SGN d   4      21.891 -38.894  31.802  0.00  0.00    -0.348 OA
ATOM     64  N   SGN d   4      18.750 -35.163  31.732  0.00  0.00    -0.210 NA
ATOM     65  O3S SGN d   4      18.473 -33.430  29.869  0.00  0.00    -0.296 OA
ATOM     66  C6  SGN d   4      23.601 -37.476  29.951  0.00  0.00     0.067 C 
ATOM     67  O2S SGN d   4      16.617 -33.792  31.436  0.00  0.00    -0.296 OA
ATOM     68  C2  SGN d   4      19.803 -35.881  31.000  0.00  0.00     0.081 C 
ATOM     69  O6  SGN d   4      24.652 -36.553  29.661  0.00  0.00    -0.254 OA
ATOM     70  O4S SGN d   4      25.756 -38.425  28.662  0.00  0.00    -0.572 OA
ATOM     71  C3  SGN d   4      20.241 -37.117  31.790  0.00  0.00     0.083 C 
ATOM     72  O1  SGN d   4      21.528 -34.448  31.944  0.00  0.00    -0.369 OA
ATOM     73  O5  SGN d   4      21.990 -35.683  30.000  0.00  0.00    -0.350 OA
ATOM     74  O5S SGN d   4      25.388 -36.373  27.386  0.00  0.00    -0.572 OA
ATOM     75  H   SGN d   4      19.417 -38.811  32.393  0.00  0.00     0.210 HD
ATOM     76  H   SGN d   4      22.900 -36.426  31.693  0.00  0.00     0.090 H 
ATOM     77  H   SGN d   4      20.651 -34.120  30.137  0.00  0.00     0.131 H 
ATOM     78  H   SGN d   4      16.679 -36.158  30.286  0.00  0.00     0.231 HD
ATOM     79  H   SGN d   4      21.022 -38.159  30.102  0.00  0.00     0.091 H 
ATOM     80  H   SGN d   4      18.232 -35.821  32.313  0.00  0.00     0.140 HD
ATOM     81  H   SGN d   4      19.191 -33.862  29.381  0.00  0.00     0.231 HD
ATOM     82  H   SGN d   4      23.184 -37.838  29.034  0.00  0.00     0.080 H 
ATOM     83  H   SGN d   4      23.998 -38.293  30.518  0.00  0.00     0.080 H 
ATOM     84  H   SGN d   4      16.140 -34.458  31.956  0.00  0.00     0.231 HD
ATOM     85  H   SGN d   4      19.414 -36.210  30.059  0.00  0.00     0.076 H 
ATOM     86  H   SGN d   4      20.561 -36.832  32.772  0.00  0.00     0.089 H 
ATOM     87  H   SGN d   4      21.838 -35.188  32.489  0.00  0.00     0.212 HD
ATOM     88  C1  IDS d   3      22.111 -40.074  31.090  0.00  0.00     0.161 C 
ATOM     89  O61 IDS d   3      18.591 -41.924  30.495  0.00  0.00    -0.646 OA
ATOM     90  O3S IDS d   3      24.709 -42.929  29.171  0.00  0.00    -0.572 OA
ATOM     91  O3  IDS d   3      22.273 -40.486  34.063  0.00  0.00    -0.390 OA
ATOM     92  C5  IDS d   3      20.184 -41.089  32.055  0.00  0.00     0.152 C 
ATOM     93  O4  IDS d   3      21.141 -43.328  32.033  0.00  0.00    -0.348 OA
ATOM     94  S   IDS d   3      24.626 -41.955  30.309  0.00  0.00     0.252 S 
ATOM     95  C2  IDS d   3      23.057 -41.022  31.833  0.00  0.00     0.134 C 
ATOM     96  O2S IDS d   3      24.761 -40.569  29.753  0.00  0.00    -0.572 OA
ATOM     97  O5  IDS d   3      20.851 -40.718  30.839  0.00  0.00    -0.340 OA
ATOM     98  C6  IDS d   3      18.813 -41.666  31.692  0.00  0.00     0.206 C 
ATOM     99  C3  IDS d   3      22.400 -41.546  33.111  0.00  0.00     0.094 C 
ATOM    100  O2  IDS d   3      23.365 -42.120  30.966  0.00  0.00    -0.244 OA
ATOM    101  C4  IDS d   3      21.017 -42.130  32.804  0.00  0.00     0.103 C 
ATOM    102  O62 IDS d   3      17.990 -41.838  32.621  0.00  0.00    -0.646 OA
ATOM    103  O1S IDS d   3      25.731 -42.223  31.288  0.00  0.00    -0.572 OA
ATOM    104  H   IDS d   3      22.582 -39.823  30.162  0.00  0.00     0.133 H 
ATOM    105  H   IDS d   3      23.149 -40.118  34.256  0.00  0.00     0.210 HD
ATOM    106  H   IDS d   3      20.062 -40.236  32.690  0.00  0.00     0.104 H 
ATOM    107  H   IDS d   3      23.948 -40.497  32.105  0.00  0.00     0.097 H 
ATOM    108  H   IDS d   3      23.018 -42.320  33.518  0.00  0.00     0.091 H 
ATOM    109  H   IDS d   3      20.526 -42.377  33.722  0.00  0.00     0.092 H 
ENDROOT
TORSDOF 34
ENDMDL
MODEL 26
REMARK VINA RESULT:      -8.6      5.258      7.551
REMARK  0 active torsions:
REMARK  status: ('A' for Active; 'I' for Inactive)
REMARK       I    between atoms: C5_1  and  C6_10 
REMARK       I    between atoms: S2_2  and  O6_59 
REMARK       I    between atoms: O3_3  and  C3_61 
REMARK       I    between atoms: C5_5  and  C6_35 
REMARK       I    between atoms: C2_6  and  N_67 
REMARK       I    between atoms: C4_9  and  O4_55 
REMARK       I    between atoms: C1_11  and  O1_63 
REMARK       I    between atoms: C1_12  and  O4_30 
REMARK       I    between atoms: O1S_13  and  S1_24 
REMARK       I    between atoms: C3_14  and  O3_18 
REMARK       I    between atoms: C1_16  and  O4_29 
REMARK       I    between atoms: C2_19  and  O2_41 
REMARK       I    between atoms: C1_20  and  O4_38 
REMARK       I    between atoms: S2_21  and  O6_47 
REMARK       I    between atoms: O3_23  and  C3_58 
REMARK       I    between atoms: S1_24  and  N_33 
REMARK       I    between atoms: S1_24  and  O2S_37 
REMARK       I    between atoms: S1_24  and  O3S_34 
REMARK       I    between atoms: C4_25  and  O4_30 
REMARK       I    between atoms: C5_28  and  C6_56 
REMARK       I    between atoms: O4_29  and  C4_65 
REMARK       I    between atoms: S_31  and  O2_60 
REMARK       I    between atoms: C2_32  and  O2_60 
REMARK       I    between atoms: N_33  and  C2_46 
REMARK       I    between atoms: C6_35  and  O6_47 
REMARK       I    between atoms: C5_36  and  C6_40 
REMARK       I    between atoms: O4_38  and  C4_45 
REMARK       I    between atoms: C6_40  and  O6_59 
REMARK       I    between atoms: O2_41  and  S_54 
REMARK       I    between atoms: O1S_42  and  S1_53 
REMARK       I    between atoms: O3_43  and  C3_44 
REMARK       I    between atoms: O3S_50  and  S1_53 
REMARK       I    between atoms: O2S_52  and  S1_53 
REMARK       I    between atoms: S1_53  and  N_67 
ROOT
ATOM      1  C5  IDS d   1      20.159 -40.978  30.331  0.00  0.00     0.152 C 
ATOM      2  O2S IDS d   1      14.842 -40.072  30.573  0.00  0.00    -0.572 OA
ATOM      3  C4  IDS d   1      19.146 -39.929  30.803  0.00  0.00     0.097 C 
ATOM      4  C6  IDS d   1      21.211 -40.318  29.433  0.00  0.00     0.206 C 
ATOM      5  C2  IDS d   1      17.410 -41.732  30.800  0.00  0.00     0.134 C 
ATOM      6  C1  IDS d   1      18.505 -42.707  30.353  0.00  0.00     0.161 C 
ATOM      7  O61 IDS d   1      21.504 -40.885  28.356  0.00  0.00    -0.646 OA
ATOM      8  O3S IDS d   1      14.918 -42.511  30.434  0.00  0.00    -0.572 OA
ATOM      9  O2  IDS d   1      16.757 -41.192  29.645  0.00  0.00    -0.244 OA
ATOM     10  O3  IDS d   1      18.507 -41.073  32.857  0.00  0.00    -0.390 OA
ATOM     11  C3  IDS d   1      18.018 -40.582  31.604  0.00  0.00     0.094 C 
ATOM     12  O62 IDS d   1      21.746 -39.262  29.827  0.00  0.00    -0.646 OA
ATOM     13  S   IDS d   1      15.331 -41.236  29.764  0.00  0.00     0.252 S 
ATOM     14  O4  IDS d   1      18.606 -39.222  29.682  0.00  0.00    -0.390 OA
ATOM     15  O5  IDS d   1      19.505 -42.017  29.583  0.00  0.00    -0.340 OA
ATOM     16  O1S IDS d   1      14.720 -41.179  28.395  0.00  0.00    -0.572 OA
ATOM     17  H   IDS d   1      20.623 -41.402  31.196  0.00  0.00     0.104 H 
ATOM     18  H   IDS d   1      19.656 -39.236  31.439  0.00  0.00     0.091 H 
ATOM     19  H   IDS d   1      16.707 -42.259  31.411  0.00  0.00     0.097 H 
ATOM     20  H   IDS d   1      18.041 -43.458  29.749  0.00  0.00     0.133 H 
ATOM     21  H   IDS d   1      18.891 -40.341  33.364  0.00  0.00     0.210 HD
ATOM     22  H   IDS d   1      17.267 -39.845  31.797  0.00  0.00     0.091 H 
ATOM     23  H   IDS d   1      18.142 -39.845  29.101  0.00  0.00     0.210 HD
ATOM     24  S2  SGN d   2      17.727 -46.275  28.288  0.00  0.00     0.251 S 
ATOM     25  C2  SGN d   2      22.337 -45.225  31.771  0.00  0.00     0.081 C 
ATOM     26  O5S SGN d   2      18.364 -46.031  26.952  0.00  0.00    -0.572 OA
ATOM     27  O4S SGN d   2      16.610 -45.294  28.492  0.00  0.00    -0.572 OA
ATOM     28  C3  SGN d   2      21.357 -44.068  31.977  0.00  0.00     0.083 C 
ATOM     29  C1  SGN d   2      21.692 -46.561  32.146  0.00  0.00     0.150 C 
ATOM     30  O3  SGN d   2      21.948 -42.860  31.490  0.00  0.00    -0.391 OA
ATOM     31  C5  SGN d   2      19.502 -45.724  31.586  0.00  0.00     0.091 C 
ATOM     32  O4  SGN d   2      19.114 -43.328  31.453  0.00  0.00    -0.348 OA
ATOM     33  C6  SGN d   2      18.296 -46.034  30.693  0.00  0.00     0.067 C 
ATOM     34  O1S SGN d   2      25.049 -44.995  30.471  0.00  0.00    -0.296 OA
ATOM     35  C4  SGN d   2      20.074 -44.358  31.197  0.00  0.00     0.095 C 
ATOM     36  O6S SGN d   2      17.180 -47.671  28.327  0.00  0.00    -0.572 OA
ATOM     37  O3S SGN d   2      24.650 -47.122  31.638  0.00  0.00    -0.296 OA
ATOM     38  O2S SGN d   2      26.078 -45.407  32.648  0.00  0.00    -0.296 OA
ATOM     39  S1  SGN d   2      24.857 -45.646  31.809  0.00  0.00     0.156 S 
ATOM     40  O6  SGN d   2      18.699 -46.107  29.322  0.00  0.00    -0.254 OA
ATOM     41  N   SGN d   2      23.561 -44.995  32.554  0.00  0.00    -0.210 NA
ATOM     42  O5  SGN d   2      20.492 -46.745  31.374  0.00  0.00    -0.349 OA
ATOM     43  H   SGN d   2      22.599 -45.268  30.735  0.00  0.00     0.076 H 
ATOM     44  H   SGN d   2      21.130 -43.961  33.017  0.00  0.00     0.089 H 
ATOM     45  H   SGN d   2      22.392 -47.343  31.936  0.00  0.00     0.131 H 
ATOM     46  H   SGN d   2      22.154 -42.957  30.547  0.00  0.00     0.210 HD
ATOM     47  H   SGN d   2      19.215 -45.704  32.616  0.00  0.00     0.090 H 
ATOM     48  H   SGN d   2      17.567 -45.259  30.806  0.00  0.00     0.080 H 
ATOM     49  H   SGN d   2      17.880 -46.975  30.984  0.00  0.00     0.080 H 
ATOM     50  H   SGN d   2      25.821 -45.384  30.031  0.00  0.00     0.231 HD
ATOM     51  H   SGN d   2      20.301 -44.377  30.152  0.00  0.00     0.091 H 
ATOM     52  H   SGN d   2      25.422 -47.507  31.194  0.00  0.00     0.231 HD
ATOM     53  H   SGN d   2      26.853 -45.792  32.208  0.00  0.00     0.231 HD
ATOM     54  H   SGN d   2      23.454 -45.424  33.474  0.00  0.00     0.140 HD
ATOM     55  O3  SGN d   4      18.680 -49.447  37.586  0.00  0.00    -0.391 OA
ATOM     56  C5  SGN d   4      21.599 -48.900  39.892  0.00  0.00     0.091 C 
ATOM     57  C1  SGN d   4      19.856 -49.951  41.134  0.00  0.00     0.147 C 
ATOM     58  O1S SGN d   4      16.032 -49.140  40.373  0.00  0.00    -0.296 OA
ATOM     59  S2  SGN d   4      24.370 -46.882  41.453  0.00  0.00     0.251 S 
ATOM     60  S1  SGN d   4      16.606 -50.423  40.901  0.00  0.00     0.156 S 
ATOM     61  C4  SGN d   4      20.692 -48.680  38.680  0.00  0.00     0.095 C 
ATOM     62  O6S SGN d   4      25.659 -47.486  41.926  0.00  0.00    -0.572 OA
ATOM     63  O4  SGN d   4      21.464 -48.702  37.475  0.00  0.00    -0.348 OA
ATOM     64  N   SGN d   4      17.879 -50.861  39.982  0.00  0.00    -0.210 NA
ATOM     65  O3S SGN d   4      17.051 -50.228  42.320  0.00  0.00    -0.296 OA
ATOM     66  C6  SGN d   4      22.619 -47.764  39.954  0.00  0.00     0.067 C 
ATOM     67  O2S SGN d   4      15.561 -51.499  40.838  0.00  0.00    -0.296 OA
ATOM     68  C2  SGN d   4      18.878 -49.782  39.970  0.00  0.00     0.081 C 
ATOM     69  O6  SGN d   4      23.468 -47.930  41.090  0.00  0.00    -0.254 OA
ATOM     70  O4S SGN d   4      24.628 -46.009  40.260  0.00  0.00    -0.572 OA
ATOM     71  C3  SGN d   4      19.610 -49.760  38.627  0.00  0.00     0.083 C 
ATOM     72  O1  SGN d   4      20.529 -51.210  41.047  0.00  0.00    -0.369 OA
ATOM     73  O5  SGN d   4      20.811 -48.878  41.096  0.00  0.00    -0.350 OA
ATOM     74  O5S SGN d   4      23.769 -46.049  42.548  0.00  0.00    -0.572 OA
ATOM     75  H   SGN d   4      19.141 -49.432  36.733  0.00  0.00     0.210 HD
ATOM     76  H   SGN d   4      22.093 -49.844  39.804  0.00  0.00     0.090 H 
ATOM     77  H   SGN d   4      19.316 -49.925  42.057  0.00  0.00     0.131 H 
ATOM     78  H   SGN d   4      15.745 -49.267  39.455  0.00  0.00     0.231 HD
ATOM     79  H   SGN d   4      20.222 -47.723  38.773  0.00  0.00     0.091 H 
ATOM     80  H   SGN d   4      17.564 -51.041  39.029  0.00  0.00     0.140 HD
ATOM     81  H   SGN d   4      17.726 -49.533  42.354  0.00  0.00     0.231 HD
ATOM     82  H   SGN d   4      22.104 -46.829  40.030  0.00  0.00     0.080 H 
ATOM     83  H   SGN d   4      23.215 -47.779  39.065  0.00  0.00     0.080 H 
ATOM     84  H   SGN d   4      15.276 -51.621  39.918  0.00  0.00     0.231 HD
ATOM     85  H   SGN d   4      18.381 -48.843  40.093  0.00  0.00     0.076 H 
ATOM     86  H   SGN d   4      20.053 -50.716  38.432  0.00  0.00     0.089 H 
ATOM     87  H   SGN d   4      21.026 -51.253  40.215  0.00  0.00     0.212 HD
ATOM     88  C1  IDS d   3      21.716 -47.459  36.895  0.00  0.00     0.161 C 
ATOM     89  O61 IDS d   3      18.432 -46.240  34.922  0.00  0.00    -0.646 OA
ATOM     90  O3S IDS d   3      24.308 -44.128  36.017  0.00  0.00    -0.572 OA
ATOM     91  O3  IDS d   3      22.444 -49.738  35.075  0.00  0.00    -0.390 OA
ATOM     92  C5  IDS d   3      20.142 -47.880  35.157  0.00  0.00     0.152 C 
ATOM     93  O4  IDS d   3      21.376 -46.601  33.493  0.00  0.00    -0.348 OA
ATOM     94  S   IDS d   3      24.291 -45.612  36.237  0.00  0.00     0.252 S 
ATOM     95  C2  IDS d   3      22.897 -47.511  35.921  0.00  0.00     0.134 C 
ATOM     96  O2S IDS d   3      24.138 -45.868  37.707  0.00  0.00    -0.572 OA
ATOM     97  O5  IDS d   3      20.532 -47.000  36.222  0.00  0.00    -0.340 OA
ATOM     98  C6  IDS d   3      18.821 -47.371  34.576  0.00  0.00     0.206 C 
ATOM     99  C3  IDS d   3      22.548 -48.362  34.697  0.00  0.00     0.094 C 
ATOM    100  O2  IDS d   3      23.197 -46.174  35.506  0.00  0.00    -0.244 OA
ATOM    101  C4  IDS d   3      21.226 -47.898  34.079  0.00  0.00     0.103 C 
ATOM    102  O62 IDS d   3      18.201 -48.126  33.790  0.00  0.00    -0.646 OA
ATOM    103  O1S IDS d   3      25.574 -46.213  35.745  0.00  0.00    -0.572 OA
ATOM    104  H   IDS d   3      21.981 -46.773  37.673  0.00  0.00     0.133 H 
ATOM    105  H   IDS d   3      23.282 -50.030  35.466  0.00  0.00     0.210 HD
ATOM    106  H   IDS d   3      20.016 -48.878  35.523  0.00  0.00     0.104 H 
ATOM    107  H   IDS d   3      23.742 -47.953  36.406  0.00  0.00     0.097 H 
ATOM    108  H   IDS d   3      23.327 -48.249  33.971  0.00  0.00     0.091 H 
ATOM    109  H   IDS d   3      20.940 -48.578  33.305  0.00  0.00     0.092 H 
ENDROOT
TORSDOF 34
ENDMDL
MODEL 27
REMARK VINA RESULT:      -8.5      4.012     12.052
REMARK  0 active torsions:
REMARK  status: ('A' for Active; 'I' for Inactive)
REMARK       I    between atoms: C5_1  and  C6_10 
REMARK       I    between atoms: S2_2  and  O6_59 
REMARK       I    between atoms: O3_3  and  C3_61 
REMARK       I    between atoms: C5_5  and  C6_35 
REMARK       I    between atoms: C2_6  and  N_67 
REMARK       I    between atoms: C4_9  and  O4_55 
REMARK       I    between atoms: C1_11  and  O1_63 
REMARK       I    between atoms: C1_12  and  O4_30 
REMARK       I    between atoms: O1S_13  and  S1_24 
REMARK       I    between atoms: C3_14  and  O3_18 
REMARK       I    between atoms: C1_16  and  O4_29 
REMARK       I    between atoms: C2_19  and  O2_41 
REMARK       I    between atoms: C1_20  and  O4_38 
REMARK       I    between atoms: S2_21  and  O6_47 
REMARK       I    between atoms: O3_23  and  C3_58 
REMARK       I    between atoms: S1_24  and  N_33 
REMARK       I    between atoms: S1_24  and  O2S_37 
REMARK       I    between atoms: S1_24  and  O3S_34 
REMARK       I    between atoms: C4_25  and  O4_30 
REMARK       I    between atoms: C5_28  and  C6_56 
REMARK       I    between atoms: O4_29  and  C4_65 
REMARK       I    between atoms: S_31  and  O2_60 
REMARK       I    between atoms: C2_32  and  O2_60 
REMARK       I    between atoms: N_33  and  C2_46 
REMARK       I    between atoms: C6_35  and  O6_47 
REMARK       I    between atoms: C5_36  and  C6_40 
REMARK       I    between atoms: O4_38  and  C4_45 
REMARK       I    between atoms: C6_40  and  O6_59 
REMARK       I    between atoms: O2_41  and  S_54 
REMARK       I    between atoms: O1S_42  and  S1_53 
REMARK       I    between atoms: O3_43  and  C3_44 
REMARK       I    between atoms: O3S_50  and  S1_53 
REMARK       I    between atoms: O2S_52  and  S1_53 
REMARK       I    between atoms: S1_53  and  N_67 
ROOT
ATOM      1  C5  IDS d   1      22.084 -48.036  36.879  0.00  0.00     0.152 C 
ATOM      2  O2S IDS d   1      27.132 -47.312  38.649  0.00  0.00    -0.572 OA
ATOM      3  C4  IDS d   1      22.860 -47.570  38.115  0.00  0.00     0.097 C 
ATOM      4  C6  IDS d   1      21.065 -49.109  37.280  0.00  0.00     0.206 C 
ATOM      5  C2  IDS d   1      24.835 -47.194  36.622  0.00  0.00     0.134 C 
ATOM      6  C1  IDS d   1      23.963 -47.653  35.448  0.00  0.00     0.161 C 
ATOM      7  O61 IDS d   1      20.996 -50.146  36.582  0.00  0.00    -0.646 OA
ATOM      8  O3S IDS d   1      27.441 -47.200  36.226  0.00  0.00    -0.572 OA
ATOM      9  O2  IDS d   1      25.537 -48.320  37.159  0.00  0.00    -0.244 OA
ATOM     10  O3  IDS d   1      23.404 -45.349  37.272  0.00  0.00    -0.390 OA
ATOM     11  C3  IDS d   1      23.965 -46.586  37.724  0.00  0.00     0.094 C 
ATOM     12  O62 IDS d   1      20.333 -48.889  38.266  0.00  0.00    -0.646 OA
ATOM     13  S   IDS d   1      26.928 -48.042  37.355  0.00  0.00     0.252 S 
ATOM     14  O4  IDS d   1      23.424 -48.693  38.800  0.00  0.00    -0.390 OA
ATOM     15  O5  IDS d   1      22.974 -48.595  35.899  0.00  0.00    -0.340 OA
ATOM     16  O1S IDS d   1      27.689 -49.335  37.391  0.00  0.00    -0.572 OA
ATOM     17  H   IDS d   1      21.584 -47.188  36.462  0.00  0.00     0.104 H 
ATOM     18  H   IDS d   1      22.178 -47.070  38.769  0.00  0.00     0.091 H 
ATOM     19  H   IDS d   1      25.527 -46.457  36.271  0.00  0.00     0.097 H 
ATOM     20  H   IDS d   1      24.605 -48.120  34.732  0.00  0.00     0.133 H 
ATOM     21  H   IDS d   1      22.853 -44.967  37.973  0.00  0.00     0.210 HD
ATOM     22  H   IDS d   1      24.568 -46.390  38.587  0.00  0.00     0.091 H 
ATOM     23  H   IDS d   1      24.045 -49.152  38.212  0.00  0.00     0.210 HD
ATOM     24  S2  SGN d   2      25.518 -49.233  31.887  0.00  0.00     0.251 S 
ATOM     25  C2  SGN d   2      20.405 -46.405  32.478  0.00  0.00     0.081 C 
ATOM     26  O5S SGN d   2      25.023 -50.648  31.908  0.00  0.00    -0.572 OA
ATOM     27  O4S SGN d   2      26.440 -49.012  33.050  0.00  0.00    -0.572 OA
ATOM     28  C3  SGN d   2      21.167 -46.216  33.791  0.00  0.00     0.083 C 
ATOM     29  C1  SGN d   2      21.191 -45.824  31.300  0.00  0.00     0.150 C 
ATOM     30  O3  SGN d   2      20.467 -46.889  34.841  0.00  0.00    -0.391 OA
ATOM     31  C5  SGN d   2      23.283 -46.225  32.428  0.00  0.00     0.091 C 
ATOM     32  O4  SGN d   2      23.321 -46.567  34.835  0.00  0.00    -0.348 OA
ATOM     33  C6  SGN d   2      24.624 -46.943  32.241  0.00  0.00     0.067 C 
ATOM     34  O1S SGN d   2      17.872 -48.010  32.153  0.00  0.00    -0.296 OA
ATOM     35  C4  SGN d   2      22.566 -46.816  33.645  0.00  0.00     0.095 C 
ATOM     36  O6S SGN d   2      26.259 -48.988  30.606  0.00  0.00    -0.572 OA
ATOM     37  O3S SGN d   2      18.437 -46.590  30.228  0.00  0.00    -0.296 OA
ATOM     38  O2S SGN d   2      16.654 -45.928  31.771  0.00  0.00    -0.296 OA
ATOM     39  S1  SGN d   2      17.992 -46.599  31.661  0.00  0.00     0.156 S 
ATOM     40  O6  SGN d   2      24.410 -48.335  31.985  0.00  0.00    -0.254 OA
ATOM     41  N   SGN d   2      19.073 -45.789  32.574  0.00  0.00    -0.210 NA
ATOM     42  O5  SGN d   2      22.492 -46.436  31.247  0.00  0.00    -0.349 OA
ATOM     43  H   SGN d   2      20.284 -47.453  32.303  0.00  0.00     0.076 H 
ATOM     44  H   SGN d   2      21.244 -45.174  34.023  0.00  0.00     0.089 H 
ATOM     45  H   SGN d   2      20.649 -46.025  30.401  0.00  0.00     0.131 H 
ATOM     46  H   SGN d   2      20.397 -47.833  34.630  0.00  0.00     0.210 HD
ATOM     47  H   SGN d   2      23.434 -45.177  32.584  0.00  0.00     0.090 H 
ATOM     48  H   SGN d   2      25.209 -46.833  33.130  0.00  0.00     0.080 H 
ATOM     49  H   SGN d   2      25.137 -46.511  31.408  0.00  0.00     0.080 H 
ATOM     50  H   SGN d   2      17.229 -48.489  31.608  0.00  0.00     0.231 HD
ATOM     51  H   SGN d   2      22.476 -47.872  33.499  0.00  0.00     0.091 H 
ATOM     52  H   SGN d   2      17.793 -47.073  29.686  0.00  0.00     0.231 HD
ATOM     53  H   SGN d   2      16.007 -46.407  31.229  0.00  0.00     0.231 HD
ATOM     54  H   SGN d   2      19.127 -44.822  32.249  0.00  0.00     0.140 HD
ATOM     55  O3  SGN d   4      23.901 -39.813  29.422  0.00  0.00    -0.391 OA
ATOM     56  C5  SGN d   4      20.669 -37.910  29.689  0.00  0.00     0.091 C 
ATOM     57  C1  SGN d   4      22.382 -36.382  29.045  0.00  0.00     0.147 C 
ATOM     58  O1S SGN d   4      26.105 -36.801  30.393  0.00  0.00    -0.296 OA
ATOM     59  S2  SGN d   4      17.454 -36.883  31.361  0.00  0.00     0.251 S 
ATOM     60  S1  SGN d   4      25.670 -36.207  29.085  0.00  0.00     0.156 S 
ATOM     61  C4  SGN d   4      21.677 -39.033  29.946  0.00  0.00     0.095 C 
ATOM     62  O6S SGN d   4      16.222 -36.493  30.600  0.00  0.00    -0.572 OA
ATOM     63  O4  SGN d   4      21.073 -40.306  29.695  0.00  0.00    -0.348 OA
ATOM     64  N   SGN d   4      24.600 -37.208  28.369  0.00  0.00    -0.210 NA
ATOM     65  O3S SGN d   4      25.027 -34.874  29.328  0.00  0.00    -0.296 OA
ATOM     66  C6  SGN d   4      19.490 -38.081  30.646  0.00  0.00     0.067 C 
ATOM     67  O2S SGN d   4      26.864 -36.042  28.191  0.00  0.00    -0.296 OA
ATOM     68  C2  SGN d   4      23.461 -37.443  29.267  0.00  0.00     0.081 C 
ATOM     69  O6  SGN d   4      18.541 -37.033  30.445  0.00  0.00    -0.254 OA
ATOM     70  O4S SGN d   4      17.219 -38.182  32.073  0.00  0.00    -0.572 OA
ATOM     71  C3  SGN d   4      22.906 -38.853  29.054  0.00  0.00     0.083 C 
ATOM     72  O1  SGN d   4      21.921 -36.409  27.691  0.00  0.00    -0.369 OA
ATOM     73  O5  SGN d   4      21.289 -36.637  29.942  0.00  0.00    -0.350 OA
ATOM     74  O5S SGN d   4      17.782 -35.823  32.371  0.00  0.00    -0.572 OA
ATOM     75  H   SGN d   4      23.553 -40.708  29.288  0.00  0.00     0.210 HD
ATOM     76  H   SGN d   4      20.337 -37.952  28.673  0.00  0.00     0.090 H 
ATOM     77  H   SGN d   4      22.792 -35.413  29.238  0.00  0.00     0.131 H 
ATOM     78  H   SGN d   4      26.521 -37.663  30.234  0.00  0.00     0.231 HD
ATOM     79  H   SGN d   4      21.982 -38.990  30.971  0.00  0.00     0.091 H 
ATOM     80  H   SGN d   4      25.055 -38.097  28.160  0.00  0.00     0.140 HD
ATOM     81  H   SGN d   4      24.256 -34.987  29.906  0.00  0.00     0.231 HD
ATOM     82  H   SGN d   4      19.846 -38.048  31.655  0.00  0.00     0.080 H 
ATOM     83  H   SGN d   4      19.019 -39.022  30.458  0.00  0.00     0.080 H 
ATOM     84  H   SGN d   4      27.275 -36.907  28.037  0.00  0.00     0.231 HD
ATOM     85  H   SGN d   4      23.792 -37.366  30.282  0.00  0.00     0.076 H 
ATOM     86  H   SGN d   4      22.640 -38.993  28.027  0.00  0.00     0.089 H 
ATOM     87  H   SGN d   4      21.544 -37.281  27.496  0.00  0.00     0.212 HD
ATOM     88  C1  IDS d   3      20.711 -41.038  30.826  0.00  0.00     0.161 C 
ATOM     89  O61 IDS d   3      23.996 -42.757  32.383  0.00  0.00    -0.646 OA
ATOM     90  O3S IDS d   3      17.778 -42.539  33.607  0.00  0.00    -0.572 OA
ATOM     91  O3  IDS d   3      20.566 -42.676  28.311  0.00  0.00    -0.390 OA
ATOM     92  C5  IDS d   3      22.535 -42.538  30.515  0.00  0.00     0.152 C 
ATOM     93  O4  IDS d   3      21.339 -44.453  31.429  0.00  0.00    -0.348 OA
ATOM     94  S   IDS d   3      17.990 -42.164  32.170  0.00  0.00     0.252 S 
ATOM     95  C2  IDS d   3      19.682 -42.124  30.499  0.00  0.00     0.134 C 
ATOM     96  O2S IDS d   3      17.996 -40.667  32.070  0.00  0.00    -0.572 OA
ATOM     97  O5  IDS d   3      21.887 -41.621  31.410  0.00  0.00    -0.340 OA
ATOM     98  C6  IDS d   3      23.827 -43.022  31.179  0.00  0.00     0.206 C 
ATOM     99  C3  IDS d   3      20.304 -43.206  29.614  0.00  0.00     0.094 C 
ATOM    100  O2  IDS d   3      19.239 -42.708  31.730  0.00  0.00    -0.244 OA
ATOM    101  C4  IDS d   3      21.608 -43.721  30.230  0.00  0.00     0.103 C 
ATOM    102  O62 IDS d   3      24.645 -43.652  30.468  0.00  0.00    -0.646 OA
ATOM    103  O1S IDS d   3      16.883 -42.727  31.329  0.00  0.00    -0.572 OA
ATOM    104  H   IDS d   3      20.252 -40.370  31.525  0.00  0.00     0.133 H 
ATOM    105  H   IDS d   3      19.739 -42.350  27.922  0.00  0.00     0.210 HD
ATOM    106  H   IDS d   3      22.762 -42.058  29.587  0.00  0.00     0.104 H 
ATOM    107  H   IDS d   3      18.859 -41.691  29.971  0.00  0.00     0.097 H 
ATOM    108  H   IDS d   3      19.614 -44.020  29.536  0.00  0.00     0.091 H 
ATOM    109  H   IDS d   3      22.088 -44.383  29.540  0.00  0.00     0.092 H 
ENDROOT
TORSDOF 34
ENDMDL
MODEL 28
REMARK VINA RESULT:      -8.4      5.291      9.673
REMARK  0 active torsions:
REMARK  status: ('A' for Active; 'I' for Inactive)
REMARK       I    between atoms: C5_1  and  C6_10 
REMARK       I    between atoms: S2_2  and  O6_59 
REMARK       I    between atoms: O3_3  and  C3_61 
REMARK       I    between atoms: C5_5  and  C6_35 
REMARK       I    between atoms: C2_6  and  N_67 
REMARK       I    between atoms: C4_9  and  O4_55 
REMARK       I    between atoms: C1_11  and  O1_63 
REMARK       I    between atoms: C1_12  and  O4_30 
REMARK       I    between atoms: O1S_13  and  S1_24 
REMARK       I    between atoms: C3_14  and  O3_18 
REMARK       I    between atoms: C1_16  and  O4_29 
REMARK       I    between atoms: C2_19  and  O2_41 
REMARK       I    between atoms: C1_20  and  O4_38 
REMARK       I    between atoms: S2_21  and  O6_47 
REMARK       I    between atoms: O3_23  and  C3_58 
REMARK       I    between atoms: S1_24  and  N_33 
REMARK       I    between atoms: S1_24  and  O2S_37 
REMARK       I    between atoms: S1_24  and  O3S_34 
REMARK       I    between atoms: C4_25  and  O4_30 
REMARK       I    between atoms: C5_28  and  C6_56 
REMARK       I    between atoms: O4_29  and  C4_65 
REMARK       I    between atoms: S_31  and  O2_60 
REMARK       I    between atoms: C2_32  and  O2_60 
REMARK       I    between atoms: N_33  and  C2_46 
REMARK       I    between atoms: C6_35  and  O6_47 
REMARK       I    between atoms: C5_36  and  C6_40 
REMARK       I    between atoms: O4_38  and  C4_45 
REMARK       I    between atoms: C6_40  and  O6_59 
REMARK       I    between atoms: O2_41  and  S_54 
REMARK       I    between atoms: O1S_42  and  S1_53 
REMARK       I    between atoms: O3_43  and  C3_44 
REMARK       I    between atoms: O3S_50  and  S1_53 
REMARK       I    between atoms: O2S_52  and  S1_53 
REMARK       I    between atoms: S1_53  and  N_67 
ROOT
ATOM      1  C5  IDS d   1      21.755 -33.421  26.528  0.00  0.00     0.152 C 
ATOM      2  O2S IDS d   1      27.017 -34.312  25.715  0.00  0.00    -0.572 OA
ATOM      3  C4  IDS d   1      22.754 -33.733  25.410  0.00  0.00     0.097 C 
ATOM      4  C6  IDS d   1      20.913 -32.199  26.147  0.00  0.00     0.206 C 
ATOM      5  C2  IDS d   1      24.330 -34.564  27.169  0.00  0.00     0.134 C 
ATOM      6  C1  IDS d   1      23.251 -34.239  28.208  0.00  0.00     0.161 C 
ATOM      7  O61 IDS d   1      20.754 -31.302  27.006  0.00  0.00    -0.646 OA
ATOM      8  O3S IDS d   1      26.783 -34.886  28.080  0.00  0.00    -0.572 OA
ATOM      9  O2  IDS d   1      25.197 -33.434  27.018  0.00  0.00    -0.244 OA
ATOM     10  O3  IDS d   1      22.970 -36.112  25.894  0.00  0.00    -0.390 OA
ATOM     11  C3  IDS d   1      23.688 -34.876  25.816  0.00  0.00     0.094 C 
ATOM     12  O62 IDS d   1      20.402 -32.165  25.009  0.00  0.00    -0.646 OA
ATOM     13  S   IDS d   1      26.579 -33.809  27.058  0.00  0.00     0.252 S 
ATOM     14  O4  IDS d   1      23.518 -32.567  25.087  0.00  0.00    -0.390 OA
ATOM     15  O5  IDS d   1      22.441 -33.138  27.759  0.00  0.00    -0.340 OA
ATOM     16  O1S IDS d   1      27.403 -32.612  27.431  0.00  0.00    -0.572 OA
ATOM     17  H   IDS d   1      21.128 -34.277  26.661  0.00  0.00     0.104 H 
ATOM     18  H   IDS d   1      22.203 -34.038  24.545  0.00  0.00     0.091 H 
ATOM     19  H   IDS d   1      24.884 -35.416  27.502  0.00  0.00     0.097 H 
ATOM     20  H   IDS d   1      23.748 -33.973  29.117  0.00  0.00     0.133 H 
ATOM     21  H   IDS d   1      22.565 -36.306  25.034  0.00  0.00     0.210 HD
ATOM     22  H   IDS d   1      24.452 -34.972  25.072  0.00  0.00     0.091 H 
ATOM     23  H   IDS d   1      24.021 -32.285  25.867  0.00  0.00     0.210 HD
ATOM     24  S2  SGN d   2      24.080 -33.483  32.250  0.00  0.00     0.251 S 
ATOM     25  C2  SGN d   2      19.064 -35.641  30.090  0.00  0.00     0.081 C 
ATOM     26  O5S SGN d   2      23.685 -32.045  32.406  0.00  0.00    -0.572 OA
ATOM     27  O4S SGN d   2      25.220 -33.582  31.279  0.00  0.00    -0.572 OA
ATOM     28  C3  SGN d   2      20.082 -35.666  28.948  0.00  0.00     0.083 C 
ATOM     29  C1  SGN d   2      19.539 -36.498  31.265  0.00  0.00     0.150 C 
ATOM     30  O3  SGN d   2      19.668 -34.750  27.930  0.00  0.00    -0.391 OA
ATOM     31  C5  SGN d   2      21.846 -36.110  30.687  0.00  0.00     0.091 C 
ATOM     32  O4  SGN d   2      22.429 -35.348  28.453  0.00  0.00    -0.348 OA
ATOM     33  C6  SGN d   2      23.153 -35.573  31.280  0.00  0.00     0.067 C 
ATOM     34  O1S SGN d   2      16.619 -33.877  30.201  0.00  0.00    -0.296 OA
ATOM     35  C4  SGN d   2      21.448 -35.243  29.490  0.00  0.00     0.095 C 
ATOM     36  O6S SGN d   2      24.509 -34.026  33.581  0.00  0.00    -0.572 OA
ATOM     37  O3S SGN d   2      16.666 -35.668  31.884  0.00  0.00    -0.296 OA
ATOM     38  O2S SGN d   2      15.227 -35.863  29.912  0.00  0.00    -0.296 OA
ATOM     39  S1  SGN d   2      16.546 -35.359  30.421  0.00  0.00     0.156 S 
ATOM     40  O6  SGN d   2      22.970 -34.236  31.754  0.00  0.00    -0.254 OA
ATOM     41  N   SGN d   2      17.751 -36.095  29.606  0.00  0.00    -0.210 NA
ATOM     42  O5  SGN d   2      20.830 -36.037  31.701  0.00  0.00    -0.349 OA
ATOM     43  H   SGN d   2      18.969 -34.634  30.439  0.00  0.00     0.076 H 
ATOM     44  H   SGN d   2      20.146 -36.651  28.537  0.00  0.00     0.089 H 
ATOM     45  H   SGN d   2      18.826 -36.409  32.057  0.00  0.00     0.131 H 
ATOM     46  H   SGN d   2      19.609 -33.856  28.303  0.00  0.00     0.210 HD
ATOM     47  H   SGN d   2      21.966 -37.122  30.363  0.00  0.00     0.090 H 
ATOM     48  H   SGN d   2      23.911 -35.579  30.525  0.00  0.00     0.080 H 
ATOM     49  H   SGN d   2      23.446 -36.196  32.098  0.00  0.00     0.080 H 
ATOM     50  H   SGN d   2      15.901 -33.442  30.687  0.00  0.00     0.231 HD
ATOM     51  H   SGN d   2      21.390 -34.226  29.819  0.00  0.00     0.091 H 
ATOM     52  H   SGN d   2      15.949 -35.229  32.368  0.00  0.00     0.231 HD
ATOM     53  H   SGN d   2      14.507 -35.427  30.394  0.00  0.00     0.231 HD
ATOM     54  H   SGN d   2      17.677 -37.104  29.739  0.00  0.00     0.140 HD
ATOM     55  O3  SGN d   4      21.418 -42.986  32.440  0.00  0.00    -0.391 OA
ATOM     56  C5  SGN d   4      18.217 -44.481  31.154  0.00  0.00     0.091 C 
ATOM     57  C1  SGN d   4      19.655 -46.262  31.820  0.00  0.00     0.147 C 
ATOM     58  O1S SGN d   4      23.601 -45.978  31.367  0.00  0.00    -0.296 OA
ATOM     59  S2  SGN d   4      15.390 -44.870  28.695  0.00  0.00     0.251 S 
ATOM     60  S1  SGN d   4      22.856 -46.750  32.416  0.00  0.00     0.156 S 
ATOM     61  C4  SGN d   4      19.320 -43.436  31.332  0.00  0.00     0.095 C 
ATOM     62  O6S SGN d   4      14.000 -45.266  29.099  0.00  0.00    -0.572 OA
ATOM     63  O4  SGN d   4      18.751 -42.175  31.700  0.00  0.00    -0.348 OA
ATOM     64  N   SGN d   4      21.717 -45.793  33.082  0.00  0.00    -0.210 NA
ATOM     65  O3S SGN d   4      22.205 -47.949  31.792  0.00  0.00    -0.296 OA
ATOM     66  C6  SGN d   4      17.287 -44.027  30.029  0.00  0.00     0.067 C 
ATOM     67  O2S SGN d   4      23.814 -47.190  33.484  0.00  0.00    -0.296 OA
ATOM     68  C2  SGN d   4      20.816 -45.290  32.035  0.00  0.00     0.081 C 
ATOM     69  O6  SGN d   4      16.257 -44.995  29.824  0.00  0.00    -0.254 OA
ATOM     70  O4S SGN d   4      15.392 -43.447  28.219  0.00  0.00    -0.572 OA
ATOM     71  C3  SGN d   4      20.312 -43.893  32.403  0.00  0.00     0.083 C 
ATOM     72  O1  SGN d   4      18.912 -46.432  33.031  0.00  0.00    -0.369 OA
ATOM     73  O5  SGN d   4      18.801 -45.744  30.788  0.00  0.00    -0.350 OA
ATOM     74  O5S SGN d   4      15.868 -45.759  27.585  0.00  0.00    -0.572 OA
ATOM     75  H   SGN d   4      21.101 -42.099  32.673  0.00  0.00     0.210 HD
ATOM     76  H   SGN d   4      17.673 -44.589  32.069  0.00  0.00     0.090 H 
ATOM     77  H   SGN d   4      20.040 -47.216  31.529  0.00  0.00     0.131 H 
ATOM     78  H   SGN d   4      24.021 -45.203  31.772  0.00  0.00     0.231 HD
ATOM     79  H   SGN d   4      19.839 -43.325  30.403  0.00  0.00     0.091 H 
ATOM     80  H   SGN d   4      22.166 -45.006  33.549  0.00  0.00     0.140 HD
ATOM     81  H   SGN d   4      21.587 -47.659  31.103  0.00  0.00     0.231 HD
ATOM     82  H   SGN d   4      17.852 -43.914  29.128  0.00  0.00     0.080 H 
ATOM     83  H   SGN d   4      16.841 -43.092  30.298  0.00  0.00     0.080 H 
ATOM     84  H   SGN d   4      24.232 -46.412  33.885  0.00  0.00     0.231 HD
ATOM     85  H   SGN d   4      21.356 -45.216  31.114  0.00  0.00     0.076 H 
ATOM     86  H   SGN d   4      19.836 -43.914  33.362  0.00  0.00     0.089 H 
ATOM     87  H   SGN d   4      18.553 -45.576  33.313  0.00  0.00     0.212 HD
ATOM     88  C1  IDS d   3      18.688 -41.220  30.684  0.00  0.00     0.161 C 
ATOM     89  O61 IDS d   3      22.328 -39.583  30.195  0.00  0.00    -0.646 OA
ATOM     90  O3S IDS d   3      16.526 -38.963  27.715  0.00  0.00    -0.572 OA
ATOM     91  O3  IDS d   3      18.093 -40.053  33.389  0.00  0.00    -0.390 OA
ATOM     92  C5  IDS d   3      20.484 -39.987  31.647  0.00  0.00     0.152 C 
ATOM     93  O4  IDS d   3      19.631 -37.832  30.903  0.00  0.00    -0.348 OA
ATOM     94  S   IDS d   3      16.397 -39.609  29.063  0.00  0.00     0.252 S 
ATOM     95  C2  IDS d   3      17.678 -40.114  31.002  0.00  0.00     0.134 C 
ATOM     96  O2S IDS d   3      16.293 -41.092  28.867  0.00  0.00    -0.572 OA
ATOM     97  O5  IDS d   3      19.995 -40.661  30.478  0.00  0.00    -0.340 OA
ATOM     98  C6  IDS d   3      21.916 -39.522  31.368  0.00  0.00     0.206 C 
ATOM     99  C3  IDS d   3      18.153 -39.275  32.190  0.00  0.00     0.094 C 
ATOM    100  O2  IDS d   3      17.549 -39.278  29.846  0.00  0.00    -0.244 OA
ATOM    101  C4  IDS d   3      19.588 -38.789  31.965  0.00  0.00     0.103 C 
ATOM    102  O62 IDS d   3      22.595 -39.114  32.340  0.00  0.00    -0.646 OA
ATOM    103  O1S IDS d   3      15.167 -39.099  29.755  0.00  0.00    -0.572 OA
ATOM    104  H   IDS d   3      18.354 -41.704  29.789  0.00  0.00     0.133 H 
ATOM    105  H   IDS d   3      17.183 -40.359  33.530  0.00  0.00     0.210 HD
ATOM    106  H   IDS d   3      20.475 -40.646  32.490  0.00  0.00     0.104 H 
ATOM    107  H   IDS d   3      16.736 -40.552  31.256  0.00  0.00     0.097 H 
ATOM    108  H   IDS d   3      17.512 -38.424  32.283  0.00  0.00     0.091 H 
ATOM    109  H   IDS d   3      19.944 -38.312  32.854  0.00  0.00     0.092 H 
ENDROOT
TORSDOF 34
ENDMDL
MODEL 29
REMARK VINA RESULT:      -8.2      4.704     12.360
REMARK  0 active torsions:
REMARK  status: ('A' for Active; 'I' for Inactive)
REMARK       I    between atoms: C5_1  and  C6_10 
REMARK       I    between atoms: S2_2  and  O6_59 
REMARK       I    between atoms: O3_3  and  C3_61 
REMARK       I    between atoms: C5_5  and  C6_35 
REMARK       I    between atoms: C2_6  and  N_67 
REMARK       I    between atoms: C4_9  and  O4_55 
REMARK       I    between atoms: C1_11  and  O1_63 
REMARK       I    between atoms: C1_12  and  O4_30 
REMARK       I    between atoms: O1S_13  and  S1_24 
REMARK       I    between atoms: C3_14  and  O3_18 
REMARK       I    between atoms: C1_16  and  O4_29 
REMARK       I    between atoms: C2_19  and  O2_41 
REMARK       I    between atoms: C1_20  and  O4_38 
REMARK       I    between atoms: S2_21  and  O6_47 
REMARK       I    between atoms: O3_23  and  C3_58 
REMARK       I    between atoms: S1_24  and  N_33 
REMARK       I    between atoms: S1_24  and  O2S_37 
REMARK       I    between atoms: S1_24  and  O3S_34 
REMARK       I    between atoms: C4_25  and  O4_30 
REMARK       I    between atoms: C5_28  and  C6_56 
REMARK       I    between atoms: O4_29  and  C4_65 
REMARK       I    between atoms: S_31  and  O2_60 
REMARK       I    between atoms: C2_32  and  O2_60 
REMARK       I    between atoms: N_33  and  C2_46 
REMARK       I    between atoms: C6_35  and  O6_47 
REMARK       I    between atoms: C5_36  and  C6_40 
REMARK       I    between atoms: O4_38  and  C4_45 
REMARK       I    between atoms: C6_40  and  O6_59 
REMARK       I    between atoms: O2_41  and  S_54 
REMARK       I    between atoms: O1S_42  and  S1_53 
REMARK       I    between atoms: O3_43  and  C3_44 
REMARK       I    between atoms: O3S_50  and  S1_53 
REMARK       I    between atoms: O2S_52  and  S1_53 
REMARK       I    between atoms: S1_53  and  N_67 
ROOT
ATOM      1  C5  IDS d   1      21.787 -48.955  36.943  0.00  0.00     0.152 C 
ATOM      2  O2S IDS d   1      26.836 -47.573  38.266  0.00  0.00    -0.572 OA
ATOM      3  C4  IDS d   1      22.601 -48.372  38.103  0.00  0.00     0.097 C 
ATOM      4  C6  IDS d   1      20.949 -50.138  37.440  0.00  0.00     0.206 C 
ATOM      5  C2  IDS d   1      24.379 -47.782  36.444  0.00  0.00     0.134 C 
ATOM      6  C1  IDS d   1      23.476 -48.368  35.353  0.00  0.00     0.161 C 
ATOM      7  O61 IDS d   1      20.953 -51.189  36.759  0.00  0.00    -0.646 OA
ATOM      8  O3S IDS d   1      26.923 -47.472  35.825  0.00  0.00    -0.572 OA
ATOM      9  O2  IDS d   1      25.261 -48.801  36.928  0.00  0.00    -0.244 OA
ATOM     10  O3  IDS d   1      22.788 -46.117  37.197  0.00  0.00    -0.390 OA
ATOM     11  C3  IDS d   1      23.536 -47.265  37.611  0.00  0.00     0.094 C 
ATOM     12  O62 IDS d   1      20.280 -49.992  38.483  0.00  0.00    -0.646 OA
ATOM     13  S   IDS d   1      26.617 -48.349  37.002  0.00  0.00     0.252 S 
ATOM     14  O4  IDS d   1      23.356 -49.402  38.747  0.00  0.00    -0.390 OA
ATOM     15  O5  IDS d   1      22.655 -49.418  35.895  0.00  0.00    -0.340 OA
ATOM     16  O1S IDS d   1      27.534 -49.536  36.983  0.00  0.00    -0.572 OA
ATOM     17  H   IDS d   1      21.152 -48.183  36.563  0.00  0.00     0.104 H 
ATOM     18  H   IDS d   1      21.918 -47.948  38.809  0.00  0.00     0.091 H 
ATOM     19  H   IDS d   1      24.941 -46.972  36.027  0.00  0.00     0.097 H 
ATOM     20  H   IDS d   1      24.110 -48.766  34.588  0.00  0.00     0.133 H 
ATOM     21  H   IDS d   1      22.255 -45.793  37.940  0.00  0.00     0.210 HD
ATOM     22  H   IDS d   1      24.180 -46.979  38.417  0.00  0.00     0.091 H 
ATOM     23  H   IDS d   1      23.978 -49.791  38.113  0.00  0.00     0.210 HD
ATOM     24  S2  SGN d   2      24.913 -49.813  31.685  0.00  0.00     0.251 S 
ATOM     25  C2  SGN d   2      19.553 -47.631  32.688  0.00  0.00     0.081 C 
ATOM     26  O5S SGN d   2      24.603 -51.278  31.762  0.00  0.00    -0.572 OA
ATOM     27  O4S SGN d   2      25.895 -49.456  32.763  0.00  0.00    -0.572 OA
ATOM     28  C3  SGN d   2      20.393 -47.323  33.929  0.00  0.00     0.083 C 
ATOM     29  C1  SGN d   2      20.158 -46.980  31.442  0.00  0.00     0.150 C 
ATOM     30  O3  SGN d   2      19.873 -48.058  35.041  0.00  0.00    -0.391 OA
ATOM     31  C5  SGN d   2      22.372 -47.096  32.389  0.00  0.00     0.091 C 
ATOM     32  O4  SGN d   2      22.654 -47.383  34.788  0.00  0.00    -0.348 OA
ATOM     33  C6  SGN d   2      23.771 -47.645  32.095  0.00  0.00     0.067 C 
ATOM     34  O1S SGN d   2      17.224 -49.545  32.596  0.00  0.00    -0.296 OA
ATOM     35  C4  SGN d   2      21.839 -47.747  33.669  0.00  0.00     0.095 C 
ATOM     36  O6S SGN d   2      25.507 -49.502  30.344  0.00  0.00    -0.572 OA
ATOM     37  O3S SGN d   2      17.442 -48.103  30.617  0.00  0.00    -0.296 OA
ATOM     38  O2S SGN d   2      15.726 -47.639  32.302  0.00  0.00    -0.296 OA
ATOM     39  S1  SGN d   2      17.123 -48.140  32.083  0.00  0.00     0.156 S 
ATOM     40  O6  SGN d   2      23.713 -49.057  31.870  0.00  0.00    -0.254 OA
ATOM     41  N   SGN d   2      18.167 -47.184  32.892  0.00  0.00    -0.210 NA
ATOM     42  O5  SGN d   2      21.516 -47.426  31.283  0.00  0.00    -0.349 OA
ATOM     43  H   SGN d   2      19.550 -48.690  32.533  0.00  0.00     0.076 H 
ATOM     44  H   SGN d   2      20.357 -46.276  34.144  0.00  0.00     0.089 H 
ATOM     45  H   SGN d   2      19.572 -47.265  30.594  0.00  0.00     0.131 H 
ATOM     46  H   SGN d   2      19.905 -49.007  34.845  0.00  0.00     0.210 HD
ATOM     47  H   SGN d   2      22.402 -46.035  32.522  0.00  0.00     0.090 H 
ATOM     48  H   SGN d   2      24.411 -47.446  32.929  0.00  0.00     0.080 H 
ATOM     49  H   SGN d   2      24.154 -47.168  31.217  0.00  0.00     0.080 H 
ATOM     50  H   SGN d   2      16.602 -50.111  32.112  0.00  0.00     0.231 HD
ATOM     51  H   SGN d   2      21.870 -48.809  33.540  0.00  0.00     0.091 H 
ATOM     52  H   SGN d   2      16.821 -48.673  30.137  0.00  0.00     0.231 HD
ATOM     53  H   SGN d   2      15.101 -48.205  31.822  0.00  0.00     0.231 HD
ATOM     54  H   SGN d   2      18.072 -46.225  32.556  0.00  0.00     0.140 HD
ATOM     55  O3  SGN d   4      21.924 -40.717  29.285  0.00  0.00    -0.391 OA
ATOM     56  C5  SGN d   4      18.513 -39.226  29.811  0.00  0.00     0.091 C 
ATOM     57  C1  SGN d   4      19.959 -37.509  29.009  0.00  0.00     0.147 C 
ATOM     58  O1S SGN d   4      23.806 -37.436  30.036  0.00  0.00    -0.296 OA
ATOM     59  S2  SGN d   4      15.346 -38.574  31.744  0.00  0.00     0.251 S 
ATOM     60  S1  SGN d   4      23.191 -36.926  28.765  0.00  0.00     0.156 S 
ATOM     61  C4  SGN d   4      19.671 -40.209  29.991  0.00  0.00     0.095 C 
ATOM     62  O6S SGN d   4      14.015 -38.355  31.088  0.00  0.00    -0.572 OA
ATOM     63  O4  SGN d   4      19.213 -41.552  29.804  0.00  0.00    -0.348 OA
ATOM     64  N   SGN d   4      22.199 -38.066  28.153  0.00  0.00    -0.210 NA
ATOM     65  O3S SGN d   4      22.408 -35.679  29.050  0.00  0.00    -0.296 OA
ATOM     66  C6  SGN d   4      17.449 -39.523  30.868  0.00  0.00     0.067 C 
ATOM     67  O2S SGN d   4      24.275 -36.631  27.770  0.00  0.00    -0.296 OA
ATOM     68  C2  SGN d   4      21.178 -38.424  29.147  0.00  0.00     0.081 C 
ATOM     69  O6  SGN d   4      16.362 -38.606  30.739  0.00  0.00    -0.254 OA
ATOM     70  O4S SGN d   4      15.337 -39.878  32.485  0.00  0.00    -0.572 OA
ATOM     71  C3  SGN d   4      20.789 -39.896  28.995  0.00  0.00     0.083 C 
ATOM     72  O1  SGN d   4      19.394 -37.620  27.700  0.00  0.00    -0.369 OA
ATOM     73  O5  SGN d   4      18.986 -37.881  29.998  0.00  0.00    -0.350 OA
ATOM     74  O5S SGN d   4      15.622 -37.462  32.713  0.00  0.00    -0.572 OA
ATOM     75  H   SGN d   4      21.681 -41.651  29.189  0.00  0.00     0.210 HD
ATOM     76  H   SGN d   4      18.104 -39.329  28.828  0.00  0.00     0.090 H 
ATOM     77  H   SGN d   4      20.260 -36.493  29.157  0.00  0.00     0.131 H 
ATOM     78  H   SGN d   4      24.312 -38.242  29.850  0.00  0.00     0.231 HD
ATOM     79  H   SGN d   4      20.054 -40.109  30.985  0.00  0.00     0.091 H 
ATOM     80  H   SGN d   4      22.743 -38.895  27.913  0.00  0.00     0.140 HD
ATOM     81  H   SGN d   4      21.709 -35.875  29.693  0.00  0.00     0.231 HD
ATOM     82  H   SGN d   4      17.882 -39.426  31.842  0.00  0.00     0.080 H 
ATOM     83  H   SGN d   4      17.085 -40.520  30.729  0.00  0.00     0.080 H 
ATOM     84  H   SGN d   4      24.778 -37.441  27.589  0.00  0.00     0.231 HD
ATOM     85  H   SGN d   4      21.581 -38.286  30.129  0.00  0.00     0.076 H 
ATOM     86  H   SGN d   4      20.457 -40.088  27.995  0.00  0.00     0.089 H 
ATOM     87  H   SGN d   4      19.114 -38.536  27.545  0.00  0.00     0.212 HD
ATOM     88  C1  IDS d   3      19.042 -42.301  30.969  0.00  0.00     0.161 C 
ATOM     89  O61 IDS d   3      22.636 -43.567  32.253  0.00  0.00    -0.646 OA
ATOM     90  O3S IDS d   3      16.566 -44.101  34.004  0.00  0.00    -0.572 OA
ATOM     91  O3  IDS d   3      18.893 -43.993  28.489  0.00  0.00    -0.390 OA
ATOM     92  C5  IDS d   3      21.008 -43.569  30.516  0.00  0.00     0.152 C 
ATOM     93  O4  IDS d   3      20.143 -45.599  31.545  0.00  0.00    -0.348 OA
ATOM     94  S   IDS d   3      16.607 -43.730  32.551  0.00  0.00     0.252 S 
ATOM     95  C2  IDS d   3      18.135 -43.513  30.741  0.00  0.00     0.134 C 
ATOM     96  O2S IDS d   3      16.417 -42.247  32.438  0.00  0.00    -0.572 OA
ATOM     97  O5  IDS d   3      20.327 -42.722  31.454  0.00  0.00    -0.340 OA
ATOM     98  C6  IDS d   3      22.401 -43.876  31.070  0.00  0.00     0.206 C 
ATOM     99  C3  IDS d   3      18.811 -44.526  29.815  0.00  0.00     0.094 C 
ATOM    100  O2  IDS d   3      17.873 -44.123  32.010  0.00  0.00    -0.244 OA
ATOM    101  C4  IDS d   3      20.216 -44.863  30.321  0.00  0.00     0.103 C 
ATOM    102  O62 IDS d   3      23.230 -44.412  30.297  0.00  0.00    -0.646 OA
ATOM    103  O1S IDS d   3      15.513 -44.443  31.813  0.00  0.00    -0.572 OA
ATOM    104  H   IDS d   3      18.563 -41.682  31.699  0.00  0.00     0.133 H 
ATOM    105  H   IDS d   3      18.002 -43.781  28.170  0.00  0.00     0.210 HD
ATOM    106  H   IDS d   3      21.094 -43.082  29.567  0.00  0.00     0.104 H 
ATOM    107  H   IDS d   3      17.222 -43.196  30.281  0.00  0.00     0.097 H 
ATOM    108  H   IDS d   3      18.224 -45.421  29.804  0.00  0.00     0.091 H 
ATOM    109  H   IDS d   3      20.715 -45.473  29.598  0.00  0.00     0.092 H 
ENDROOT
TORSDOF 34
ENDMDL
MODEL 30
REMARK VINA RESULT:      -8.2      1.920      2.343
REMARK  0 active torsions:
REMARK  status: ('A' for Active; 'I' for Inactive)
REMARK       I    between atoms: C5_1  and  C6_10 
REMARK       I    between atoms: S2_2  and  O6_59 
REMARK       I    between atoms: O3_3  and  C3_61 
REMARK       I    between atoms: C5_5  and  C6_35 
REMARK       I    between atoms: C2_6  and  N_67 
REMARK       I    between atoms: C4_9  and  O4_55 
REMARK       I    between atoms: C1_11  and  O1_63 
REMARK       I    between atoms: C1_12  and  O4_30 
REMARK       I    between atoms: O1S_13  and  S1_24 
REMARK       I    between atoms: C3_14  and  O3_18 
REMARK       I    between atoms: C1_16  and  O4_29 
REMARK       I    between atoms: C2_19  and  O2_41 
REMARK       I    between atoms: C1_20  and  O4_38 
REMARK       I    between atoms: S2_21  and  O6_47 
REMARK       I    between atoms: O3_23  and  C3_58 
REMARK       I    between atoms: S1_24  and  N_33 
REMARK       I    between atoms: S1_24  and  O2S_37 
REMARK       I    between atoms: S1_24  and  O3S_34 
REMARK       I    between atoms: C4_25  and  O4_30 
REMARK       I    between atoms: C5_28  and  C6_56 
REMARK       I    between atoms: O4_29  and  C4_65 
REMARK       I    between atoms: S_31  and  O2_60 
REMARK       I    between atoms: C2_32  and  O2_60 
REMARK       I    between atoms: N_33  and  C2_46 
REMARK       I    between atoms: C6_35  and  O6_47 
REMARK       I    between atoms: C5_36  and  C6_40 
REMARK       I    between atoms: O4_38  and  C4_45 
REMARK       I    between atoms: C6_40  and  O6_59 
REMARK       I    between atoms: O2_41  and  S_54 
REMARK       I    between atoms: O1S_42  and  S1_53 
REMARK       I    between atoms: O3_43  and  C3_44 
REMARK       I    between atoms: O3S_50  and  S1_53 
REMARK       I    between atoms: O2S_52  and  S1_53 
REMARK       I    between atoms: S1_53  and  N_67 
ROOT
ATOM      1  C5  IDS d   1      24.130 -36.110  33.647  0.00  0.00     0.152 C 
ATOM      2  O2S IDS d   1      19.798 -36.230  30.427  0.00  0.00    -0.572 OA
ATOM      3  C4  IDS d   1      22.638 -35.762  33.639  0.00  0.00     0.097 C 
ATOM      4  C6  IDS d   1      24.943 -34.902  34.127  0.00  0.00     0.206 C 
ATOM      5  C2  IDS d   1      22.378 -37.306  31.686  0.00  0.00     0.134 C 
ATOM      6  C1  IDS d   1      23.877 -37.605  31.795  0.00  0.00     0.161 C 
ATOM      7  O61 IDS d   1      25.959 -34.578  33.471  0.00  0.00    -0.646 OA
ATOM      8  O3S IDS d   1      21.214 -37.941  29.407  0.00  0.00    -0.572 OA
ATOM      9  O2  IDS d   1      22.177 -36.222  30.772  0.00  0.00    -0.244 OA
ATOM     10  O3  IDS d   1      21.826 -38.042  33.927  0.00  0.00    -0.390 OA
ATOM     11  C3  IDS d   1      21.814 -36.910  33.051  0.00  0.00     0.094 C 
ATOM     12  O62 IDS d   1      24.571 -34.314  35.162  0.00  0.00    -0.646 OA
ATOM     13  S   IDS d   1      21.143 -36.503  29.823  0.00  0.00     0.252 S 
ATOM     14  O4  IDS d   1      22.412 -34.563  32.892  0.00  0.00    -0.390 OA
ATOM     15  O5  IDS d   1      24.576 -36.466  32.327  0.00  0.00    -0.340 OA
ATOM     16  O1S IDS d   1      21.330 -35.631  28.617  0.00  0.00    -0.572 OA
ATOM     17  H   IDS d   1      24.274 -36.940  34.306  0.00  0.00     0.104 H 
ATOM     18  H   IDS d   1      22.327 -35.606  34.651  0.00  0.00     0.091 H 
ATOM     19  H   IDS d   1      21.876 -38.184  31.336  0.00  0.00     0.097 H 
ATOM     20  H   IDS d   1      24.237 -37.820  30.811  0.00  0.00     0.133 H 
ATOM     21  H   IDS d   1      21.468 -37.787  34.792  0.00  0.00     0.210 HD
ATOM     22  H   IDS d   1      20.802 -36.579  32.937  0.00  0.00     0.091 H 
ATOM     23  H   IDS d   1      22.691 -34.698  31.973  0.00  0.00     0.210 HD
ATOM     24  S2  SGN d   2      26.204 -38.986  28.589  0.00  0.00     0.251 S 
ATOM     25  C2  SGN d   2      27.240 -39.953  34.289  0.00  0.00     0.081 C 
ATOM     26  O5S SGN d   2      27.153 -37.849  28.354  0.00  0.00    -0.572 OA
ATOM     27  O4S SGN d   2      24.801 -38.525  28.325  0.00  0.00    -0.572 OA
ATOM     28  C3  SGN d   2      25.839 -39.346  34.193  0.00  0.00     0.083 C 
ATOM     29  C1  SGN d   2      27.321 -41.269  33.512  0.00  0.00     0.150 C 
ATOM     30  O3  SGN d   2      25.842 -38.058  34.814  0.00  0.00    -0.391 OA
ATOM     31  C5  SGN d   2      25.601 -40.540  31.989  0.00  0.00     0.091 C 
ATOM     32  O4  SGN d   2      24.116 -38.718  32.614  0.00  0.00    -0.348 OA
ATOM     33  C6  SGN d   2      25.340 -40.325  30.495  0.00  0.00     0.067 C 
ATOM     34  O1S SGN d   2      29.638 -38.603  35.524  0.00  0.00    -0.296 OA
ATOM     35  C4  SGN d   2      25.460 -39.201  32.718  0.00  0.00     0.095 C 
ATOM     36  O6S SGN d   2      26.544 -40.114  27.660  0.00  0.00    -0.572 OA
ATOM     37  O3S SGN d   2      29.938 -40.999  35.062  0.00  0.00    -0.296 OA
ATOM     38  O2S SGN d   2      29.552 -40.220  37.352  0.00  0.00    -0.296 OA
ATOM     39  S1  SGN d   2      29.217 -39.990  35.907  0.00  0.00     0.156 S 
ATOM     40  O6  SGN d   2      26.309 -39.427  29.945  0.00  0.00    -0.254 OA
ATOM     41  N   SGN d   2      27.608 -40.153  35.699  0.00  0.00    -0.210 NA
ATOM     42  O5  SGN d   2      26.940 -41.040  32.144  0.00  0.00    -0.349 OA
ATOM     43  H   SGN d   2      27.937 -39.271  33.848  0.00  0.00     0.076 H 
ATOM     44  H   SGN d   2      25.131 -39.979  34.686  0.00  0.00     0.089 H 
ATOM     45  H   SGN d   2      28.327 -41.628  33.561  0.00  0.00     0.131 H 
ATOM     46  H   SGN d   2      26.483 -37.484  34.367  0.00  0.00     0.210 HD
ATOM     47  H   SGN d   2      24.902 -41.238  32.399  0.00  0.00     0.090 H 
ATOM     48  H   SGN d   2      24.362 -39.911  30.364  0.00  0.00     0.080 H 
ATOM     49  H   SGN d   2      25.410 -41.265  29.990  0.00  0.00     0.080 H 
ATOM     50  H   SGN d   2      30.595 -38.509  35.649  0.00  0.00     0.231 HD
ATOM     51  H   SGN d   2      26.124 -38.499  32.258  0.00  0.00     0.091 H 
ATOM     52  H   SGN d   2      30.895 -40.900  35.186  0.00  0.00     0.231 HD
ATOM     53  H   SGN d   2      30.509 -40.124  37.481  0.00  0.00     0.231 HD
ATOM     54  H   SGN d   2      27.327 -41.090  35.988  0.00  0.00     0.140 HD
ATOM     55  O3  SGN d   4      24.170 -47.356  33.409  0.00  0.00    -0.391 OA
ATOM     56  C5  SGN d   4      24.840 -48.123  37.029  0.00  0.00     0.091 C 
ATOM     57  C1  SGN d   4      23.588 -49.929  36.106  0.00  0.00     0.147 C 
ATOM     58  O1S SGN d   4      20.830 -49.281  33.308  0.00  0.00    -0.296 OA
ATOM     59  S2  SGN d   4      24.977 -47.322  40.707  0.00  0.00     0.251 S 
ATOM     60  S1  SGN d   4      21.666 -50.513  33.497  0.00  0.00     0.156 S 
ATOM     61  C4  SGN d   4      24.659 -47.268  35.772  0.00  0.00     0.095 C 
ATOM     62  O6S SGN d   4      25.982 -47.929  41.642  0.00  0.00    -0.572 OA
ATOM     63  O4  SGN d   4      25.782 -46.398  35.599  0.00  0.00    -0.348 OA
ATOM     64  N   SGN d   4      23.227 -50.081  33.675  0.00  0.00    -0.210 NA
ATOM     65  O3S SGN d   4      21.205 -51.251  34.719  0.00  0.00    -0.296 OA
ATOM     66  C6  SGN d   4      24.924 -47.198  38.242  0.00  0.00     0.067 C 
ATOM     67  O2S SGN d   4      21.533 -51.395  32.290  0.00  0.00    -0.296 OA
ATOM     68  C2  SGN d   4      23.361 -49.153  34.807  0.00  0.00     0.081 C 
ATOM     69  O6  SGN d   4      25.072 -47.969  39.436  0.00  0.00    -0.254 OA
ATOM     70  O4S SGN d   4      25.258 -45.857  40.544  0.00  0.00    -0.572 OA
ATOM     71  C3  SGN d   4      24.499 -48.164  34.543  0.00  0.00     0.083 C 
ATOM     72  O1  SGN d   4      24.772 -50.726  36.014  0.00  0.00    -0.369 OA
ATOM     73  O5  SGN d   4      23.707 -48.993  37.189  0.00  0.00    -0.350 OA
ATOM     74  O5S SGN d   4      23.595 -47.497  41.265  0.00  0.00    -0.572 OA
ATOM     75  H   SGN d   4      24.889 -46.728  33.240  0.00  0.00     0.210 HD
ATOM     76  H   SGN d   4      25.732 -48.706  36.939  0.00  0.00     0.090 H 
ATOM     77  H   SGN d   4      22.759 -50.582  36.278  0.00  0.00     0.131 H 
ATOM     78  H   SGN d   4      21.128 -48.805  32.517  0.00  0.00     0.231 HD
ATOM     79  H   SGN d   4      23.776 -46.675  35.887  0.00  0.00     0.091 H 
ATOM     80  H   SGN d   4      23.552 -49.625  32.823  0.00  0.00     0.140 HD
ATOM     81  H   SGN d   4      21.293 -50.676  35.496  0.00  0.00     0.231 HD
ATOM     82  H   SGN d   4      24.029 -46.615  38.306  0.00  0.00     0.080 H 
ATOM     83  H   SGN d   4      25.771 -46.552  38.135  0.00  0.00     0.080 H 
ATOM     84  H   SGN d   4      21.832 -50.913  31.503  0.00  0.00     0.231 HD
ATOM     85  H   SGN d   4      22.454 -48.596  34.912  0.00  0.00     0.076 H 
ATOM     86  H   SGN d   4      25.410 -48.693  34.351  0.00  0.00     0.089 H 
ATOM     87  H   SGN d   4      25.538 -50.151  35.858  0.00  0.00     0.212 HD
ATOM     88  C1  IDS d   3      25.572 -45.063  35.943  0.00  0.00     0.161 C 
ATOM     89  O61 IDS d   3      23.548 -43.249  32.980  0.00  0.00    -0.646 OA
ATOM     90  O3S IDS d   3      26.036 -41.702  38.603  0.00  0.00    -0.572 OA
ATOM     91  O3  IDS d   3      28.155 -45.469  34.461  0.00  0.00    -0.390 OA
ATOM     92  C5  IDS d   3      25.511 -44.418  33.650  0.00  0.00     0.152 C 
ATOM     93  O4  IDS d   3      26.484 -42.225  34.063  0.00  0.00    -0.348 OA
ATOM     94  S   IDS d   3      26.710 -42.951  38.116  0.00  0.00     0.252 S 
ATOM     95  C2  IDS d   3      26.890 -44.319  36.179  0.00  0.00     0.134 C 
ATOM     96  O2S IDS d   3      26.044 -44.128  38.764  0.00  0.00    -0.572 OA
ATOM     97  O5  IDS d   3      24.814 -44.420  34.906  0.00  0.00    -0.340 OA
ATOM     98  C6  IDS d   3      24.586 -43.814  32.591  0.00  0.00     0.206 C 
ATOM     99  C3  IDS d   3      27.675 -44.186  34.873  0.00  0.00     0.094 C 
ATOM    100  O2  IDS d   3      26.586 -43.017  36.691  0.00  0.00    -0.244 OA
ATOM    101  C4  IDS d   3      26.791 -43.591  33.773  0.00  0.00     0.103 C 
ATOM    102  O62 IDS d   3      24.924 -43.930  31.389  0.00  0.00    -0.646 OA
ATOM    103  O1S IDS d   3      28.164 -42.920  38.483  0.00  0.00    -0.572 OA
ATOM    104  H   IDS d   3      25.026 -45.035  36.863  0.00  0.00     0.133 H 
ATOM    105  H   IDS d   3      28.715 -45.844  35.159  0.00  0.00     0.210 HD
ATOM    106  H   IDS d   3      25.780 -45.415  33.371  0.00  0.00     0.104 H 
ATOM    107  H   IDS d   3      27.490 -44.866  36.876  0.00  0.00     0.097 H 
ATOM    108  H   IDS d   3      28.505 -43.531  35.040  0.00  0.00     0.091 H 
ATOM    109  H   IDS d   3      27.317 -43.621  32.842  0.00  0.00     0.092 H 
ENDROOT
TORSDOF 34
ENDMDL
MODEL 31
REMARK VINA RESULT:      -8.1      2.786     11.897
REMARK  0 active torsions:
REMARK  status: ('A' for Active; 'I' for Inactive)
REMARK       I    between atoms: C5_1  and  C6_10 
REMARK       I    between atoms: S2_2  and  O6_59 
REMARK       I    between atoms: O3_3  and  C3_61 
REMARK       I    between atoms: C5_5  and  C6_35 
REMARK       I    between atoms: C2_6  and  N_67 
REMARK       I    between atoms: C4_9  and  O4_55 
REMARK       I    between atoms: C1_11  and  O1_63 
REMARK       I    between atoms: C1_12  and  O4_30 
REMARK       I    between atoms: O1S_13  and  S1_24 
REMARK       I    between atoms: C3_14  and  O3_18 
REMARK       I    between atoms: C1_16  and  O4_29 
REMARK       I    between atoms: C2_19  and  O2_41 
REMARK       I    between atoms: C1_20  and  O4_38 
REMARK       I    between atoms: S2_21  and  O6_47 
REMARK       I    between atoms: O3_23  and  C3_58 
REMARK       I    between atoms: S1_24  and  N_33 
REMARK       I    between atoms: S1_24  and  O2S_37 
REMARK       I    between atoms: S1_24  and  O3S_34 
REMARK       I    between atoms: C4_25  and  O4_30 
REMARK       I    between atoms: C5_28  and  C6_56 
REMARK       I    between atoms: O4_29  and  C4_65 
REMARK       I    between atoms: S_31  and  O2_60 
REMARK       I    between atoms: C2_32  and  O2_60 
REMARK       I    between atoms: N_33  and  C2_46 
REMARK       I    between atoms: C6_35  and  O6_47 
REMARK       I    between atoms: C5_36  and  C6_40 
REMARK       I    between atoms: O4_38  and  C4_45 
REMARK       I    between atoms: C6_40  and  O6_59 
REMARK       I    between atoms: O2_41  and  S_54 
REMARK       I    between atoms: O1S_42  and  S1_53 
REMARK       I    between atoms: O3_43  and  C3_44 
REMARK       I    between atoms: O3S_50  and  S1_53 
REMARK       I    between atoms: O2S_52  and  S1_53 
REMARK       I    between atoms: S1_53  and  N_67 
ROOT
ATOM      1  C5  IDS d   1      22.507 -49.160  38.172  0.00  0.00     0.152 C 
ATOM      2  O2S IDS d   1      24.609 -47.967  42.999  0.00  0.00    -0.572 OA
ATOM      3  C4  IDS d   1      22.087 -48.795  39.599  0.00  0.00     0.097 C 
ATOM      4  C6  IDS d   1      21.775 -50.431  37.725  0.00  0.00     0.206 C 
ATOM      5  C2  IDS d   1      24.387 -47.867  39.943  0.00  0.00     0.134 C 
ATOM      6  C1  IDS d   1      24.697 -48.251  38.492  0.00  0.00     0.161 C 
ATOM      7  O61 IDS d   1      22.446 -51.333  37.173  0.00  0.00    -0.646 OA
ATOM      8  O3S IDS d   1      26.459 -47.401  41.505  0.00  0.00    -0.572 OA
ATOM      9  O2  IDS d   1      24.763 -48.945  40.808  0.00  0.00    -0.244 OA
ATOM     10  O3  IDS d   1      22.530 -46.406  39.409  0.00  0.00    -0.390 OA
ATOM     11  C3  IDS d   1      22.891 -47.598  40.114  0.00  0.00     0.094 C 
ATOM     12  O62 IDS d   1      20.543 -50.498  37.907  0.00  0.00    -0.646 OA
ATOM     13  S   IDS d   1      25.524 -48.491  41.933  0.00  0.00     0.252 S 
ATOM     14  O4  IDS d   1      22.264 -49.916  40.471  0.00  0.00    -0.390 OA
ATOM     15  O5  IDS d   1      23.922 -49.399  38.102  0.00  0.00    -0.340 OA
ATOM     16  O1S IDS d   1      26.321 -49.636  42.483  0.00  0.00    -0.572 OA
ATOM     17  H   IDS d   1      22.253 -48.342  37.532  0.00  0.00     0.104 H 
ATOM     18  H   IDS d   1      21.053 -48.525  39.584  0.00  0.00     0.091 H 
ATOM     19  H   IDS d   1      24.937 -46.983  40.190  0.00  0.00     0.097 H 
ATOM     20  H   IDS d   1      25.739 -48.485  38.435  0.00  0.00     0.133 H 
ATOM     21  H   IDS d   1      21.581 -46.238  39.520  0.00  0.00     0.210 HD
ATOM     22  H   IDS d   1      22.670 -47.460  41.152  0.00  0.00     0.091 H 
ATOM     23  H   IDS d   1      23.201 -50.165  40.490  0.00  0.00     0.210 HD
ATOM     24  S2  SGN d   2      28.578 -48.944  37.057  0.00  0.00     0.251 S 
ATOM     25  C2  SGN d   2      23.994 -47.089  33.888  0.00  0.00     0.081 C 
ATOM     26  O5S SGN d   2      28.547 -50.402  36.708  0.00  0.00    -0.572 OA
ATOM     27  O4S SGN d   2      28.366 -48.782  38.533  0.00  0.00    -0.572 OA
ATOM     28  C3  SGN d   2      23.575 -47.009  35.357  0.00  0.00     0.083 C 
ATOM     29  C1  SGN d   2      25.211 -46.202  33.617  0.00  0.00     0.150 C 
ATOM     30  O3  SGN d   2      22.526 -47.951  35.598  0.00  0.00    -0.391 OA
ATOM     31  C5  SGN d   2      25.973 -46.457  35.889  0.00  0.00     0.091 C 
ATOM     32  O4  SGN d   2      24.425 -47.191  37.615  0.00  0.00    -0.348 OA
ATOM     33  C6  SGN d   2      27.191 -46.915  36.697  0.00  0.00     0.067 C 
ATOM     34  O1S SGN d   2      22.839 -48.992  31.853  0.00  0.00    -0.296 OA
ATOM     35  C4  SGN d   2      24.779 -47.350  36.238  0.00  0.00     0.095 C 
ATOM     36  O6S SGN d   2      29.912 -48.373  36.677  0.00  0.00    -0.572 OA
ATOM     37  O3S SGN d   2      24.223 -47.195  30.904  0.00  0.00    -0.296 OA
ATOM     38  O2S SGN d   2      21.781 -47.091  30.741  0.00  0.00    -0.296 OA
ATOM     39  S1  SGN d   2      22.935 -47.516  31.602  0.00  0.00     0.156 S 
ATOM     40  O6  SGN d   2      27.539 -48.259  36.352  0.00  0.00    -0.254 OA
ATOM     41  N   SGN d   2      22.868 -46.713  33.020  0.00  0.00    -0.210 NA
ATOM     42  O5  SGN d   2      26.286 -46.585  34.492  0.00  0.00    -0.349 OA
ATOM     43  H   SGN d   2      24.272 -48.099  33.668  0.00  0.00     0.076 H 
ATOM     44  H   SGN d   2      23.230 -46.022  35.586  0.00  0.00     0.089 H 
ATOM     45  H   SGN d   2      25.501 -46.330  32.595  0.00  0.00     0.131 H 
ATOM     46  H   SGN d   2      22.840 -48.845  35.391  0.00  0.00     0.210 HD
ATOM     47  H   SGN d   2      25.729 -45.440  36.116  0.00  0.00     0.090 H 
ATOM     48  H   SGN d   2      26.960 -46.867  37.741  0.00  0.00     0.080 H 
ATOM     49  H   SGN d   2      28.018 -46.273  36.476  0.00  0.00     0.080 H 
ATOM     50  H   SGN d   2      22.879 -49.466  31.007  0.00  0.00     0.231 HD
ATOM     51  H   SGN d   2      25.060 -48.367  36.060  0.00  0.00     0.091 H 
ATOM     52  H   SGN d   2      24.262 -47.674  30.061  0.00  0.00     0.231 HD
ATOM     53  H   SGN d   2      21.817 -47.566  29.896  0.00  0.00     0.231 HD
ATOM     54  H   SGN d   2      22.905 -45.710  32.839  0.00  0.00     0.140 HD
ATOM     55  O3  SGN d   4      26.988 -39.612  34.262  0.00  0.00    -0.391 OA
ATOM     56  C5  SGN d   4      24.138 -38.309  32.185  0.00  0.00     0.091 C 
ATOM     57  C1  SGN d   4      25.410 -36.446  32.955  0.00  0.00     0.147 C 
ATOM     58  O1S SGN d   4      27.150 -36.502  36.536  0.00  0.00    -0.296 OA
ATOM     59  S2  SGN d   4      20.535 -38.094  31.106  0.00  0.00     0.251 S 
ATOM     60  S1  SGN d   4      27.611 -35.770  35.309  0.00  0.00     0.156 S 
ATOM     61  C4  SGN d   4      24.914 -39.288  33.069  0.00  0.00     0.095 C 
ATOM     62  O6S SGN d   4      20.118 -37.778  29.699  0.00  0.00    -0.572 OA
ATOM     63  O4  SGN d   4      24.963 -40.579  32.452  0.00  0.00    -0.348 OA
ATOM     64  N   SGN d   4      27.594 -36.790  34.037  0.00  0.00    -0.210 NA
ATOM     65  O3S SGN d   4      26.694 -34.614  35.039  0.00  0.00    -0.296 OA
ATOM     66  C6  SGN d   4      22.706 -38.821  32.027  0.00  0.00     0.067 C 
ATOM     67  O2S SGN d   4      29.010 -35.271  35.522  0.00  0.00    -0.296 OA
ATOM     68  C2  SGN d   4      26.246 -37.348  33.865  0.00  0.00     0.081 C 
ATOM     69  O6  SGN d   4      21.948 -37.915  31.224  0.00  0.00    -0.254 OA
ATOM     70  O4S SGN d   4      20.183 -39.516  31.430  0.00  0.00    -0.572 OA
ATOM     71  C3  SGN d   4      26.333 -38.771  33.308  0.00  0.00     0.083 C 
ATOM     72  O1  SGN d   4      26.027 -36.315  31.672  0.00  0.00    -0.369 OA
ATOM     73  O5  SGN d   4      24.099 -37.016  32.814  0.00  0.00    -0.350 OA
ATOM     74  O5S SGN d   4      19.825 -37.182  32.062  0.00  0.00    -0.572 OA
ATOM     75  H   SGN d   4      27.045 -40.515  33.913  0.00  0.00     0.210 HD
ATOM     76  H   SGN d   4      24.615 -38.230  31.231  0.00  0.00     0.090 H 
ATOM     77  H   SGN d   4      25.338 -35.472  33.391  0.00  0.00     0.131 H 
ATOM     78  H   SGN d   4      27.744 -37.249  36.709  0.00  0.00     0.231 HD
ATOM     79  H   SGN d   4      24.412 -39.372  34.010  0.00  0.00     0.091 H 
ATOM     80  H   SGN d   4      28.256 -37.548  34.202  0.00  0.00     0.140 HD
ATOM     81  H   SGN d   4      25.791 -34.942  34.902  0.00  0.00     0.231 HD
ATOM     82  H   SGN d   4      22.252 -38.904  32.993  0.00  0.00     0.080 H 
ATOM     83  H   SGN d   4      22.726 -39.779  31.552  0.00  0.00     0.080 H 
ATOM     84  H   SGN d   4      29.599 -36.023  35.696  0.00  0.00     0.231 HD
ATOM     85  H   SGN d   4      25.760 -37.393  34.817  0.00  0.00     0.076 H 
ATOM     86  H   SGN d   4      26.887 -38.774  32.392  0.00  0.00     0.089 H 
ATOM     87  H   SGN d   4      26.102 -37.189  31.258  0.00  0.00     0.212 HD
ATOM     88  C1  IDS d   3      24.105 -41.539  32.989  0.00  0.00     0.161 C 
ATOM     89  O61 IDS d   3      25.698 -42.963  36.395  0.00  0.00    -0.646 OA
ATOM     90  O3S IDS d   3      20.518 -43.928  32.868  0.00  0.00    -0.572 OA
ATOM     91  O3  IDS d   3      26.108 -42.730  31.091  0.00  0.00    -0.390 OA
ATOM     92  C5  IDS d   3      25.922 -42.662  34.043  0.00  0.00     0.152 C 
ATOM     93  O4  IDS d   3      24.910 -44.866  33.826  0.00  0.00    -0.348 OA
ATOM     94  S   IDS d   3      21.565 -43.286  32.005  0.00  0.00     0.252 S 
ATOM     95  C2  IDS d   3      23.869 -42.701  32.020  0.00  0.00     0.134 C 
ATOM     96  O2S IDS d   3      21.293 -41.812  31.953  0.00  0.00    -0.572 OA
ATOM     97  O5  IDS d   3      24.650 -42.022  34.227  0.00  0.00    -0.340 OA
ATOM     98  C6  IDS d   3      26.469 -43.044  35.421  0.00  0.00     0.206 C 
ATOM     99  C3  IDS d   3      25.155 -43.507  31.822  0.00  0.00     0.094 C 
ATOM    100  O2  IDS d   3      22.853 -43.547  32.571  0.00  0.00    -0.244 OA
ATOM    101  C4  IDS d   3      25.750 -43.909  33.175  0.00  0.00     0.103 C 
ATOM    102  O62 IDS d   3      27.666 -43.409  35.491  0.00  0.00    -0.646 OA
ATOM    103  O1S IDS d   3      21.507 -43.865  30.622  0.00  0.00    -0.572 OA
ATOM    104  H   IDS d   3      23.154 -41.079  33.165  0.00  0.00     0.133 H 
ATOM    105  H   IDS d   3      25.729 -42.476  30.234  0.00  0.00     0.210 HD
ATOM    106  H   IDS d   3      26.605 -42.002  33.552  0.00  0.00     0.104 H 
ATOM    107  H   IDS d   3      23.564 -42.318  31.069  0.00  0.00     0.097 H 
ATOM    108  H   IDS d   3      24.919 -44.394  31.272  0.00  0.00     0.091 H 
ATOM    109  H   IDS d   3      26.707 -44.362  33.019  0.00  0.00     0.092 H 
ENDROOT
TORSDOF 34
ENDMDL
MODEL 32
REMARK VINA RESULT:      -8.1      3.842     12.491
REMARK  0 active torsions:
REMARK  status: ('A' for Active; 'I' for Inactive)
REMARK       I    between atoms: C5_1  and  C6_10 
REMARK       I    between atoms: S2_2  and  O6_59 
REMARK       I    between atoms: O3_3  and  C3_61 
REMARK       I    between atoms: C5_5  and  C6_35 
REMARK       I    between atoms: C2_6  and  N_67 
REMARK       I    between atoms: C4_9  and  O4_55 
REMARK       I    between atoms: C1_11  and  O1_63 
REMARK       I    between atoms: C1_12  and  O4_30 
REMARK       I    between atoms: O1S_13  and  S1_24 
REMARK       I    between atoms: C3_14  and  O3_18 
REMARK       I    between atoms: C1_16  and  O4_29 
REMARK       I    between atoms: C2_19  and  O2_41 
REMARK       I    between atoms: C1_20  and  O4_38 
REMARK       I    between atoms: S2_21  and  O6_47 
REMARK       I    between atoms: O3_23  and  C3_58 
REMARK       I    between atoms: S1_24  and  N_33 
REMARK       I    between atoms: S1_24  and  O2S_37 
REMARK       I    between atoms: S1_24  and  O3S_34 
REMARK       I    between atoms: C4_25  and  O4_30 
REMARK       I    between atoms: C5_28  and  C6_56 
REMARK       I    between atoms: O4_29  and  C4_65 
REMARK       I    between atoms: S_31  and  O2_60 
REMARK       I    between atoms: C2_32  and  O2_60 
REMARK       I    between atoms: N_33  and  C2_46 
REMARK       I    between atoms: C6_35  and  O6_47 
REMARK       I    between atoms: C5_36  and  C6_40 
REMARK       I    between atoms: O4_38  and  C4_45 
REMARK       I    between atoms: C6_40  and  O6_59 
REMARK       I    between atoms: O2_41  and  S_54 
REMARK       I    between atoms: O1S_42  and  S1_53 
REMARK       I    between atoms: O3_43  and  C3_44 
REMARK       I    between atoms: O3S_50  and  S1_53 
REMARK       I    between atoms: O2S_52  and  S1_53 
REMARK       I    between atoms: S1_53  and  N_67 
ROOT
ATOM      1  C5  IDS d   1      19.798 -49.461  34.301  0.00  0.00     0.152 C 
ATOM      2  O2S IDS d   1      23.512 -50.032  38.177  0.00  0.00    -0.572 OA
ATOM      3  C4  IDS d   1      19.927 -49.576  35.824  0.00  0.00     0.097 C 
ATOM      4  C6  IDS d   1      18.774 -50.479  33.788  0.00  0.00     0.206 C 
ATOM      5  C2  IDS d   1      22.328 -48.909  35.582  0.00  0.00     0.134 C 
ATOM      6  C1  IDS d   1      22.086 -48.799  34.072  0.00  0.00     0.161 C 
ATOM      7  O61 IDS d   1      19.080 -51.171  32.791  0.00  0.00    -0.646 OA
ATOM      8  O3S IDS d   1      24.841 -49.074  36.363  0.00  0.00    -0.572 OA
ATOM      9  O2  IDS d   1      22.793 -50.228  35.891  0.00  0.00    -0.244 OA
ATOM     10  O3  IDS d   1      20.648 -47.280  36.209  0.00  0.00    -0.390 OA
ATOM     11  C3  IDS d   1      21.029 -48.653  36.348  0.00  0.00     0.094 C 
ATOM     12  O62 IDS d   1      17.673 -50.554  34.370  0.00  0.00    -0.646 OA
ATOM     13  S   IDS d   1      23.938 -50.206  36.750  0.00  0.00     0.252 S 
ATOM     14  O4  IDS d   1      20.202 -50.930  36.197  0.00  0.00    -0.390 OA
ATOM     15  O5  IDS d   1      21.059 -49.719  33.662  0.00  0.00    -0.340 OA
ATOM     16  O1S IDS d   1      24.684 -51.500  36.610  0.00  0.00    -0.572 OA
ATOM     17  H   IDS d   1      19.480 -48.466  34.070  0.00  0.00     0.104 H 
ATOM     18  H   IDS d   1      18.998 -49.276  36.261  0.00  0.00     0.091 H 
ATOM     19  H   IDS d   1      23.058 -48.181  35.868  0.00  0.00     0.097 H 
ATOM     20  H   IDS d   1      23.004 -49.041  33.580  0.00  0.00     0.133 H 
ATOM     21  H   IDS d   1      19.824 -47.122  36.697  0.00  0.00     0.210 HD
ATOM     22  H   IDS d   1      21.181 -48.860  37.387  0.00  0.00     0.091 H 
ATOM     23  H   IDS d   1      21.044 -51.208  35.804  0.00  0.00     0.210 HD
ATOM     24  S2  SGN d   2      25.133 -49.128  31.208  0.00  0.00     0.251 S 
ATOM     25  C2  SGN d   2      20.115 -46.140  30.596  0.00  0.00     0.081 C 
ATOM     26  O5S SGN d   2      24.766 -50.383  30.475  0.00  0.00    -0.572 OA
ATOM     27  O4S SGN d   2      25.440 -49.460  32.639  0.00  0.00    -0.572 OA
ATOM     28  C3  SGN d   2      20.213 -46.538  32.071  0.00  0.00     0.083 C 
ATOM     29  C1  SGN d   2      21.299 -45.262  30.186  0.00  0.00     0.150 C 
ATOM     30  O3  SGN d   2      19.167 -47.463  32.378  0.00  0.00    -0.391 OA
ATOM     31  C5  SGN d   2      22.709 -46.292  31.848  0.00  0.00     0.091 C 
ATOM     32  O4  SGN d   2      21.712 -47.497  33.710  0.00  0.00    -0.348 OA
ATOM     33  C6  SGN d   2      24.037 -47.041  31.991  0.00  0.00     0.067 C 
ATOM     34  O1S SGN d   2      18.081 -47.206  28.641  0.00  0.00    -0.296 OA
ATOM     35  C4  SGN d   2      21.569 -47.201  32.317  0.00  0.00     0.095 C 
ATOM     36  O6S SGN d   2      26.343 -48.517  30.565  0.00  0.00    -0.572 OA
ATOM     37  O3S SGN d   2      19.342 -45.253  27.842  0.00  0.00    -0.296 OA
ATOM     38  O2S SGN d   2      17.027 -45.003  28.602  0.00  0.00    -0.296 OA
ATOM     39  S1  SGN d   2      18.317 -45.737  28.825  0.00  0.00     0.156 S 
ATOM     40  O6  SGN d   2      24.042 -48.206  31.160  0.00  0.00    -0.254 OA
ATOM     41  N   SGN d   2      18.840 -45.452  30.344  0.00  0.00    -0.210 NA
ATOM     42  O5  SGN d   2      22.527 -45.959  30.462  0.00  0.00    -0.349 OA
ATOM     43  H   SGN d   2      20.146 -47.029  30.001  0.00  0.00     0.076 H 
ATOM     44  H   SGN d   2      20.118 -45.671  32.690  0.00  0.00     0.089 H 
ATOM     45  H   SGN d   2      21.218 -45.054  29.140  0.00  0.00     0.131 H 
ATOM     46  H   SGN d   2      19.254 -48.249  31.815  0.00  0.00     0.210 HD
ATOM     47  H   SGN d   2      22.712 -45.400  32.439  0.00  0.00     0.090 H 
ATOM     48  H   SGN d   2      24.168 -47.335  33.012  0.00  0.00     0.080 H 
ATOM     49  H   SGN d   2      24.836 -46.396  31.691  0.00  0.00     0.080 H 
ATOM     50  H   SGN d   2      17.771 -47.372  27.737  0.00  0.00     0.231 HD
ATOM     51  H   SGN d   2      21.617 -48.111  31.756  0.00  0.00     0.091 H 
ATOM     52  H   SGN d   2      19.031 -45.424  26.940  0.00  0.00     0.231 HD
ATOM     53  H   SGN d   2      16.713 -45.170  27.700  0.00  0.00     0.231 HD
ATOM     54  H   SGN d   2      18.971 -44.447  30.469  0.00  0.00     0.140 HD
ATOM     55  O3  SGN d   4      24.186 -39.342  32.088  0.00  0.00    -0.391 OA
ATOM     56  C5  SGN d   4      21.053 -37.308  31.658  0.00  0.00     0.091 C 
ATOM     57  C1  SGN d   4      22.778 -35.861  32.440  0.00  0.00     0.147 C 
ATOM     58  O1S SGN d   4      25.557 -37.178  34.970  0.00  0.00    -0.296 OA
ATOM     59  S2  SGN d   4      17.375 -36.601  32.055  0.00  0.00     0.251 S 
ATOM     60  S1  SGN d   4      25.701 -36.098  33.938  0.00  0.00     0.156 S 
ATOM     61  C4  SGN d   4      21.913 -38.556  31.870  0.00  0.00     0.095 C 
ATOM     62  O6S SGN d   4      16.577 -35.818  31.054  0.00  0.00    -0.572 OA
ATOM     63  O4  SGN d   4      21.559 -39.568  30.921  0.00  0.00    -0.348 OA
ATOM     64  N   SGN d   4      25.115 -36.633  32.514  0.00  0.00    -0.210 NA
ATOM     65  O3S SGN d   4      24.937 -34.882  34.372  0.00  0.00    -0.296 OA
ATOM     66  C6  SGN d   4      19.587 -37.680  31.877  0.00  0.00     0.067 C 
ATOM     67  O2S SGN d   4      27.153 -35.755  33.775  0.00  0.00    -0.296 OA
ATOM     68  C2  SGN d   4      23.714 -37.048  32.677  0.00  0.00     0.081 C 
ATOM     69  O6  SGN d   4      18.759 -36.529  31.708  0.00  0.00    -0.254 OA
ATOM     70  O4S SGN d   4      16.931 -38.035  32.044  0.00  0.00    -0.572 OA
ATOM     71  C3  SGN d   4      23.395 -38.205  31.729  0.00  0.00     0.083 C 
ATOM     72  O1  SGN d   4      22.958 -35.334  31.123  0.00  0.00    -0.369 OA
ATOM     73  O5  SGN d   4      21.421 -36.299  32.614  0.00  0.00    -0.350 OA
ATOM     74  O5S SGN d   4      17.164 -36.034  33.428  0.00  0.00    -0.572 OA
ATOM     75  H   SGN d   4      23.986 -40.078  31.489  0.00  0.00     0.210 HD
ATOM     76  H   SGN d   4      21.201 -36.935  30.666  0.00  0.00     0.090 H 
ATOM     77  H   SGN d   4      23.004 -35.086  33.142  0.00  0.00     0.131 H 
ATOM     78  H   SGN d   4      26.051 -37.963  34.688  0.00  0.00     0.231 HD
ATOM     79  H   SGN d   4      21.738 -38.929  32.857  0.00  0.00     0.091 H 
ATOM     80  H   SGN d   4      25.669 -37.429  32.197  0.00  0.00     0.140 HD
ATOM     81  H   SGN d   4      24.000 -35.109  34.476  0.00  0.00     0.231 HD
ATOM     82  H   SGN d   4      19.464 -38.063  32.869  0.00  0.00     0.080 H 
ATOM     83  H   SGN d   4      19.303 -38.425  31.163  0.00  0.00     0.080 H 
ATOM     84  H   SGN d   4      27.643 -36.545  33.494  0.00  0.00     0.231 HD
ATOM     85  H   SGN d   4      23.564 -37.389  33.680  0.00  0.00     0.076 H 
ATOM     86  H   SGN d   4      23.614 -37.925  30.719  0.00  0.00     0.089 H 
ATOM     87  H   SGN d   4      22.758 -36.023  30.469  0.00  0.00     0.212 HD
ATOM     88  C1  IDS d   3      20.784 -40.617  31.417  0.00  0.00     0.161 C 
ATOM     89  O61 IDS d   3      23.156 -43.159  33.437  0.00  0.00    -0.646 OA
ATOM     90  O3S IDS d   3      17.029 -42.683  31.880  0.00  0.00    -0.572 OA
ATOM     91  O3  IDS d   3      21.852 -41.185  28.666  0.00  0.00    -0.390 OA
ATOM     92  C5  IDS d   3      22.648 -42.099  31.365  0.00  0.00     0.152 C 
ATOM     93  O4  IDS d   3      21.292 -44.062  30.877  0.00  0.00    -0.348 OA
ATOM     94  S   IDS d   3      17.824 -41.833  30.933  0.00  0.00     0.252 S 
ATOM     95  C2  IDS d   3      20.070 -41.379  30.297  0.00  0.00     0.134 C 
ATOM     96  O2S IDS d   3      17.781 -40.416  31.424  0.00  0.00    -0.572 OA
ATOM     97  O5  IDS d   3      21.620 -41.507  32.174  0.00  0.00    -0.340 OA
ATOM     98  C6  IDS d   3      23.547 -42.941  32.275  0.00  0.00     0.206 C 
ATOM     99  C3  IDS d   3      21.080 -42.123  29.422  0.00  0.00     0.094 C 
ATOM    100  O2  IDS d   3      19.170 -42.318  30.896  0.00  0.00    -0.244 OA
ATOM    101  C4  IDS d   3      22.013 -42.977  30.286  0.00  0.00     0.103 C 
ATOM    102  O62 IDS d   3      24.630 -43.356  31.800  0.00  0.00    -0.646 OA
ATOM    103  O1S IDS d   3      17.232 -41.914  29.557  0.00  0.00    -0.572 OA
ATOM    104  H   IDS d   3      20.026 -40.204  32.050  0.00  0.00     0.133 H 
ATOM    105  H   IDS d   3      21.260 -40.645  28.119  0.00  0.00     0.210 HD
ATOM    106  H   IDS d   3      23.229 -41.341  30.883  0.00  0.00     0.104 H 
ATOM    107  H   IDS d   3      19.536 -40.688  29.678  0.00  0.00     0.097 H 
ATOM    108  H   IDS d   3      20.544 -42.765  28.755  0.00  0.00     0.091 H 
ATOM    109  H   IDS d   3      22.785 -43.390  29.671  0.00  0.00     0.092 H 
ENDROOT
TORSDOF 34
ENDMDL
MODEL 33
REMARK VINA RESULT:      -8.1      4.623      8.407
REMARK  0 active torsions:
REMARK  status: ('A' for Active; 'I' for Inactive)
REMARK       I    between atoms: C5_1  and  C6_10 
REMARK       I    between atoms: S2_2  and  O6_59 
REMARK       I    between atoms: O3_3  and  C3_61 
REMARK       I    between atoms: C5_5  and  C6_35 
REMARK       I    between atoms: C2_6  and  N_67 
REMARK       I    between atoms: C4_9  and  O4_55 
REMARK       I    between atoms: C1_11  and  O1_63 
REMARK       I    between atoms: C1_12  and  O4_30 
REMARK       I    between atoms: O1S_13  and  S1_24 
REMARK       I    between atoms: C3_14  and  O3_18 
REMARK       I    between atoms: C1_16  and  O4_29 
REMARK       I    between atoms: C2_19  and  O2_41 
REMARK       I    between atoms: C1_20  and  O4_38 
REMARK       I    between atoms: S2_21  and  O6_47 
REMARK       I    between atoms: O3_23  and  C3_58 
REMARK       I    between atoms: S1_24  and  N_33 
REMARK       I    between atoms: S1_24  and  O2S_37 
REMARK       I    between atoms: S1_24  and  O3S_34 
REMARK       I    between atoms: C4_25  and  O4_30 
REMARK       I    between atoms: C5_28  and  C6_56 
REMARK       I    between atoms: O4_29  and  C4_65 
REMARK       I    between atoms: S_31  and  O2_60 
REMARK       I    between atoms: C2_32  and  O2_60 
REMARK       I    between atoms: N_33  and  C2_46 
REMARK       I    between atoms: C6_35  and  O6_47 
REMARK       I    between atoms: C5_36  and  C6_40 
REMARK       I    between atoms: O4_38  and  C4_45 
REMARK       I    between atoms: C6_40  and  O6_59 
REMARK       I    between atoms: O2_41  and  S_54 
REMARK       I    between atoms: O1S_42  and  S1_53 
REMARK       I    between atoms: O3_43  and  C3_44 
REMARK       I    between atoms: O3S_50  and  S1_53 
REMARK       I    between atoms: O2S_52  and  S1_53 
REMARK       I    between atoms: S1_53  and  N_67 
ROOT
ATOM      1  C5  IDS d   1      29.199 -41.187  35.248  0.00  0.00     0.152 C 
ATOM      2  O2S IDS d   1      28.391 -39.058  40.143  0.00  0.00    -0.572 OA
ATOM      3  C4  IDS d   1      29.063 -41.593  36.719  0.00  0.00     0.097 C 
ATOM      4  C6  IDS d   1      30.477 -41.792  34.658  0.00  0.00     0.206 C 
ATOM      5  C2  IDS d   1      27.936 -39.396  37.130  0.00  0.00     0.134 C 
ATOM      6  C1  IDS d   1      28.099 -39.097  35.636  0.00  0.00     0.161 C 
ATOM      7  O61 IDS d   1      31.223 -41.048  33.981  0.00  0.00    -0.646 OA
ATOM      8  O3S IDS d   1      27.440 -37.333  38.696  0.00  0.00    -0.572 OA
ATOM      9  O2  IDS d   1      29.064 -38.876  37.842  0.00  0.00    -0.244 OA
ATOM     10  O3  IDS d   1      26.635 -41.417  36.826  0.00  0.00    -0.390 OA
ATOM     11  C3  IDS d   1      27.858 -40.905  37.365  0.00  0.00     0.094 C 
ATOM     12  O62 IDS d   1      30.704 -43.003  34.855  0.00  0.00    -0.646 OA
ATOM     13  S   IDS d   1      28.672 -38.130  39.000  0.00  0.00     0.252 S 
ATOM     14  O4  IDS d   1      30.257 -41.266  37.437  0.00  0.00    -0.390 OA
ATOM     15  O5  IDS d   1      29.268 -39.757  35.119  0.00  0.00    -0.340 OA
ATOM     16  O1S IDS d   1      29.781 -37.195  39.382  0.00  0.00    -0.572 OA
ATOM     17  H   IDS d   1      28.340 -41.549  34.723  0.00  0.00     0.104 H 
ATOM     18  H   IDS d   1      28.911 -42.651  36.760  0.00  0.00     0.091 H 
ATOM     19  H   IDS d   1      27.034 -38.937  37.477  0.00  0.00     0.097 H 
ATOM     20  H   IDS d   1      28.206 -38.038  35.528  0.00  0.00     0.133 H 
ATOM     21  H   IDS d   1      26.590 -42.374  36.978  0.00  0.00     0.210 HD
ATOM     22  H   IDS d   1      27.876 -41.104  38.417  0.00  0.00     0.091 H 
ATOM     23  H   IDS d   1      30.401 -40.307  37.404  0.00  0.00     0.210 HD
ATOM     24  S2  SGN d   2      28.171 -35.217  34.043  0.00  0.00     0.251 S 
ATOM     25  C2  SGN d   2      26.457 -40.081  31.234  0.00  0.00     0.081 C 
ATOM     26  O5S SGN d   2      29.568 -35.102  33.511  0.00  0.00    -0.572 OA
ATOM     27  O4S SGN d   2      28.219 -35.394  35.532  0.00  0.00    -0.572 OA
ATOM     28  C3  SGN d   2      26.608 -40.455  32.710  0.00  0.00     0.083 C 
ATOM     29  C1  SGN d   2      25.413 -38.977  31.053  0.00  0.00     0.150 C 
ATOM     30  O3  SGN d   2      27.683 -41.388  32.850  0.00  0.00    -0.391 OA
ATOM     31  C5  SGN d   2      25.863 -38.113  33.258  0.00  0.00     0.091 C 
ATOM     32  O4  SGN d   2      26.974 -39.512  34.908  0.00  0.00    -0.348 OA
ATOM     33  C6  SGN d   2      26.280 -36.826  33.975  0.00  0.00     0.067 C 
ATOM     34  O1S SGN d   2      28.208 -41.095  28.997  0.00  0.00    -0.296 OA
ATOM     35  C4  SGN d   2      26.920 -39.192  33.514  0.00  0.00     0.095 C 
ATOM     36  O6S SGN d   2      27.412 -33.966  33.712  0.00  0.00    -0.572 OA
ATOM     37  O3S SGN d   2      26.164 -39.947  28.257  0.00  0.00    -0.296 OA
ATOM     38  O2S SGN d   2      26.313 -42.390  28.160  0.00  0.00    -0.296 OA
ATOM     39  S1  SGN d   2      26.711 -41.168  28.935  0.00  0.00     0.156 S 
ATOM     40  O6  SGN d   2      27.523 -36.347  33.453  0.00  0.00    -0.254 OA
ATOM     41  N   SGN d   2      26.104 -41.272  30.445  0.00  0.00    -0.210 NA
ATOM     42  O5  SGN d   2      25.781 -37.838  31.849  0.00  0.00    -0.349 OA
ATOM     43  H   SGN d   2      27.394 -39.704  30.881  0.00  0.00     0.076 H 
ATOM     44  H   SGN d   2      25.702 -40.897  33.070  0.00  0.00     0.089 H 
ATOM     45  H   SGN d   2      25.380 -38.712  30.017  0.00  0.00     0.131 H 
ATOM     46  H   SGN d   2      28.504 -40.987  32.524  0.00  0.00     0.210 HD
ATOM     47  H   SGN d   2      24.916 -38.458  33.617  0.00  0.00     0.090 H 
ATOM     48  H   SGN d   2      26.389 -37.024  35.021  0.00  0.00     0.080 H 
ATOM     49  H   SGN d   2      25.527 -36.081  33.820  0.00  0.00     0.080 H 
ATOM     50  H   SGN d   2      28.565 -41.034  28.097  0.00  0.00     0.231 HD
ATOM     51  H   SGN d   2      27.869 -38.809  33.202  0.00  0.00     0.091 H 
ATOM     52  H   SGN d   2      26.526 -39.886  27.359  0.00  0.00     0.231 HD
ATOM     53  H   SGN d   2      26.672 -42.332  27.260  0.00  0.00     0.231 HD
ATOM     54  H   SGN d   2      25.088 -41.349  30.392  0.00  0.00     0.140 HD
ATOM     55  O3  SGN d   4      18.798 -37.900  32.498  0.00  0.00    -0.391 OA
ATOM     56  C5  SGN d   4      17.573 -40.945  30.664  0.00  0.00     0.091 C 
ATOM     57  C1  SGN d   4      15.690 -39.855  31.639  0.00  0.00     0.147 C 
ATOM     58  O1S SGN d   4      15.997 -37.995  35.146  0.00  0.00    -0.296 OA
ATOM     59  S2  SGN d   4      17.627 -44.585  29.697  0.00  0.00     0.251 S 
ATOM     60  S1  SGN d   4      15.072 -37.659  34.013  0.00  0.00     0.156 S 
ATOM     61  C4  SGN d   4      18.561 -40.037  31.399  0.00  0.00     0.095 C 
ATOM     62  O6S SGN d   4      17.186 -45.083  28.352  0.00  0.00    -0.572 OA
ATOM     63  O4  SGN d   4      19.751 -39.871  30.621  0.00  0.00    -0.348 OA
ATOM     64  N   SGN d   4      15.920 -37.610  32.623  0.00  0.00    -0.210 NA
ATOM     65  O3S SGN d   4      14.000 -38.704  33.913  0.00  0.00    -0.296 OA
ATOM     66  C6  SGN d   4      18.217 -42.318  30.472  0.00  0.00     0.067 C 
ATOM     67  O2S SGN d   4      14.451 -36.315  34.259  0.00  0.00    -0.296 OA
ATOM     68  C2  SGN d   4      16.600 -38.896  32.408  0.00  0.00     0.081 C 
ATOM     69  O6  SGN d   4      17.308 -43.196  29.808  0.00  0.00    -0.254 OA
ATOM     70  O4S SGN d   4      19.108 -44.771  29.844  0.00  0.00    -0.572 OA
ATOM     71  C3  SGN d   4      17.923 -38.674  31.673  0.00  0.00     0.083 C 
ATOM     72  O1  SGN d   4      15.332 -39.301  30.371  0.00  0.00    -0.369 OA
ATOM     73  O5  SGN d   4      16.381 -41.101  31.454  0.00  0.00    -0.350 OA
ATOM     74  O5S SGN d   4      16.927 -45.356  30.777  0.00  0.00    -0.572 OA
ATOM     75  H   SGN d   4      19.639 -37.758  32.034  0.00  0.00     0.210 HD
ATOM     76  H   SGN d   4      17.323 -40.512  29.718  0.00  0.00     0.090 H 
ATOM     77  H   SGN d   4      14.792 -40.016  32.197  0.00  0.00     0.131 H 
ATOM     78  H   SGN d   4      16.690 -37.319  35.210  0.00  0.00     0.231 HD
ATOM     79  H   SGN d   4      18.818 -40.494  32.332  0.00  0.00     0.091 H 
ATOM     80  H   SGN d   4      16.615 -36.865  32.675  0.00  0.00     0.140 HD
ATOM     81  H   SGN d   4      14.407 -39.570  33.754  0.00  0.00     0.231 HD
ATOM     82  H   SGN d   4      18.470 -42.726  31.429  0.00  0.00     0.080 H 
ATOM     83  H   SGN d   4      19.100 -42.211  29.878  0.00  0.00     0.080 H 
ATOM     84  H   SGN d   4      15.148 -35.643  34.323  0.00  0.00     0.231 HD
ATOM     85  H   SGN d   4      16.817 -39.340  33.357  0.00  0.00     0.076 H 
ATOM     86  H   SGN d   4      17.751 -38.156  30.752  0.00  0.00     0.089 H 
ATOM     87  H   SGN d   4      16.134 -39.147  29.847  0.00  0.00     0.212 HD
ATOM     88  C1  IDS d   3      20.861 -40.602  31.049  0.00  0.00     0.161 C 
ATOM     89  O61 IDS d   3      22.512 -38.746  34.211  0.00  0.00    -0.646 OA
ATOM     90  O3S IDS d   3      23.600 -43.912  30.699  0.00  0.00    -0.572 OA
ATOM     91  O3  IDS d   3      21.575 -38.549  28.973  0.00  0.00    -0.390 OA
ATOM     92  C5  IDS d   3      21.897 -38.638  31.913  0.00  0.00     0.152 C 
ATOM     93  O4  IDS d   3      24.156 -39.414  31.437  0.00  0.00    -0.348 OA
ATOM     94  S   IDS d   3      22.744 -42.971  29.903  0.00  0.00     0.252 S 
ATOM     95  C2  IDS d   3      21.912 -40.744  29.945  0.00  0.00     0.134 C 
ATOM     96  O2S IDS d   3      21.314 -43.402  30.046  0.00  0.00    -0.572 OA
ATOM     97  O5  IDS d   3      21.431 -39.965  32.204  0.00  0.00    -0.340 OA
ATOM     98  C6  IDS d   3      22.385 -38.005  33.219  0.00  0.00     0.206 C 
ATOM     99  C3  IDS d   3      22.538 -39.387  29.619  0.00  0.00     0.094 C 
ATOM    100  O2  IDS d   3      22.927 -41.643  30.404  0.00  0.00    -0.244 OA
ATOM    101  C4  IDS d   3      23.037 -38.704  30.896  0.00  0.00     0.103 C 
ATOM    102  O62 IDS d   3      22.620 -36.774  33.216  0.00  0.00    -0.646 OA
ATOM    103  O1S IDS d   3      23.148 -43.014  28.459  0.00  0.00    -0.572 OA
ATOM    104  H   IDS d   3      20.535 -41.589  31.303  0.00  0.00     0.133 H 
ATOM    105  H   IDS d   3      21.260 -38.983  28.164  0.00  0.00     0.210 HD
ATOM    106  H   IDS d   3      21.109 -38.047  31.496  0.00  0.00     0.104 H 
ATOM    107  H   IDS d   3      21.450 -41.121  29.057  0.00  0.00     0.097 H 
ATOM    108  H   IDS d   3      23.371 -39.545  28.965  0.00  0.00     0.091 H 
ATOM    109  H   IDS d   3      23.358 -37.711  30.664  0.00  0.00     0.092 H 
ENDROOT
TORSDOF 34
ENDMDL
MODEL 34
REMARK VINA RESULT:      -7.9      4.445      9.762
REMARK  0 active torsions:
REMARK  status: ('A' for Active; 'I' for Inactive)
REMARK       I    between atoms: C5_1  and  C6_10 
REMARK       I    between atoms: S2_2  and  O6_59 
REMARK       I    between atoms: O3_3  and  C3_61 
REMARK       I    between atoms: C5_5  and  C6_35 
REMARK       I    between atoms: C2_6  and  N_67 
REMARK       I    between atoms: C4_9  and  O4_55 
REMARK       I    between atoms: C1_11  and  O1_63 
REMARK       I    between atoms: C1_12  and  O4_30 
REMARK       I    between atoms: O1S_13  and  S1_24 
REMARK       I    between atoms: C3_14  and  O3_18 
REMARK       I    between atoms: C1_16  and  O4_29 
REMARK       I    between atoms: C2_19  and  O2_41 
REMARK       I    between atoms: C1_20  and  O4_38 
REMARK       I    between atoms: S2_21  and  O6_47 
REMARK       I    between atoms: O3_23  and  C3_58 
REMARK       I    between atoms: S1_24  and  N_33 
REMARK       I    between atoms: S1_24  and  O2S_37 
REMARK       I    between atoms: S1_24  and  O3S_34 
REMARK       I    between atoms: C4_25  and  O4_30 
REMARK       I    between atoms: C5_28  and  C6_56 
REMARK       I    between atoms: O4_29  and  C4_65 
REMARK       I    between atoms: S_31  and  O2_60 
REMARK       I    between atoms: C2_32  and  O2_60 
REMARK       I    between atoms: N_33  and  C2_46 
REMARK       I    between atoms: C6_35  and  O6_47 
REMARK       I    between atoms: C5_36  and  C6_40 
REMARK       I    between atoms: O4_38  and  C4_45 
REMARK       I    between atoms: C6_40  and  O6_59 
REMARK       I    between atoms: O2_41  and  S_54 
REMARK       I    between atoms: O1S_42  and  S1_53 
REMARK       I    between atoms: O3_43  and  C3_44 
REMARK       I    between atoms: O3S_50  and  S1_53 
REMARK       I    between atoms: O2S_52  and  S1_53 
REMARK       I    between atoms: S1_53  and  N_67 
ROOT
ATOM      1  C5  IDS d   1      16.137 -42.034  30.467  0.00  0.00     0.152 C 
ATOM      2  O2S IDS d   1      14.378 -46.794  32.310  0.00  0.00    -0.572 OA
ATOM      3  C4  IDS d   1      15.190 -42.634  31.511  0.00  0.00     0.097 C 
ATOM      4  C6  IDS d   1      15.392 -40.987  29.631  0.00  0.00     0.206 C 
ATOM      5  C2  IDS d   1      16.458 -44.782  31.298  0.00  0.00     0.134 C 
ATOM      6  C1  IDS d   1      17.365 -44.079  30.282  0.00  0.00     0.161 C 
ATOM      7  O61 IDS d   1      15.522 -41.027  28.386  0.00  0.00    -0.646 OA
ATOM      8  O3S IDS d   1      16.517 -47.417  31.305  0.00  0.00    -0.572 OA
ATOM      9  O2  IDS d   1      15.382 -45.425  30.607  0.00  0.00    -0.244 OA
ATOM     10  O3  IDS d   1      16.915 -43.250  33.120  0.00  0.00    -0.390 OA
ATOM     11  C3  IDS d   1      15.875 -43.765  32.282  0.00  0.00     0.094 C 
ATOM     12  O62 IDS d   1      14.712 -40.129  30.228  0.00  0.00    -0.646 OA
ATOM     13  S   IDS d   1      15.189 -46.773  31.049  0.00  0.00     0.252 S 
ATOM     14  O4  IDS d   1      14.000 -43.119  30.882  0.00  0.00    -0.390 OA
ATOM     15  O5  IDS d   1      16.635 -43.054  29.585  0.00  0.00    -0.340 OA
ATOM     16  O1S IDS d   1      14.466 -47.542  29.982  0.00  0.00    -0.572 OA
ATOM     17  H   IDS d   1      16.956 -41.581  30.984  0.00  0.00     0.104 H 
ATOM     18  H   IDS d   1      14.928 -41.863  32.205  0.00  0.00     0.091 H 
ATOM     19  H   IDS d   1      17.037 -45.502  31.837  0.00  0.00     0.097 H 
ATOM     20  H   IDS d   1      17.702 -44.817  29.585  0.00  0.00     0.133 H 
ATOM     21  H   IDS d   1      16.540 -42.606  33.741  0.00  0.00     0.210 HD
ATOM     22  H   IDS d   1      15.146 -44.246  32.901  0.00  0.00     0.091 H 
ATOM     23  H   IDS d   1      14.231 -43.819  30.251  0.00  0.00     0.210 HD
ATOM     24  S2  SGN d   2      19.569 -46.114  27.348  0.00  0.00     0.251 S 
ATOM     25  C2  SGN d   2      20.941 -40.925  29.733  0.00  0.00     0.081 C 
ATOM     26  O5S SGN d   2      18.938 -45.642  26.073  0.00  0.00    -0.572 OA
ATOM     27  O4S SGN d   2      18.554 -46.872  28.154  0.00  0.00    -0.572 OA
ATOM     28  C3  SGN d   2      19.797 -41.504  30.568  0.00  0.00     0.083 C 
ATOM     29  C1  SGN d   2      22.160 -41.851  29.757  0.00  0.00     0.150 C 
ATOM     30  O3  SGN d   2      18.638 -40.682  30.409  0.00  0.00    -0.391 OA
ATOM     31  C5  SGN d   2      20.755 -43.782  30.085  0.00  0.00     0.091 C 
ATOM     32  O4  SGN d   2      18.483 -43.507  30.906  0.00  0.00    -0.348 OA
ATOM     33  C6  SGN d   2      20.435 -45.146  29.466  0.00  0.00     0.067 C 
ATOM     34  O1S SGN d   2      20.746 -38.482  27.975  0.00  0.00    -0.296 OA
ATOM     35  C4  SGN d   2      19.490 -42.920  30.076  0.00  0.00     0.095 C 
ATOM     36  O6S SGN d   2      20.725 -47.014  27.025  0.00  0.00    -0.572 OA
ATOM     37  O3S SGN d   2      23.039 -39.274  28.375  0.00  0.00    -0.296 OA
ATOM     38  O2S SGN d   2      22.194 -37.293  29.542  0.00  0.00    -0.296 OA
ATOM     39  S1  SGN d   2      21.829 -38.644  29.000  0.00  0.00     0.156 S 
ATOM     40  O6  SGN d   2      20.027 -44.989  28.103  0.00  0.00    -0.254 OA
ATOM     41  N   SGN d   2      21.293 -39.583  30.220  0.00  0.00    -0.210 NA
ATOM     42  O5  SGN d   2      21.777 -43.156  29.290  0.00  0.00    -0.349 OA
ATOM     43  H   SGN d   2      20.614 -40.844  28.717  0.00  0.00     0.076 H 
ATOM     44  H   SGN d   2      20.077 -41.534  31.600  0.00  0.00     0.089 H 
ATOM     45  H   SGN d   2      22.912 -41.435  29.120  0.00  0.00     0.131 H 
ATOM     46  H   SGN d   2      18.385 -40.655  29.473  0.00  0.00     0.210 HD
ATOM     47  H   SGN d   2      21.096 -43.895  31.093  0.00  0.00     0.090 H 
ATOM     48  H   SGN d   2      19.645 -45.607  30.020  0.00  0.00     0.080 H 
ATOM     49  H   SGN d   2      21.311 -45.758  29.499  0.00  0.00     0.080 H 
ATOM     50  H   SGN d   2      21.068 -37.923  27.250  0.00  0.00     0.231 HD
ATOM     51  H   SGN d   2      19.131 -42.866  29.070  0.00  0.00     0.091 H 
ATOM     52  H   SGN d   2      23.356 -38.714  27.648  0.00  0.00     0.231 HD
ATOM     53  H   SGN d   2      22.513 -36.730  28.818  0.00  0.00     0.231 HD
ATOM     54  H   SGN d   2      22.026 -39.664  30.926  0.00  0.00     0.140 HD
ATOM     55  O3  SGN d   4      26.339 -44.693  34.389  0.00  0.00    -0.391 OA
ATOM     56  C5  SGN d   4      27.354 -41.425  35.948  0.00  0.00     0.091 C 
ATOM     57  C1  SGN d   4      28.451 -43.184  37.126  0.00  0.00     0.147 C 
ATOM     58  O1S SGN d   4      26.667 -46.703  37.663  0.00  0.00    -0.296 OA
ATOM     59  S2  SGN d   4      26.725 -38.002  37.390  0.00  0.00     0.251 S 
ATOM     60  S1  SGN d   4      28.139 -46.435  37.546  0.00  0.00     0.156 S 
ATOM     61  C4  SGN d   4      26.490 -42.407  35.154  0.00  0.00     0.095 C 
ATOM     62  O6S SGN d   4      27.710 -36.875  37.287  0.00  0.00    -0.572 OA
ATOM     63  O4  SGN d   4      26.177 -41.861  33.868  0.00  0.00    -0.348 OA
ATOM     64  N   SGN d   4      28.411 -45.484  36.250  0.00  0.00    -0.210 NA
ATOM     65  O3S SGN d   4      28.625 -45.745  38.787  0.00  0.00    -0.296 OA
ATOM     66  C6  SGN d   4      26.564 -40.133  36.154  0.00  0.00     0.067 C 
ATOM     67  O2S SGN d   4      28.870 -47.733  37.367  0.00  0.00    -0.296 OA
ATOM     68  C2  SGN d   4      27.639 -44.240  36.374  0.00  0.00     0.081 C 
ATOM     69  O6  SGN d   4      27.338 -39.202  36.913  0.00  0.00    -0.254 OA
ATOM     70  O4S SGN d   4      25.515 -37.695  36.557  0.00  0.00    -0.572 OA
ATOM     71  C3  SGN d   4      27.222 -43.740  34.990  0.00  0.00     0.083 C 
ATOM     72  O1  SGN d   4      29.673 -42.906  36.438  0.00  0.00    -0.369 OA
ATOM     73  O5  SGN d   4      27.665 -41.986  37.235  0.00  0.00    -0.350 OA
ATOM     74  O5S SGN d   4      26.304 -38.178  38.819  0.00  0.00    -0.572 OA
ATOM     75  H   SGN d   4      26.073 -44.378  33.511  0.00  0.00     0.210 HD
ATOM     76  H   SGN d   4      28.260 -41.230  35.413  0.00  0.00     0.090 H 
ATOM     77  H   SGN d   4      28.693 -43.551  38.101  0.00  0.00     0.131 H 
ATOM     78  H   SGN d   4      26.354 -47.149  36.861  0.00  0.00     0.231 HD
ATOM     79  H   SGN d   4      25.580 -42.574  35.691  0.00  0.00     0.091 H 
ATOM     80  H   SGN d   4      28.126 -45.976  35.403  0.00  0.00     0.140 HD
ATOM     81  H   SGN d   4      28.150 -44.907  38.898  0.00  0.00     0.231 HD
ATOM     82  H   SGN d   4      25.658 -40.352  36.679  0.00  0.00     0.080 H 
ATOM     83  H   SGN d   4      26.337 -39.704  35.201  0.00  0.00     0.080 H 
ATOM     84  H   SGN d   4      28.552 -48.175  36.563  0.00  0.00     0.231 HD
ATOM     85  H   SGN d   4      26.751 -44.434  36.939  0.00  0.00     0.076 H 
ATOM     86  H   SGN d   4      28.084 -43.614  34.368  0.00  0.00     0.089 H 
ATOM     87  H   SGN d   4      29.475 -42.571  35.549  0.00  0.00     0.212 HD
ATOM     88  C1  IDS d   3      24.881 -41.364  33.722  0.00  0.00     0.161 C 
ATOM     89  O61 IDS d   3      22.350 -44.441  33.177  0.00  0.00    -0.646 OA
ATOM     90  O3S IDS d   3      22.060 -38.114  33.470  0.00  0.00    -0.572 OA
ATOM     91  O3  IDS d   3      26.328 -41.576  31.096  0.00  0.00    -0.390 OA
ATOM     92  C5  IDS d   3      24.248 -43.236  32.391  0.00  0.00     0.152 C 
ATOM     93  O4  IDS d   3      22.677 -41.959  31.037  0.00  0.00    -0.348 OA
ATOM     94  S   IDS d   3      23.472 -38.508  33.148  0.00  0.00     0.252 S 
ATOM     95  C2  IDS d   3      24.768 -40.404  32.534  0.00  0.00     0.134 C 
ATOM     96  O2S IDS d   3      24.263 -38.504  34.422  0.00  0.00    -0.572 OA
ATOM     97  O5  IDS d   3      23.967 -42.462  33.567  0.00  0.00    -0.340 OA
ATOM     98  C6  IDS d   3      23.298 -44.436  32.370  0.00  0.00     0.206 C 
ATOM     99  C3  IDS d   3      24.966 -41.154  31.215  0.00  0.00     0.094 C 
ATOM    100  O2  IDS d   3      23.464 -39.811  32.558  0.00  0.00    -0.244 OA
ATOM    101  C4  IDS d   3      24.042 -42.373  31.145  0.00  0.00     0.103 C 
ATOM    102  O62 IDS d   3      23.534 -45.351  31.546  0.00  0.00    -0.646 OA
ATOM    103  O1S IDS d   3      24.064 -37.530  32.177  0.00  0.00    -0.572 OA
ATOM    104  H   IDS d   3      24.634 -40.807  34.602  0.00  0.00     0.133 H 
ATOM    105  H   IDS d   3      26.912 -40.803  31.140  0.00  0.00     0.210 HD
ATOM    106  H   IDS d   3      25.262 -43.576  32.400  0.00  0.00     0.104 H 
ATOM    107  H   IDS d   3      25.524 -39.652  32.608  0.00  0.00     0.097 H 
ATOM    108  H   IDS d   3      24.726 -40.492  30.408  0.00  0.00     0.091 H 
ATOM    109  H   IDS d   3      24.282 -42.949  30.277  0.00  0.00     0.092 H 
ENDROOT
TORSDOF 34
ENDMDL
MODEL 35
REMARK VINA RESULT:      -7.9      3.159     11.631
REMARK  0 active torsions:
REMARK  status: ('A' for Active; 'I' for Inactive)
REMARK       I    between atoms: C5_1  and  C6_10 
REMARK       I    between atoms: S2_2  and  O6_59 
REMARK       I    between atoms: O3_3  and  C3_61 
REMARK       I    between atoms: C5_5  and  C6_35 
REMARK       I    between atoms: C2_6  and  N_67 
REMARK       I    between atoms: C4_9  and  O4_55 
REMARK       I    between atoms: C1_11  and  O1_63 
REMARK       I    between atoms: C1_12  and  O4_30 
REMARK       I    between atoms: O1S_13  and  S1_24 
REMARK       I    between atoms: C3_14  and  O3_18 
REMARK       I    between atoms: C1_16  and  O4_29 
REMARK       I    between atoms: C2_19  and  O2_41 
REMARK       I    between atoms: C1_20  and  O4_38 
REMARK       I    between atoms: S2_21  and  O6_47 
REMARK       I    between atoms: O3_23  and  C3_58 
REMARK       I    between atoms: S1_24  and  N_33 
REMARK       I    between atoms: S1_24  and  O2S_37 
REMARK       I    between atoms: S1_24  and  O3S_34 
REMARK       I    between atoms: C4_25  and  O4_30 
REMARK       I    between atoms: C5_28  and  C6_56 
REMARK       I    between atoms: O4_29  and  C4_65 
REMARK       I    between atoms: S_31  and  O2_60 
REMARK       I    between atoms: C2_32  and  O2_60 
REMARK       I    between atoms: N_33  and  C2_46 
REMARK       I    between atoms: C6_35  and  O6_47 
REMARK       I    between atoms: C5_36  and  C6_40 
REMARK       I    between atoms: O4_38  and  C4_45 
REMARK       I    between atoms: C6_40  and  O6_59 
REMARK       I    between atoms: O2_41  and  S_54 
REMARK       I    between atoms: O1S_42  and  S1_53 
REMARK       I    between atoms: O3_43  and  C3_44 
REMARK       I    between atoms: O3S_50  and  S1_53 
REMARK       I    between atoms: O2S_52  and  S1_53 
REMARK       I    between atoms: S1_53  and  N_67 
ROOT
ATOM      1  C5  IDS d   1      17.127 -46.844  32.455  0.00  0.00     0.152 C 
ATOM      2  O2S IDS d   1      17.130 -49.564  37.118  0.00  0.00    -0.572 OA
ATOM      3  C4  IDS d   1      16.352 -46.957  33.772  0.00  0.00     0.097 C 
ATOM      4  C6  IDS d   1      16.159 -46.957  31.272  0.00  0.00     0.206 C 
ATOM      5  C2  IDS d   1      18.377 -48.041  34.768  0.00  0.00     0.134 C 
ATOM      6  C1  IDS d   1      19.071 -47.857  33.414  0.00  0.00     0.161 C 
ATOM      7  O61 IDS d   1      16.471 -47.718  30.327  0.00  0.00    -0.646 OA
ATOM      8  O3S IDS d   1      19.463 -49.785  36.420  0.00  0.00    -0.572 OA
ATOM      9  O2  IDS d   1      17.749 -49.328  34.807  0.00  0.00    -0.244 OA
ATOM     10  O3  IDS d   1      17.932 -45.686  35.126  0.00  0.00    -0.390 OA
ATOM     11  C3  IDS d   1      17.308 -46.965  34.967  0.00  0.00     0.094 C 
ATOM     12  O62 IDS d   1      15.120 -46.268  31.290  0.00  0.00    -0.646 OA
ATOM     13  S   IDS d   1      18.039 -50.030  36.020  0.00  0.00     0.252 S 
ATOM     14  O4  IDS d   1      15.551 -48.142  33.776  0.00  0.00    -0.390 OA
ATOM     15  O5  IDS d   1      18.105 -47.891  32.348  0.00  0.00    -0.340 OA
ATOM     16  O1S IDS d   1      17.836 -51.500  35.799  0.00  0.00    -0.572 OA
ATOM     17  H   IDS d   1      17.621 -45.895  32.441  0.00  0.00     0.104 H 
ATOM     18  H   IDS d   1      15.713 -46.104  33.857  0.00  0.00     0.091 H 
ATOM     19  H   IDS d   1      19.109 -47.961  35.544  0.00  0.00     0.097 H 
ATOM     20  H   IDS d   1      19.766 -48.662  33.295  0.00  0.00     0.133 H 
ATOM     21  H   IDS d   1      17.250 -45.007  35.252  0.00  0.00     0.210 HD
ATOM     22  H   IDS d   1      16.745 -47.181  35.852  0.00  0.00     0.091 H 
ATOM     23  H   IDS d   1      16.125 -48.920  33.700  0.00  0.00     0.210 HD
ATOM     24  S2  SGN d   2      22.290 -50.217  32.121  0.00  0.00     0.251 S 
ATOM     25  C2  SGN d   2      21.164 -44.694  30.472  0.00  0.00     0.081 C 
ATOM     26  O5S SGN d   2      21.714 -50.949  30.947  0.00  0.00    -0.572 OA
ATOM     27  O4S SGN d   2      21.550 -50.613  33.365  0.00  0.00    -0.572 OA
ATOM     28  C3  SGN d   2      20.233 -45.002  31.646  0.00  0.00     0.083 C 
ATOM     29  C1  SGN d   2      22.631 -44.827  30.889  0.00  0.00     0.150 C 
ATOM     30  O3  SGN d   2      18.879 -45.000  31.184  0.00  0.00    -0.391 OA
ATOM     31  C5  SGN d   2      22.064 -46.464  32.564  0.00  0.00     0.091 C 
ATOM     32  O4  SGN d   2      19.774 -46.645  33.362  0.00  0.00    -0.348 OA
ATOM     33  C6  SGN d   2      22.396 -47.895  32.998  0.00  0.00     0.067 C 
ATOM     34  O1S SGN d   2      20.281 -44.236  27.625  0.00  0.00    -0.296 OA
ATOM     35  C4  SGN d   2      20.578 -46.382  32.207  0.00  0.00     0.095 C 
ATOM     36  O6S SGN d   2      23.739 -50.576  32.265  0.00  0.00    -0.572 OA
ATOM     37  O3S SGN d   2      22.618 -43.625  28.082  0.00  0.00    -0.296 OA
ATOM     38  O2S SGN d   2      20.907 -41.887  27.855  0.00  0.00    -0.296 OA
ATOM     39  S1  SGN d   2      21.182 -43.278  28.345  0.00  0.00     0.156 S 
ATOM     40  O6  SGN d   2      22.158 -48.807  31.921  0.00  0.00    -0.254 OA
ATOM     41  N   SGN d   2      20.889 -43.348  29.948  0.00  0.00    -0.210 NA
ATOM     42  O5  SGN d   2      22.861 -46.147  31.411  0.00  0.00    -0.349 OA
ATOM     43  H   SGN d   2      20.980 -45.407  29.696  0.00  0.00     0.076 H 
ATOM     44  H   SGN d   2      20.351 -44.262  32.410  0.00  0.00     0.089 H 
ATOM     45  H   SGN d   2      23.243 -44.657  30.028  0.00  0.00     0.131 H 
ATOM     46  H   SGN d   2      18.773 -45.670  30.491  0.00  0.00     0.210 HD
ATOM     47  H   SGN d   2      22.274 -45.772  33.353  0.00  0.00     0.090 H 
ATOM     48  H   SGN d   2      21.779 -48.163  33.830  0.00  0.00     0.080 H 
ATOM     49  H   SGN d   2      23.428 -47.945  33.275  0.00  0.00     0.080 H 
ATOM     50  H   SGN d   2      20.458 -44.193  26.672  0.00  0.00     0.231 HD
ATOM     51  H   SGN d   2      20.374 -47.120  31.459  0.00  0.00     0.091 H 
ATOM     52  H   SGN d   2      22.791 -43.584  27.128  0.00  0.00     0.231 HD
ATOM     53  H   SGN d   2      21.080 -41.841  26.901  0.00  0.00     0.231 HD
ATOM     54  H   SGN d   2      21.486 -42.673  30.427  0.00  0.00     0.140 HD
ATOM     55  O3  SGN d   4      26.882 -42.192  35.578  0.00  0.00    -0.391 OA
ATOM     56  C5  SGN d   4      26.301 -38.619  34.561  0.00  0.00     0.091 C 
ATOM     57  C1  SGN d   4      27.819 -38.632  36.399  0.00  0.00     0.147 C 
ATOM     58  O1S SGN d   4      27.500 -41.352  39.290  0.00  0.00    -0.296 OA
ATOM     59  S2  SGN d   4      24.183 -35.655  33.605  0.00  0.00     0.251 S 
ATOM     60  S1  SGN d   4      28.750 -40.673  38.810  0.00  0.00     0.156 S 
ATOM     61  C4  SGN d   4      26.014 -40.116  34.702  0.00  0.00     0.095 C 
ATOM     62  O6S SGN d   4      24.651 -34.580  32.669  0.00  0.00    -0.572 OA
ATOM     63  O4  SGN d   4      25.699 -40.681  33.426  0.00  0.00    -0.348 OA
ATOM     64  N   SGN d   4      28.809 -40.746  37.183  0.00  0.00    -0.210 NA
ATOM     65  O3S SGN d   4      28.744 -39.239  39.250  0.00  0.00    -0.296 OA
ATOM     66  C6  SGN d   4      25.048 -37.928  34.025  0.00  0.00     0.067 C 
ATOM     67  O2S SGN d   4      29.948 -41.375  39.379  0.00  0.00    -0.296 OA
ATOM     68  C2  SGN d   4      27.602 -40.132  36.612  0.00  0.00     0.081 C 
ATOM     69  O6  SGN d   4      25.278 -36.524  33.903  0.00  0.00    -0.254 OA
ATOM     70  O4S SGN d   4      23.082 -36.444  32.959  0.00  0.00    -0.572 OA
ATOM     71  C3  SGN d   4      27.225 -40.831  35.305  0.00  0.00     0.083 C 
ATOM     72  O1  SGN d   4      28.920 -38.404  35.515  0.00  0.00    -0.369 OA
ATOM     73  O5  SGN d   4      26.620 -38.064  35.849  0.00  0.00    -0.350 OA
ATOM     74  O5S SGN d   4      23.665 -35.036  34.870  0.00  0.00    -0.572 OA
ATOM     75  H   SGN d   4      26.642 -42.638  34.751  0.00  0.00     0.210 HD
ATOM     76  H   SGN d   4      27.124 -38.473  33.893  0.00  0.00     0.090 H 
ATOM     77  H   SGN d   4      28.044 -38.170  37.337  0.00  0.00     0.131 H 
ATOM     78  H   SGN d   4      27.505 -42.279  39.005  0.00  0.00     0.231 HD
ATOM     79  H   SGN d   4      25.176 -40.243  35.355  0.00  0.00     0.091 H 
ATOM     80  H   SGN d   4      28.864 -41.721  36.889  0.00  0.00     0.140 HD
ATOM     81  H   SGN d   4      27.968 -38.790  38.880  0.00  0.00     0.231 HD
ATOM     82  H   SGN d   4      24.235 -38.097  34.701  0.00  0.00     0.080 H 
ATOM     83  H   SGN d   4      24.809 -38.330  33.063  0.00  0.00     0.080 H 
ATOM     84  H   SGN d   4      29.947 -42.302  39.091  0.00  0.00     0.231 HD
ATOM     85  H   SGN d   4      26.790 -40.251  37.299  0.00  0.00     0.076 H 
ATOM     86  H   SGN d   4      28.048 -40.802  34.621  0.00  0.00     0.089 H 
ATOM     87  H   SGN d   4      28.735 -38.817  34.656  0.00  0.00     0.212 HD
ATOM     88  C1  IDS d   3      24.348 -40.943  33.197  0.00  0.00     0.161 C 
ATOM     89  O61 IDS d   3      23.330 -44.338  35.097  0.00  0.00    -0.646 OA
ATOM     90  O3S IDS d   3      20.546 -40.014  31.388  0.00  0.00    -0.572 OA
ATOM     91  O3  IDS d   3      26.121 -42.179  31.109  0.00  0.00    -0.390 OA
ATOM     92  C5  IDS d   3      24.695 -43.286  33.454  0.00  0.00     0.152 C 
ATOM     93  O4  IDS d   3      22.961 -43.892  31.856  0.00  0.00    -0.348 OA
ATOM     94  S   IDS d   3      22.030 -39.933  31.177  0.00  0.00     0.252 S 
ATOM     95  C2  IDS d   3      24.038 -41.091  31.705  0.00  0.00     0.134 C 
ATOM     96  O2S IDS d   3      22.565 -38.820  32.027  0.00  0.00    -0.572 OA
ATOM     97  O5  IDS d   3      23.969 -42.133  33.907  0.00  0.00    -0.340 OA
ATOM     98  C6  IDS d   3      24.305 -44.475  34.335  0.00  0.00     0.206 C 
ATOM     99  C3  IDS d   3      24.700 -42.349  31.139  0.00  0.00     0.094 C 
ATOM    100  O2  IDS d   3      22.618 -41.184  31.547  0.00  0.00    -0.244 OA
ATOM    101  C4  IDS d   3      24.348 -43.571  31.992  0.00  0.00     0.103 C 
ATOM    102  O62 IDS d   3      24.996 -45.517  34.245  0.00  0.00    -0.646 OA
ATOM    103  O1S IDS d   3      22.323 -39.658  29.732  0.00  0.00    -0.572 OA
ATOM    104  H   IDS d   3      23.779 -40.110  33.556  0.00  0.00     0.133 H 
ATOM    105  H   IDS d   3      26.342 -41.404  30.568  0.00  0.00     0.210 HD
ATOM    106  H   IDS d   3      25.749 -43.114  33.521  0.00  0.00     0.104 H 
ATOM    107  H   IDS d   3      24.420 -40.244  31.174  0.00  0.00     0.097 H 
ATOM    108  H   IDS d   3      24.338 -42.506  30.144  0.00  0.00     0.091 H 
ATOM    109  H   IDS d   3      24.916 -44.413  31.655  0.00  0.00     0.092 H 
ENDROOT
TORSDOF 34
ENDMDL
MODEL 36
REMARK VINA RESULT:      -7.8      2.243      2.958
REMARK  0 active torsions:
REMARK  status: ('A' for Active; 'I' for Inactive)
REMARK       I    between atoms: C5_1  and  C6_10 
REMARK       I    between atoms: S2_2  and  O6_59 
REMARK       I    between atoms: O3_3  and  C3_61 
REMARK       I    between atoms: C5_5  and  C6_35 
REMARK       I    between atoms: C2_6  and  N_67 
REMARK       I    between atoms: C4_9  and  O4_55 
REMARK       I    between atoms: C1_11  and  O1_63 
REMARK       I    between atoms: C1_12  and  O4_30 
REMARK       I    between atoms: O1S_13  and  S1_24 
REMARK       I    between atoms: C3_14  and  O3_18 
REMARK       I    between atoms: C1_16  and  O4_29 
REMARK       I    between atoms: C2_19  and  O2_41 
REMARK       I    between atoms: C1_20  and  O4_38 
REMARK       I    between atoms: S2_21  and  O6_47 
REMARK       I    between atoms: O3_23  and  C3_58 
REMARK       I    between atoms: S1_24  and  N_33 
REMARK       I    between atoms: S1_24  and  O2S_37 
REMARK       I    between atoms: S1_24  and  O3S_34 
REMARK       I    between atoms: C4_25  and  O4_30 
REMARK       I    between atoms: C5_28  and  C6_56 
REMARK       I    between atoms: O4_29  and  C4_65 
REMARK       I    between atoms: S_31  and  O2_60 
REMARK       I    between atoms: C2_32  and  O2_60 
REMARK       I    between atoms: N_33  and  C2_46 
REMARK       I    between atoms: C6_35  and  O6_47 
REMARK       I    between atoms: C5_36  and  C6_40 
REMARK       I    between atoms: O4_38  and  C4_45 
REMARK       I    between atoms: C6_40  and  O6_59 
REMARK       I    between atoms: O2_41  and  S_54 
REMARK       I    between atoms: O1S_42  and  S1_53 
REMARK       I    between atoms: O3_43  and  C3_44 
REMARK       I    between atoms: O3S_50  and  S1_53 
REMARK       I    between atoms: O2S_52  and  S1_53 
REMARK       I    between atoms: S1_53  and  N_67 
ROOT
ATOM      1  C5  IDS d   1      23.873 -34.962  33.130  0.00  0.00     0.152 C 
ATOM      2  O2S IDS d   1      19.522 -33.626  30.227  0.00  0.00    -0.572 OA
ATOM      3  C4  IDS d   1      22.470 -34.366  33.287  0.00  0.00     0.097 C 
ATOM      4  C6  IDS d   1      24.904 -34.047  33.801  0.00  0.00     0.206 C 
ATOM      5  C2  IDS d   1      21.888 -35.382  31.074  0.00  0.00     0.134 C 
ATOM      6  C1  IDS d   1      23.309 -35.954  31.027  0.00  0.00     0.161 C 
ATOM      7  O61 IDS d   1      25.948 -33.771  33.167  0.00  0.00    -0.646 OA
ATOM      8  O3S IDS d   1      20.577 -35.297  28.788  0.00  0.00    -0.572 OA
ATOM      9  O2  IDS d   1      21.870 -34.108  30.420  0.00  0.00    -0.244 OA
ATOM     10  O3  IDS d   1      21.261 -36.477  33.142  0.00  0.00    -0.390 OA
ATOM     11  C3  IDS d   1      21.437 -35.198  32.524  0.00  0.00     0.094 C 
ATOM     12  O62 IDS d   1      24.669 -33.641  34.957  0.00  0.00    -0.646 OA
ATOM     13  S   IDS d   1      20.780 -33.993  29.499  0.00  0.00     0.252 S 
ATOM     14  O4  IDS d   1      22.451 -33.013  32.821  0.00  0.00    -0.390 OA
ATOM     15  O5  IDS d   1      24.217 -35.097  31.741  0.00  0.00    -0.340 OA
ATOM     16  O1S IDS d   1      21.097 -32.927  28.491  0.00  0.00    -0.572 OA
ATOM     17  H   IDS d   1      23.877 -35.927  33.592  0.00  0.00     0.104 H 
ATOM     18  H   IDS d   1      22.216 -34.381  34.325  0.00  0.00     0.091 H 
ATOM     19  H   IDS d   1      21.226 -36.062  30.581  0.00  0.00     0.097 H 
ATOM     20  H   IDS d   1      23.601 -36.011  30.000  0.00  0.00     0.133 H 
ATOM     21  H   IDS d   1      20.975 -36.356  34.061  0.00  0.00     0.210 HD
ATOM     22  H   IDS d   1      20.501 -34.679  32.543  0.00  0.00     0.091 H 
ATOM     23  H   IDS d   1      22.681 -32.993  31.879  0.00  0.00     0.210 HD
ATOM     24  S2  SGN d   2      25.272 -36.994  27.468  0.00  0.00     0.251 S 
ATOM     25  C2  SGN d   2      26.239 -39.335  32.767  0.00  0.00     0.081 C 
ATOM     26  O5S SGN d   2      26.407 -36.016  27.417  0.00  0.00    -0.572 OA
ATOM     27  O4S SGN d   2      23.971 -36.250  27.392  0.00  0.00    -0.572 OA
ATOM     28  C3  SGN d   2      24.971 -38.487  32.885  0.00  0.00     0.083 C 
ATOM     29  C1  SGN d   2      26.060 -40.445  31.729  0.00  0.00     0.150 C 
ATOM     30  O3  SGN d   2      25.224 -37.384  33.759  0.00  0.00    -0.391 OA
ATOM     31  C5  SGN d   2      24.470 -39.116  30.499  0.00  0.00     0.091 C 
ATOM     32  O4  SGN d   2      23.358 -37.242  31.580  0.00  0.00    -0.348 OA
ATOM     33  C6  SGN d   2      24.219 -38.541  29.102  0.00  0.00     0.067 C 
ATOM     34  O1S SGN d   2      28.871 -38.722  34.107  0.00  0.00    -0.296 OA
ATOM     35  C4  SGN d   2      24.592 -37.962  31.499  0.00  0.00     0.095 C 
ATOM     36  O6S SGN d   2      25.378 -37.936  26.305  0.00  0.00    -0.572 OA
ATOM     37  O3S SGN d   2      28.716 -40.976  33.138  0.00  0.00    -0.296 OA
ATOM     38  O2S SGN d   2      28.531 -40.656  35.560  0.00  0.00    -0.296 OA
ATOM     39  S1  SGN d   2      28.212 -40.065  34.218  0.00  0.00     0.156 S 
ATOM     40  O6  SGN d   2      25.324 -37.729  28.693  0.00  0.00    -0.254 OA
ATOM     41  N   SGN d   2      26.596 -39.896  34.079  0.00  0.00    -0.210 NA
ATOM     42  O5  SGN d   2      25.697 -39.863  30.465  0.00  0.00    -0.349 OA
ATOM     43  H   SGN d   2      27.039 -38.706  32.436  0.00  0.00     0.076 H 
ATOM     44  H   SGN d   2      24.171 -39.078  33.277  0.00  0.00     0.089 H 
ATOM     45  H   SGN d   2      26.985 -40.977  31.641  0.00  0.00     0.131 H 
ATOM     46  H   SGN d   2      25.950 -36.848  33.403  0.00  0.00     0.210 HD
ATOM     47  H   SGN d   2      23.663 -39.753  30.796  0.00  0.00     0.090 H 
ATOM     48  H   SGN d   2      23.331 -37.945  29.120  0.00  0.00     0.080 H 
ATOM     49  H   SGN d   2      24.105 -39.348  28.408  0.00  0.00     0.080 H 
ATOM     50  H   SGN d   2      29.832 -38.826  34.190  0.00  0.00     0.231 HD
ATOM     51  H   SGN d   2      25.363 -37.305  31.155  0.00  0.00     0.091 H 
ATOM     52  H   SGN d   2      29.678 -41.075  33.222  0.00  0.00     0.231 HD
ATOM     53  H   SGN d   2      29.492 -40.758  35.647  0.00  0.00     0.231 HD
ATOM     54  H   SGN d   2      26.154 -40.810  34.183  0.00  0.00     0.140 HD
ATOM     55  O3  SGN d   4      21.845 -45.722  30.552  0.00  0.00    -0.391 OA
ATOM     56  C5  SGN d   4      22.444 -47.357  33.885  0.00  0.00     0.091 C 
ATOM     57  C1  SGN d   4      20.862 -48.674  32.684  0.00  0.00     0.147 C 
ATOM     58  O1S SGN d   4      18.207 -46.967  30.256  0.00  0.00    -0.296 OA
ATOM     59  S2  SGN d   4      22.807 -47.406  37.634  0.00  0.00     0.251 S 
ATOM     60  S1  SGN d   4      18.807 -48.337  30.133  0.00  0.00     0.156 S 
ATOM     61  C4  SGN d   4      22.394 -46.232  32.848  0.00  0.00     0.095 C 
ATOM     62  O6S SGN d   4      23.704 -48.367  38.358  0.00  0.00    -0.572 OA
ATOM     63  O4  SGN d   4      23.654 -45.556  32.791  0.00  0.00    -0.348 OA
ATOM     64  N   SGN d   4      20.425 -48.233  30.301  0.00  0.00    -0.210 NA
ATOM     65  O3S SGN d   4      18.246 -49.229  31.200  0.00  0.00    -0.296 OA
ATOM     66  C6  SGN d   4      22.723 -46.745  35.257  0.00  0.00     0.067 C 
ATOM     67  O2S SGN d   4      18.488 -48.900  28.779  0.00  0.00    -0.296 OA
ATOM     68  C2  SGN d   4      20.752 -47.609  31.591  0.00  0.00     0.081 C 
ATOM     69  O6  SGN d   4      22.754 -47.769  36.252  0.00  0.00    -0.254 OA
ATOM     70  O4S SGN d   4      23.348 -46.013  37.763  0.00  0.00    -0.572 OA
ATOM     71  C3  SGN d   4      22.045 -46.800  31.471  0.00  0.00     0.083 C 
ATOM     72  O1  SGN d   4      21.877 -49.627  32.356  0.00  0.00    -0.369 OA
ATOM     73  O5  SGN d   4      21.174 -48.031  33.929  0.00  0.00    -0.350 OA
ATOM     74  O5S SGN d   4      21.429 -47.454  38.226  0.00  0.00    -0.572 OA
ATOM     75  H   SGN d   4      22.663 -45.207  30.474  0.00  0.00     0.210 HD
ATOM     76  H   SGN d   4      23.212 -48.054  33.622  0.00  0.00     0.090 H 
ATOM     77  H   SGN d   4      19.931 -49.195  32.766  0.00  0.00     0.131 H 
ATOM     78  H   SGN d   4      18.570 -46.391  29.565  0.00  0.00     0.231 HD
ATOM     79  H   SGN d   4      21.638 -45.534  33.137  0.00  0.00     0.091 H 
ATOM     80  H   SGN d   4      20.808 -47.666  29.545  0.00  0.00     0.140 HD
ATOM     81  H   SGN d   4      18.455 -48.861  32.073  0.00  0.00     0.231 HD
ATOM     82  H   SGN d   4      21.951 -46.043  35.495  0.00  0.00     0.080 H 
ATOM     83  H   SGN d   4      23.671 -46.249  35.235  0.00  0.00     0.080 H 
ATOM     84  H   SGN d   4      18.853 -48.320  28.092  0.00  0.00     0.231 HD
ATOM     85  H   SGN d   4      19.965 -46.938  31.866  0.00  0.00     0.076 H 
ATOM     86  H   SGN d   4      22.839 -47.426  31.117  0.00  0.00     0.089 H 
ATOM     87  H   SGN d   4      22.731 -49.174  32.277  0.00  0.00     0.212 HD
ATOM     88  C1  IDS d   3      23.700 -44.310  33.418  0.00  0.00     0.161 C 
ATOM     89  O61 IDS d   3      21.977 -41.574  31.028  0.00  0.00    -0.646 OA
ATOM     90  O3S IDS d   3      24.832 -41.737  36.687  0.00  0.00    -0.572 OA
ATOM     91  O3  IDS d   3      26.131 -44.831  31.729  0.00  0.00    -0.390 OA
ATOM     92  C5  IDS d   3      23.707 -43.185  31.318  0.00  0.00     0.152 C 
ATOM     93  O4  IDS d   3      25.074 -41.337  32.119  0.00  0.00    -0.348 OA
ATOM     94  S   IDS d   3      25.254 -42.949  35.910  0.00  0.00     0.252 S 
ATOM     95  C2  IDS d   3      25.137 -43.877  33.723  0.00  0.00     0.134 C 
ATOM     96  O2S IDS d   3      24.398 -44.104  36.338  0.00  0.00    -0.572 OA
ATOM     97  O5  IDS d   3      23.050 -43.337  32.586  0.00  0.00    -0.340 OA
ATOM     98  C6  IDS d   3      22.885 -42.214  30.466  0.00  0.00     0.206 C 
ATOM     99  C3  IDS d   3      25.904 -43.603  32.428  0.00  0.00     0.094 C 
ATOM    100  O2  IDS d   3      25.088 -42.683  34.513  0.00  0.00    -0.244 OA
ATOM    101  C4  IDS d   3      25.120 -42.640  31.532  0.00  0.00     0.103 C 
ATOM    102  O62 IDS d   3      23.169 -42.126  29.248  0.00  0.00    -0.646 OA
ATOM    103  O1S IDS d   3      26.697 -43.252  36.186  0.00  0.00    -0.572 OA
ATOM    104  H   IDS d   3      23.189 -44.387  34.355  0.00  0.00     0.133 H 
ATOM    105  H   IDS d   3      26.628 -45.439  32.298  0.00  0.00     0.210 HD
ATOM    106  H   IDS d   3      23.782 -44.129  30.821  0.00  0.00     0.104 H 
ATOM    107  H   IDS d   3      25.642 -44.657  34.253  0.00  0.00     0.097 H 
ATOM    108  H   IDS d   3      26.843 -43.155  32.677  0.00  0.00     0.091 H 
ATOM    109  H   IDS d   3      25.611 -42.559  30.585  0.00  0.00     0.092 H 
ENDROOT
TORSDOF 34
ENDMDL
MODEL 37
REMARK VINA RESULT:      -7.6      2.633     11.929
REMARK  0 active torsions:
REMARK  status: ('A' for Active; 'I' for Inactive)
REMARK       I    between atoms: C5_1  and  C6_10 
REMARK       I    between atoms: S2_2  and  O6_59 
REMARK       I    between atoms: O3_3  and  C3_61 
REMARK       I    between atoms: C5_5  and  C6_35 
REMARK       I    between atoms: C2_6  and  N_67 
REMARK       I    between atoms: C4_9  and  O4_55 
REMARK       I    between atoms: C1_11  and  O1_63 
REMARK       I    between atoms: C1_12  and  O4_30 
REMARK       I    between atoms: O1S_13  and  S1_24 
REMARK       I    between atoms: C3_14  and  O3_18 
REMARK       I    between atoms: C1_16  and  O4_29 
REMARK       I    between atoms: C2_19  and  O2_41 
REMARK       I    between atoms: C1_20  and  O4_38 
REMARK       I    between atoms: S2_21  and  O6_47 
REMARK       I    between atoms: O3_23  and  C3_58 
REMARK       I    between atoms: S1_24  and  N_33 
REMARK       I    between atoms: S1_24  and  O2S_37 
REMARK       I    between atoms: S1_24  and  O3S_34 
REMARK       I    between atoms: C4_25  and  O4_30 
REMARK       I    between atoms: C5_28  and  C6_56 
REMARK       I    between atoms: O4_29  and  C4_65 
REMARK       I    between atoms: S_31  and  O2_60 
REMARK       I    between atoms: C2_32  and  O2_60 
REMARK       I    between atoms: N_33  and  C2_46 
REMARK       I    between atoms: C6_35  and  O6_47 
REMARK       I    between atoms: C5_36  and  C6_40 
REMARK       I    between atoms: O4_38  and  C4_45 
REMARK       I    between atoms: C6_40  and  O6_59 
REMARK       I    between atoms: O2_41  and  S_54 
REMARK       I    between atoms: O1S_42  and  S1_53 
REMARK       I    between atoms: O3_43  and  C3_44 
REMARK       I    between atoms: O3S_50  and  S1_53 
REMARK       I    between atoms: O2S_52  and  S1_53 
REMARK       I    between atoms: S1_53  and  N_67 
ROOT
ATOM      1  C5  IDS d   1      22.380 -47.839  38.106  0.00  0.00     0.152 C 
ATOM      2  O2S IDS d   1      24.663 -47.930  42.997  0.00  0.00    -0.572 OA
ATOM      3  C4  IDS d   1      22.047 -47.610  39.583  0.00  0.00     0.097 C 
ATOM      4  C6  IDS d   1      21.373 -48.818  37.492  0.00  0.00     0.206 C 
ATOM      5  C2  IDS d   1      24.497 -47.312  39.999  0.00  0.00     0.134 C 
ATOM      6  C1  IDS d   1      24.720 -47.530  38.498  0.00  0.00     0.161 C 
ATOM      7  O61 IDS d   1      21.816 -49.756  36.791  0.00  0.00    -0.646 OA
ATOM      8  O3S IDS d   1      26.607 -47.590  41.555  0.00  0.00    -0.572 OA
ATOM      9  O2  IDS d   1      24.601 -48.568  40.679  0.00  0.00    -0.244 OA
ATOM     10  O3  IDS d   1      23.042 -45.391  39.745  0.00  0.00    -0.390 OA
ATOM     11  C3  IDS d   1      23.106 -46.729  40.250  0.00  0.00     0.094 C 
ATOM     12  O62 IDS d   1      20.158 -48.622  37.696  0.00  0.00    -0.646 OA
ATOM     13  S   IDS d   1      25.437 -48.483  41.838  0.00  0.00     0.252 S 
ATOM     14  O4  IDS d   1      21.947 -48.861  40.269  0.00  0.00    -0.390 OA
ATOM     15  O5  IDS d   1      23.700 -48.390  37.961  0.00  0.00    -0.340 OA
ATOM     16  O1S IDS d   1      25.937 -49.854  42.186  0.00  0.00    -0.572 OA
ATOM     17  H   IDS d   1      22.332 -46.896  37.604  0.00  0.00     0.104 H 
ATOM     18  H   IDS d   1      21.105 -47.106  39.638  0.00  0.00     0.091 H 
ATOM     19  H   IDS d   1      25.238 -46.630  40.362  0.00  0.00     0.097 H 
ATOM     20  H   IDS d   1      25.678 -47.989  38.377  0.00  0.00     0.133 H 
ATOM     21  H   IDS d   1      22.159 -45.025  39.906  0.00  0.00     0.210 HD
ATOM     22  H   IDS d   1      22.914 -46.704  41.303  0.00  0.00     0.091 H 
ATOM     23  H   IDS d   1      22.798 -49.323  40.224  0.00  0.00     0.210 HD
ATOM     24  S2  SGN d   2      28.340 -48.884  36.866  0.00  0.00     0.251 S 
ATOM     25  C2  SGN d   2      24.351 -45.541  34.145  0.00  0.00     0.081 C 
ATOM     26  O5S SGN d   2      27.969 -50.222  36.301  0.00  0.00    -0.572 OA
ATOM     27  O4S SGN d   2      28.159 -48.906  38.355  0.00  0.00    -0.572 OA
ATOM     28  C3  SGN d   2      23.950 -45.591  35.621  0.00  0.00     0.083 C 
ATOM     29  C1  SGN d   2      25.745 -44.932  33.978  0.00  0.00     0.150 C 
ATOM     30  O3  SGN d   2      22.706 -46.287  35.746  0.00  0.00    -0.391 OA
ATOM     31  C5  SGN d   2      26.406 -45.706  36.163  0.00  0.00     0.091 C 
ATOM     32  O4  SGN d   2      24.714 -46.313  37.800  0.00  0.00    -0.348 OA
ATOM     33  C6  SGN d   2      27.474 -46.555  36.858  0.00  0.00     0.067 C 
ATOM     34  O1S SGN d   2      22.797 -46.782  31.878  0.00  0.00    -0.296 OA
ATOM     35  C4  SGN d   2      25.032 -46.336  36.405  0.00  0.00     0.095 C 
ATOM     36  O6S SGN d   2      29.774 -48.590  36.540  0.00  0.00    -0.572 OA
ATOM     37  O3S SGN d   2      24.574 -45.236  31.174  0.00  0.00    -0.296 OA
ATOM     38  O2S SGN d   2      22.228 -44.539  31.098  0.00  0.00    -0.296 OA
ATOM     39  S1  SGN d   2      23.240 -45.350  31.852  0.00  0.00     0.156 S 
ATOM     40  O6  SGN d   2      27.499 -47.874  36.303  0.00  0.00    -0.254 OA
ATOM     41  N   SGN d   2      23.353 -44.782  33.376  0.00  0.00    -0.210 NA
ATOM     42  O5  SGN d   2      26.692 -45.687  34.754  0.00  0.00    -0.349 OA
ATOM     43  H   SGN d   2      24.385 -46.541  33.767  0.00  0.00     0.076 H 
ATOM     44  H   SGN d   2      23.845 -44.599  36.006  0.00  0.00     0.089 H 
ATOM     45  H   SGN d   2      26.005 -44.966  32.940  0.00  0.00     0.131 H 
ATOM     46  H   SGN d   2      22.802 -47.186  35.396  0.00  0.00     0.210 HD
ATOM     47  H   SGN d   2      26.407 -44.708  36.548  0.00  0.00     0.090 H 
ATOM     48  H   SGN d   2      27.252 -46.616  37.902  0.00  0.00     0.080 H 
ATOM     49  H   SGN d   2      28.431 -46.099  36.712  0.00  0.00     0.080 H 
ATOM     50  H   SGN d   2      22.731 -47.117  30.970  0.00  0.00     0.231 HD
ATOM     51  H   SGN d   2      25.066 -47.351  36.067  0.00  0.00     0.091 H 
ATOM     52  H   SGN d   2      24.506 -45.575  30.268  0.00  0.00     0.231 HD
ATOM     53  H   SGN d   2      22.157 -44.873  30.190  0.00  0.00     0.231 HD
ATOM     54  H   SGN d   2      23.628 -43.800  33.348  0.00  0.00     0.140 HD
ATOM     55  O3  SGN d   4      29.022 -39.123  35.564  0.00  0.00    -0.391 OA
ATOM     56  C5  SGN d   4      26.577 -36.885  33.790  0.00  0.00     0.091 C 
ATOM     57  C1  SGN d   4      28.246 -35.513  34.797  0.00  0.00     0.147 C 
ATOM     58  O1S SGN d   4      29.894 -36.526  38.278  0.00  0.00    -0.296 OA
ATOM     59  S2  SGN d   4      23.137 -35.667  32.857  0.00  0.00     0.251 S 
ATOM     60  S1  SGN d   4      30.524 -35.743  37.163  0.00  0.00     0.156 S 
ATOM     61  C4  SGN d   4      27.093 -38.142  34.492  0.00  0.00     0.095 C 
ATOM     62  O6S SGN d   4      22.818 -35.049  31.527  0.00  0.00    -0.572 OA
ATOM     63  O4  SGN d   4      26.841 -39.297  33.686  0.00  0.00    -0.348 OA
ATOM     64  N   SGN d   4      30.279 -36.522  35.753  0.00  0.00    -0.210 NA
ATOM     65  O3S SGN d   4      29.909 -34.376  37.098  0.00  0.00    -0.296 OA
ATOM     66  C6  SGN d   4      25.067 -37.016  33.596  0.00  0.00     0.067 C 
ATOM     67  O2S SGN d   4      32.000 -35.625  37.410  0.00  0.00    -0.296 OA
ATOM     68  C2  SGN d   4      28.838 -36.715  35.535  0.00  0.00     0.081 C 
ATOM     69  O6  SGN d   4      24.551 -35.845  32.961  0.00  0.00    -0.254 OA
ATOM     70  O4S SGN d   4      22.456 -36.999  32.972  0.00  0.00    -0.572 OA
ATOM     71  C3  SGN d   4      28.592 -38.015  34.768  0.00  0.00     0.083 C 
ATOM     72  O1  SGN d   4      28.889 -35.334  33.532  0.00  0.00    -0.369 OA
ATOM     73  O5  SGN d   4      26.839 -35.731  34.608  0.00  0.00    -0.350 OA
ATOM     74  O5S SGN d   4      22.653 -34.773  33.960  0.00  0.00    -0.572 OA
ATOM     75  H   SGN d   4      28.867 -39.950  35.080  0.00  0.00     0.210 HD
ATOM     76  H   SGN d   4      27.068 -36.774  32.846  0.00  0.00     0.090 H 
ATOM     77  H   SGN d   4      28.403 -34.628  35.377  0.00  0.00     0.131 H 
ATOM     78  H   SGN d   4      30.293 -37.409  38.319  0.00  0.00     0.231 HD
ATOM     79  H   SGN d   4      26.577 -38.250  35.423  0.00  0.00     0.091 H 
ATOM     80  H   SGN d   4      30.741 -37.430  35.782  0.00  0.00     0.140 HD
ATOM     81  H   SGN d   4      28.956 -34.458  36.938  0.00  0.00     0.231 HD
ATOM     82  H   SGN d   4      24.597 -37.138  34.550  0.00  0.00     0.080 H 
ATOM     83  H   SGN d   4      24.864 -37.867  32.981  0.00  0.00     0.080 H 
ATOM     84  H   SGN d   4      32.393 -36.511  37.451  0.00  0.00     0.231 HD
ATOM     85  H   SGN d   4      28.347 -36.791  36.483  0.00  0.00     0.076 H 
ATOM     86  H   SGN d   4      29.137 -38.008  33.846  0.00  0.00     0.089 H 
ATOM     87  H   SGN d   4      28.758 -36.127  32.988  0.00  0.00     0.212 HD
ATOM     88  C1  IDS d   3      25.776 -40.100  34.095  0.00  0.00     0.161 C 
ATOM     89  O61 IDS d   3      26.959 -42.366  37.200  0.00  0.00    -0.646 OA
ATOM     90  O3S IDS d   3      21.728 -41.534  33.714  0.00  0.00    -0.572 OA
ATOM     91  O3  IDS d   3      27.458 -41.421  31.983  0.00  0.00    -0.390 OA
ATOM     92  C5  IDS d   3      27.267 -41.767  34.915  0.00  0.00     0.152 C 
ATOM     93  O4  IDS d   3      25.766 -43.612  34.395  0.00  0.00    -0.348 OA
ATOM     94  S   IDS d   3      22.904 -41.031  32.929  0.00  0.00     0.252 S 
ATOM     95  C2  IDS d   3      25.281 -41.012  32.968  0.00  0.00     0.134 C 
ATOM     96  O2S IDS d   3      22.988 -39.544  33.109  0.00  0.00    -0.572 OA
ATOM     97  O5  IDS d   3      26.181 -40.883  35.230  0.00  0.00    -0.340 OA
ATOM     98  C6  IDS d   3      27.697 -42.474  36.203  0.00  0.00     0.206 C 
ATOM     99  C3  IDS d   3      26.342 -42.056  32.614  0.00  0.00     0.094 C 
ATOM    100  O2  IDS d   3      24.090 -41.670  33.413  0.00  0.00    -0.244 OA
ATOM    101  C4  IDS d   3      26.814 -42.790  33.873  0.00  0.00     0.103 C 
ATOM    102  O62 IDS d   3      28.774 -43.116  36.183  0.00  0.00    -0.646 OA
ATOM    103  O1S IDS d   3      22.724 -41.360  31.476  0.00  0.00    -0.572 OA
ATOM    104  H   IDS d   3      24.960 -39.463  34.366  0.00  0.00     0.133 H 
ATOM    105  H   IDS d   3      27.157 -40.957  31.186  0.00  0.00     0.210 HD
ATOM    106  H   IDS d   3      28.092 -41.218  34.511  0.00  0.00     0.104 H 
ATOM    107  H   IDS d   3      25.084 -40.426  32.095  0.00  0.00     0.097 H 
ATOM    108  H   IDS d   3      25.908 -42.768  31.943  0.00  0.00     0.091 H 
ATOM    109  H   IDS d   3      27.638 -43.425  33.624  0.00  0.00     0.092 H 
ENDROOT
TORSDOF 34
ENDMDL
MODEL 38
REMARK VINA RESULT:      -7.4      4.940      8.718
REMARK  0 active torsions:
REMARK  status: ('A' for Active; 'I' for Inactive)
REMARK       I    between atoms: C5_1  and  C6_10 
REMARK       I    between atoms: S2_2  and  O6_59 
REMARK       I    between atoms: O3_3  and  C3_61 
REMARK       I    between atoms: C5_5  and  C6_35 
REMARK       I    between atoms: C2_6  and  N_67 
REMARK       I    between atoms: C4_9  and  O4_55 
REMARK       I    between atoms: C1_11  and  O1_63 
REMARK       I    between atoms: C1_12  and  O4_30 
REMARK       I    between atoms: O1S_13  and  S1_24 
REMARK       I    between atoms: C3_14  and  O3_18 
REMARK       I    between atoms: C1_16  and  O4_29 
REMARK       I    between atoms: C2_19  and  O2_41 
REMARK       I    between atoms: C1_20  and  O4_38 
REMARK       I    between atoms: S2_21  and  O6_47 
REMARK       I    between atoms: O3_23  and  C3_58 
REMARK       I    between atoms: S1_24  and  N_33 
REMARK       I    between atoms: S1_24  and  O2S_37 
REMARK       I    between atoms: S1_24  and  O3S_34 
REMARK       I    between atoms: C4_25  and  O4_30 
REMARK       I    between atoms: C5_28  and  C6_56 
REMARK       I    between atoms: O4_29  and  C4_65 
REMARK       I    between atoms: S_31  and  O2_60 
REMARK       I    between atoms: C2_32  and  O2_60 
REMARK       I    between atoms: N_33  and  C2_46 
REMARK       I    between atoms: C6_35  and  O6_47 
REMARK       I    between atoms: C5_36  and  C6_40 
REMARK       I    between atoms: O4_38  and  C4_45 
REMARK       I    between atoms: C6_40  and  O6_59 
REMARK       I    between atoms: O2_41  and  S_54 
REMARK       I    between atoms: O1S_42  and  S1_53 
REMARK       I    between atoms: O3_43  and  C3_44 
REMARK       I    between atoms: O3S_50  and  S1_53 
REMARK       I    between atoms: O2S_52  and  S1_53 
REMARK       I    between atoms: S1_53  and  N_67 
ROOT
ATOM      1  C5  IDS d   1      21.083 -36.247  28.611  0.00  0.00     0.152 C 
ATOM      2  O2S IDS d   1      26.372 -35.735  27.658  0.00  0.00    -0.572 OA
ATOM      3  C4  IDS d   1      22.075 -36.053  27.460  0.00  0.00     0.097 C 
ATOM      4  C6  IDS d   1      19.980 -35.185  28.531  0.00  0.00     0.206 C 
ATOM      5  C2  IDS d   1      23.869 -36.914  28.979  0.00  0.00     0.134 C 
ATOM      6  C1  IDS d   1      22.793 -37.094  30.055  0.00  0.00     0.161 C 
ATOM      7  O61 IDS d   1      19.670 -34.579  29.581  0.00  0.00    -0.646 OA
ATOM      8  O3S IDS d   1      26.372 -36.897  29.809  0.00  0.00    -0.572 OA
ATOM      9  O2  IDS d   1      24.465 -35.619  29.117  0.00  0.00    -0.244 OA
ATOM     10  O3  IDS d   1      22.821 -38.371  27.351  0.00  0.00    -0.390 OA
ATOM     11  C3  IDS d   1      23.251 -37.026  27.585  0.00  0.00     0.094 C 
ATOM     12  O62 IDS d   1      19.424 -34.993  27.431  0.00  0.00    -0.646 OA
ATOM     13  S   IDS d   1      25.895 -35.678  29.078  0.00  0.00     0.252 S 
ATOM     14  O4  IDS d   1      22.554 -34.705  27.440  0.00  0.00    -0.390 OA
ATOM     15  O5  IDS d   1      21.745 -36.124  29.881  0.00  0.00    -0.340 OA
ATOM     16  O1S IDS d   1      26.457 -34.455  29.741  0.00  0.00    -0.572 OA
ATOM     17  H   IDS d   1      20.662 -37.227  28.524  0.00  0.00     0.104 H 
ATOM     18  H   IDS d   1      21.565 -36.255  26.542  0.00  0.00     0.091 H 
ATOM     19  H   IDS d   1      24.609 -37.678  29.100  0.00  0.00     0.097 H 
ATOM     20  H   IDS d   1      23.260 -36.952  31.007  0.00  0.00     0.133 H 
ATOM     21  H   IDS d   1      22.430 -38.437  26.466  0.00  0.00     0.210 HD
ATOM     22  H   IDS d   1      23.984 -36.770  26.848  0.00  0.00     0.091 H 
ATOM     23  H   IDS d   1      23.019 -34.515  28.270  0.00  0.00     0.210 HD
ATOM     24  S2  SGN d   2      23.617 -37.168  34.168  0.00  0.00     0.251 S 
ATOM     25  C2  SGN d   2      19.095 -39.794  31.495  0.00  0.00     0.081 C 
ATOM     26  O5S SGN d   2      22.928 -35.933  34.666  0.00  0.00    -0.572 OA
ATOM     27  O4S SGN d   2      24.707 -36.777  33.213  0.00  0.00    -0.572 OA
ATOM     28  C3  SGN d   2      20.042 -39.319  30.392  0.00  0.00     0.083 C 
ATOM     29  C1  SGN d   2      19.795 -40.782  32.431  0.00  0.00     0.150 C 
ATOM     30  O3  SGN d   2      19.396 -38.300  29.625  0.00  0.00    -0.391 OA
ATOM     31  C5  SGN d   2      21.936 -39.768  31.989  0.00  0.00     0.091 C 
ATOM     32  O4  SGN d   2      22.241 -38.383  30.013  0.00  0.00    -0.348 OA
ATOM     33  C6  SGN d   2      23.121 -39.115  32.707  0.00  0.00     0.067 C 
ATOM     34  O1S SGN d   2      16.334 -38.692  32.009  0.00  0.00    -0.296 OA
ATOM     35  C4  SGN d   2      21.308 -38.748  31.035  0.00  0.00     0.095 C 
ATOM     36  O6S SGN d   2      24.211 -37.907  35.331  0.00  0.00    -0.572 OA
ATOM     37  O3S SGN d   2      16.842 -40.779  33.205  0.00  0.00    -0.296 OA
ATOM     38  O2S SGN d   2      15.393 -40.807  31.230  0.00  0.00    -0.296 OA
ATOM     39  S1  SGN d   2      16.592 -40.162  31.860  0.00  0.00     0.156 S 
ATOM     40  O6  SGN d   2      22.675 -38.005  33.492  0.00  0.00    -0.254 OA
ATOM     41  N   SGN d   2      17.891 -40.397  30.902  0.00  0.00    -0.210 NA
ATOM     42  O5  SGN d   2      20.974 -40.167  32.979  0.00  0.00    -0.349 OA
ATOM     43  H   SGN d   2      18.800 -38.947  32.079  0.00  0.00     0.076 H 
ATOM     44  H   SGN d   2      20.300 -40.138  29.754  0.00  0.00     0.089 H 
ATOM     45  H   SGN d   2      19.115 -41.045  33.214  0.00  0.00     0.131 H 
ATOM     46  H   SGN d   2      19.162 -37.558  30.204  0.00  0.00     0.210 HD
ATOM     47  H   SGN d   2      22.258 -40.621  31.429  0.00  0.00     0.090 H 
ATOM     48  H   SGN d   2      23.828 -38.772  31.981  0.00  0.00     0.080 H 
ATOM     49  H   SGN d   2      23.578 -39.836  33.352  0.00  0.00     0.080 H 
ATOM     50  H   SGN d   2      15.561 -38.556  32.579  0.00  0.00     0.231 HD
ATOM     51  H   SGN d   2      21.046 -37.879  31.602  0.00  0.00     0.091 H 
ATOM     52  H   SGN d   2      16.068 -40.638  33.774  0.00  0.00     0.231 HD
ATOM     53  H   SGN d   2      14.617 -40.669  31.796  0.00  0.00     0.231 HD
ATOM     54  H   SGN d   2      18.042 -41.399  30.784  0.00  0.00     0.140 HD
ATOM     55  O3  SGN d   4      23.081 -46.784  32.006  0.00  0.00    -0.391 OA
ATOM     56  C5  SGN d   4      20.225 -48.594  30.361  0.00  0.00     0.091 C 
ATOM     57  C1  SGN d   4      22.042 -50.121  30.587  0.00  0.00     0.147 C 
ATOM     58  O1S SGN d   4      25.810 -48.874  30.256  0.00  0.00    -0.296 OA
ATOM     59  S2  SGN d   4      17.444 -48.993  27.853  0.00  0.00     0.251 S 
ATOM     60  S1  SGN d   4      25.297 -50.020  31.078  0.00  0.00     0.156 S 
ATOM     61  C4  SGN d   4      21.084 -47.405  30.800  0.00  0.00     0.095 C 
ATOM     62  O6S SGN d   4      16.191 -49.771  28.134  0.00  0.00    -0.572 OA
ATOM     63  O4  SGN d   4      20.273 -46.427  31.458  0.00  0.00    -0.348 OA
ATOM     64  N   SGN d   4      24.008 -49.526  31.945  0.00  0.00    -0.210 NA
ATOM     65  O3S SGN d   4      24.893 -51.146  30.173  0.00  0.00    -0.296 OA
ATOM     66  C6  SGN d   4      19.171 -48.099  29.372  0.00  0.00     0.067 C 
ATOM     67  O2S SGN d   4      26.374 -50.482  32.016  0.00  0.00    -0.296 OA
ATOM     68  C2  SGN d   4      22.975 -48.997  31.044  0.00  0.00     0.081 C 
ATOM     69  O6  SGN d   4      18.366 -49.191  28.926  0.00  0.00    -0.254 OA
ATOM     70  O4S SGN d   4      17.117 -47.533  27.738  0.00  0.00    -0.572 OA
ATOM     71  C3  SGN d   4      22.197 -47.876  31.736  0.00  0.00     0.083 C 
ATOM     72  O1  SGN d   4      21.409 -50.736  31.712  0.00  0.00    -0.369 OA
ATOM     73  O5  SGN d   4      21.052 -49.571  29.704  0.00  0.00    -0.350 OA
ATOM     74  O5S SGN d   4      18.053 -49.462  26.564  0.00  0.00    -0.572 OA
ATOM     75  H   SGN d   4      22.591 -46.071  32.445  0.00  0.00     0.210 HD
ATOM     76  H   SGN d   4      19.759 -49.035  31.217  0.00  0.00     0.090 H 
ATOM     77  H   SGN d   4      22.612 -50.868  30.076  0.00  0.00     0.131 H 
ATOM     78  H   SGN d   4      26.070 -48.146  30.843  0.00  0.00     0.231 HD
ATOM     79  H   SGN d   4      21.524 -46.963  29.931  0.00  0.00     0.091 H 
ATOM     80  H   SGN d   4      24.297 -48.795  32.595  0.00  0.00     0.140 HD
ATOM     81  H   SGN d   4      24.197 -50.843  29.569  0.00  0.00     0.231 HD
ATOM     82  H   SGN d   4      19.658 -47.651  28.531  0.00  0.00     0.080 H 
ATOM     83  H   SGN d   4      18.546 -47.378  29.856  0.00  0.00     0.080 H 
ATOM     84  H   SGN d   4      26.631 -49.750  32.599  0.00  0.00     0.231 HD
ATOM     85  H   SGN d   4      23.445 -48.587  30.174  0.00  0.00     0.076 H 
ATOM     86  H   SGN d   4      21.780 -48.231  32.657  0.00  0.00     0.089 H 
ATOM     87  H   SGN d   4      20.885 -50.074  32.190  0.00  0.00     0.212 HD
ATOM     88  C1  IDS d   3      19.960 -45.295  30.706  0.00  0.00     0.161 C 
ATOM     89  O61 IDS d   3      23.135 -42.827  30.668  0.00  0.00    -0.646 OA
ATOM     90  O3S IDS d   3      17.232 -42.924  28.356  0.00  0.00    -0.572 OA
ATOM     91  O3  IDS d   3      19.247 -44.972  33.608  0.00  0.00    -0.390 OA
ATOM     92  C5  IDS d   3      21.488 -43.964  31.959  0.00  0.00     0.152 C 
ATOM     93  O4  IDS d   3      20.157 -41.936  31.755  0.00  0.00    -0.348 OA
ATOM     94  S   IDS d   3      17.305 -43.886  29.504  0.00  0.00     0.252 S 
ATOM     95  C2  IDS d   3      18.750 -44.547  31.274  0.00  0.00     0.134 C 
ATOM     96  O2S IDS d   3      17.516 -45.264  28.951  0.00  0.00    -0.572 OA
ATOM     97  O5  IDS d   3      21.105 -44.428  30.656  0.00  0.00    -0.340 OA
ATOM     98  C6  IDS d   3      22.772 -43.142  31.817  0.00  0.00     0.206 C 
ATOM     99  C3  IDS d   3      19.085 -43.935  32.636  0.00  0.00     0.094 C 
ATOM    100  O2  IDS d   3      18.392 -43.508  30.355  0.00  0.00    -0.244 OA
ATOM    101  C4  IDS d   3      20.370 -43.106  32.551  0.00  0.00     0.103 C 
ATOM    102  O62 IDS d   3      23.389 -42.840  32.865  0.00  0.00    -0.646 OA
ATOM    103  O1S IDS d   3      16.027 -43.841  30.288  0.00  0.00    -0.572 OA
ATOM    104  H   IDS d   3      19.699 -45.610  29.717  0.00  0.00     0.133 H 
ATOM    105  H   IDS d   3      18.432 -45.496  33.661  0.00  0.00     0.210 HD
ATOM    106  H   IDS d   3      21.659 -44.792  32.616  0.00  0.00     0.104 H 
ATOM    107  H   IDS d   3      17.936 -45.230  31.405  0.00  0.00     0.097 H 
ATOM    108  H   IDS d   3      18.279 -43.294  32.928  0.00  0.00     0.091 H 
ATOM    109  H   IDS d   3      20.652 -42.790  33.533  0.00  0.00     0.092 H 
ENDROOT
TORSDOF 34
ENDMDL
MODEL 39
REMARK VINA RESULT:      -7.4      5.650     12.907
REMARK  0 active torsions:
REMARK  status: ('A' for Active; 'I' for Inactive)
REMARK       I    between atoms: C5_1  and  C6_10 
REMARK       I    between atoms: S2_2  and  O6_59 
REMARK       I    between atoms: O3_3  and  C3_61 
REMARK       I    between atoms: C5_5  and  C6_35 
REMARK       I    between atoms: C2_6  and  N_67 
REMARK       I    between atoms: C4_9  and  O4_55 
REMARK       I    between atoms: C1_11  and  O1_63 
REMARK       I    between atoms: C1_12  and  O4_30 
REMARK       I    between atoms: O1S_13  and  S1_24 
REMARK       I    between atoms: C3_14  and  O3_18 
REMARK       I    between atoms: C1_16  and  O4_29 
REMARK       I    between atoms: C2_19  and  O2_41 
REMARK       I    between atoms: C1_20  and  O4_38 
REMARK       I    between atoms: S2_21  and  O6_47 
REMARK       I    between atoms: O3_23  and  C3_58 
REMARK       I    between atoms: S1_24  and  N_33 
REMARK       I    between atoms: S1_24  and  O2S_37 
REMARK       I    between atoms: S1_24  and  O3S_34 
REMARK       I    between atoms: C4_25  and  O4_30 
REMARK       I    between atoms: C5_28  and  C6_56 
REMARK       I    between atoms: O4_29  and  C4_65 
REMARK       I    between atoms: S_31  and  O2_60 
REMARK       I    between atoms: C2_32  and  O2_60 
REMARK       I    between atoms: N_33  and  C2_46 
REMARK       I    between atoms: C6_35  and  O6_47 
REMARK       I    between atoms: C5_36  and  C6_40 
REMARK       I    between atoms: O4_38  and  C4_45 
REMARK       I    between atoms: C6_40  and  O6_59 
REMARK       I    between atoms: O2_41  and  S_54 
REMARK       I    between atoms: O1S_42  and  S1_53 
REMARK       I    between atoms: O3_43  and  C3_44 
REMARK       I    between atoms: O3S_50  and  S1_53 
REMARK       I    between atoms: O2S_52  and  S1_53 
REMARK       I    between atoms: S1_53  and  N_67 
ROOT
ATOM      1  C5  IDS d   1      20.637 -47.358  34.999  0.00  0.00     0.152 C 
ATOM      2  O2S IDS d   1      25.997 -47.755  34.489  0.00  0.00    -0.572 OA
ATOM      3  C4  IDS d   1      21.930 -47.162  35.797  0.00  0.00     0.097 C 
ATOM      4  C6  IDS d   1      19.673 -48.255  35.783  0.00  0.00     0.206 C 
ATOM      5  C2  IDS d   1      23.151 -47.022  33.616  0.00  0.00     0.134 C 
ATOM      6  C1  IDS d   1      21.800 -47.198  32.913  0.00  0.00     0.161 C 
ATOM      7  O61 IDS d   1      19.110 -49.191  35.171  0.00  0.00    -0.646 OA
ATOM      8  O3S IDS d   1      25.303 -47.476  32.162  0.00  0.00    -0.572 OA
ATOM      9  O2  IDS d   1      23.760 -48.305  33.799  0.00  0.00    -0.244 OA
ATOM     10  O3  IDS d   1      22.531 -45.012  34.819  0.00  0.00    -0.390 OA
ATOM     11  C3  IDS d   1      22.957 -46.368  34.985  0.00  0.00     0.094 C 
ATOM     12  O62 IDS d   1      19.472 -47.996  36.987  0.00  0.00    -0.646 OA
ATOM     13  S   IDS d   1      25.134 -48.310  33.396  0.00  0.00     0.252 S 
ATOM     14  O4  IDS d   1      22.477 -48.430  36.174  0.00  0.00    -0.390 OA
ATOM     15  O5  IDS d   1      20.910 -47.978  33.731  0.00  0.00    -0.340 OA
ATOM     16  O1S IDS d   1      25.555 -49.719  33.099  0.00  0.00    -0.572 OA
ATOM     17  H   IDS d   1      20.199 -46.396  34.836  0.00  0.00     0.104 H 
ATOM     18  H   IDS d   1      21.696 -46.607  36.681  0.00  0.00     0.091 H 
ATOM     19  H   IDS d   1      23.775 -46.397  33.011  0.00  0.00     0.097 H 
ATOM     20  H   IDS d   1      21.980 -47.707  31.990  0.00  0.00     0.133 H 
ATOM     21  H   IDS d   1      22.409 -44.602  35.690  0.00  0.00     0.210 HD
ATOM     22  H   IDS d   1      23.886 -46.370  35.517  0.00  0.00     0.091 H 
ATOM     23  H   IDS d   1      22.692 -48.938  35.377  0.00  0.00     0.210 HD
ATOM     24  S2  SGN d   2      21.394 -48.700  29.017  0.00  0.00     0.251 S 
ATOM     25  C2  SGN d   2      17.684 -45.037  31.721  0.00  0.00     0.081 C 
ATOM     26  O5S SGN d   2      20.668 -49.993  29.235  0.00  0.00    -0.572 OA
ATOM     27  O4S SGN d   2      22.736 -48.764  29.687  0.00  0.00    -0.572 OA
ATOM     28  C3  SGN d   2      18.938 -45.117  32.594  0.00  0.00     0.083 C 
ATOM     29  C1  SGN d   2      18.021 -44.504  30.326  0.00  0.00     0.150 C 
ATOM     30  O3  SGN d   2      18.605 -45.743  33.836  0.00  0.00    -0.391 OA
ATOM     31  C5  SGN d   2      20.257 -45.392  30.468  0.00  0.00     0.091 C 
ATOM     32  O4  SGN d   2      21.206 -45.959  32.634  0.00  0.00    -0.348 OA
ATOM     33  C6  SGN d   2      21.222 -46.326  29.731  0.00  0.00     0.067 C 
ATOM     34  O1S SGN d   2      14.967 -46.105  32.479  0.00  0.00    -0.296 OA
ATOM     35  C4  SGN d   2      19.996 -45.950  31.870  0.00  0.00     0.095 C 
ATOM     36  O6S SGN d   2      21.579 -48.478  27.545  0.00  0.00    -0.572 OA
ATOM     37  O3S SGN d   2      14.976 -44.640  30.504  0.00  0.00    -0.296 OA
ATOM     38  O2S SGN d   2      14.162 -43.806  32.659  0.00  0.00    -0.296 OA
ATOM     39  S1  SGN d   2      15.165 -44.700  31.992  0.00  0.00     0.156 S 
ATOM     40  O6  SGN d   2      20.637 -47.624  29.578  0.00  0.00    -0.254 OA
ATOM     41  N   SGN d   2      16.668 -44.195  32.372  0.00  0.00    -0.210 NA
ATOM     42  O5  SGN d   2      19.027 -45.340  29.727  0.00  0.00    -0.349 OA
ATOM     43  H   SGN d   2      17.286 -46.023  31.605  0.00  0.00     0.076 H 
ATOM     44  H   SGN d   2      19.318 -44.134  32.779  0.00  0.00     0.089 H 
ATOM     45  H   SGN d   2      17.129 -44.516  29.736  0.00  0.00     0.131 H 
ATOM     46  H   SGN d   2      18.261 -46.634  33.667  0.00  0.00     0.210 HD
ATOM     47  H   SGN d   2      20.673 -44.410  30.553  0.00  0.00     0.090 H 
ATOM     48  H   SGN d   2      22.129 -46.411  30.292  0.00  0.00     0.080 H 
ATOM     49  H   SGN d   2      21.427 -45.921  28.762  0.00  0.00     0.080 H 
ATOM     50  H   SGN d   2      14.072 -46.402  32.251  0.00  0.00     0.231 HD
ATOM     51  H   SGN d   2      19.636 -46.953  31.767  0.00  0.00     0.091 H 
ATOM     52  H   SGN d   2      14.082 -44.942  30.280  0.00  0.00     0.231 HD
ATOM     53  H   SGN d   2      13.266 -44.103  32.435  0.00  0.00     0.231 HD
ATOM     54  H   SGN d   2      16.785 -43.230  32.061  0.00  0.00     0.140 HD
ATOM     55  O3  SGN d   4      20.912 -38.954  27.525  0.00  0.00    -0.391 OA
ATOM     56  C5  SGN d   4      18.547 -36.516  29.139  0.00  0.00     0.091 C 
ATOM     57  C1  SGN d   4      20.122 -35.280  27.846  0.00  0.00     0.147 C 
ATOM     58  O1S SGN d   4      23.894 -36.510  27.502  0.00  0.00    -0.296 OA
ATOM     59  S2  SGN d   4      16.590 -35.070  32.014  0.00  0.00     0.251 S 
ATOM     60  S1  SGN d   4      23.095 -35.725  26.502  0.00  0.00     0.156 S 
ATOM     61  C4  SGN d   4      19.313 -37.826  28.941  0.00  0.00     0.095 C 
ATOM     62  O6S SGN d   4      15.264 -34.387  31.843  0.00  0.00    -0.572 OA
ATOM     63  O4  SGN d   4      18.409 -38.935  28.958  0.00  0.00    -0.348 OA
ATOM     64  N   SGN d   4      21.644 -36.438  26.295  0.00  0.00    -0.210 NA
ATOM     65  O3S SGN d   4      22.901 -34.324  27.002  0.00  0.00    -0.296 OA
ATOM     66  C6  SGN d   4      17.856 -36.553  30.501  0.00  0.00     0.067 C 
ATOM     67  O2S SGN d   4      23.824 -35.702  25.190  0.00  0.00    -0.296 OA
ATOM     68  C2  SGN d   4      20.951 -36.540  27.587  0.00  0.00     0.081 C 
ATOM     69  O6  SGN d   4      17.149 -35.333  30.725  0.00  0.00    -0.254 OA
ATOM     70  O4S SGN d   4      16.402 -36.364  32.750  0.00  0.00    -0.572 OA
ATOM     71  C3  SGN d   4      20.077 -37.796  27.616  0.00  0.00     0.083 C 
ATOM     72  O1  SGN d   4      19.153 -35.094  26.810  0.00  0.00    -0.369 OA
ATOM     73  O5  SGN d   4      19.465 -35.410  29.117  0.00  0.00    -0.350 OA
ATOM     74  O5S SGN d   4      17.516 -34.189  32.800  0.00  0.00    -0.572 OA
ATOM     75  H   SGN d   4      20.360 -39.752  27.544  0.00  0.00     0.210 HD
ATOM     76  H   SGN d   4      17.826 -36.401  28.356  0.00  0.00     0.090 H 
ATOM     77  H   SGN d   4      20.768 -34.427  27.855  0.00  0.00     0.131 H 
ATOM     78  H   SGN d   4      24.018 -37.416  27.178  0.00  0.00     0.231 HD
ATOM     79  H   SGN d   4      20.013 -37.937  29.743  0.00  0.00     0.091 H 
ATOM     80  H   SGN d   4      21.777 -37.372  25.908  0.00  0.00     0.140 HD
ATOM     81  H   SGN d   4      22.430 -34.345  27.849  0.00  0.00     0.231 HD
ATOM     82  H   SGN d   4      18.592 -36.682  31.268  0.00  0.00     0.080 H 
ATOM     83  H   SGN d   4      17.164 -37.369  30.522  0.00  0.00     0.080 H 
ATOM     84  H   SGN d   4      23.946 -36.610  24.872  0.00  0.00     0.231 HD
ATOM     85  H   SGN d   4      21.676 -36.621  28.369  0.00  0.00     0.076 H 
ATOM     86  H   SGN d   4      19.390 -37.787  26.795  0.00  0.00     0.089 H 
ATOM     87  H   SGN d   4      18.556 -35.858  26.785  0.00  0.00     0.212 HD
ATOM     88  C1  IDS d   3      18.398 -39.689  30.132  0.00  0.00     0.161 C 
ATOM     89  O61 IDS d   3      21.594 -42.129  30.153  0.00  0.00    -0.646 OA
ATOM     90  O3S IDS d   3      16.619 -40.872  33.876  0.00  0.00    -0.572 OA
ATOM     91  O3  IDS d   3      16.897 -41.029  27.898  0.00  0.00    -0.390 OA
ATOM     92  C5  IDS d   3      19.578 -41.468  29.073  0.00  0.00     0.152 C 
ATOM     93  O4  IDS d   3      18.491 -43.203  30.390  0.00  0.00    -0.348 OA
ATOM     94  S   IDS d   3      16.297 -40.410  32.485  0.00  0.00     0.252 S 
ATOM     95  C2  IDS d   3      17.124 -40.530  30.259  0.00  0.00     0.134 C 
ATOM     96  O2S IDS d   3      16.573 -38.938  32.403  0.00  0.00    -0.572 OA
ATOM     97  O5  IDS d   3      19.560 -40.534  30.163  0.00  0.00    -0.340 OA
ATOM     98  C6  IDS d   3      20.896 -42.244  29.129  0.00  0.00     0.206 C 
ATOM     99  C3  IDS d   3      17.088 -41.620  29.187  0.00  0.00     0.094 C 
ATOM    100  O2  IDS d   3      17.112 -41.134  31.558  0.00  0.00    -0.244 OA
ATOM    101  C4  IDS d   3      18.391 -42.425  29.194  0.00  0.00     0.103 C 
ATOM    102  O62 IDS d   3      21.201 -42.946  28.136  0.00  0.00    -0.646 OA
ATOM    103  O1S IDS d   3      14.851 -40.676  32.183  0.00  0.00    -0.572 OA
ATOM    104  H   IDS d   3      18.415 -39.016  30.963  0.00  0.00     0.133 H 
ATOM    105  H   IDS d   3      16.071 -40.520  27.895  0.00  0.00     0.210 HD
ATOM    106  H   IDS d   3      19.500 -40.953  28.138  0.00  0.00     0.104 H 
ATOM    107  H   IDS d   3      16.267 -39.903  30.128  0.00  0.00     0.097 H 
ATOM    108  H   IDS d   3      16.274 -42.281  29.401  0.00  0.00     0.091 H 
ATOM    109  H   IDS d   3      18.397 -43.097  28.362  0.00  0.00     0.092 H 
ENDROOT
TORSDOF 34
ENDMDL
MODEL 40
REMARK VINA RESULT:      -7.3      3.845     12.053
REMARK  0 active torsions:
REMARK  status: ('A' for Active; 'I' for Inactive)
REMARK       I    between atoms: C5_1  and  C6_10 
REMARK       I    between atoms: S2_2  and  O6_59 
REMARK       I    between atoms: O3_3  and  C3_61 
REMARK       I    between atoms: C5_5  and  C6_35 
REMARK       I    between atoms: C2_6  and  N_67 
REMARK       I    between atoms: C4_9  and  O4_55 
REMARK       I    between atoms: C1_11  and  O1_63 
REMARK       I    between atoms: C1_12  and  O4_30 
REMARK       I    between atoms: O1S_13  and  S1_24 
REMARK       I    between atoms: C3_14  and  O3_18 
REMARK       I    between atoms: C1_16  and  O4_29 
REMARK       I    between atoms: C2_19  and  O2_41 
REMARK       I    between atoms: C1_20  and  O4_38 
REMARK       I    between atoms: S2_21  and  O6_47 
REMARK       I    between atoms: O3_23  and  C3_58 
REMARK       I    between atoms: S1_24  and  N_33 
REMARK       I    between atoms: S1_24  and  O2S_37 
REMARK       I    between atoms: S1_24  and  O3S_34 
REMARK       I    between atoms: C4_25  and  O4_30 
REMARK       I    between atoms: C5_28  and  C6_56 
REMARK       I    between atoms: O4_29  and  C4_65 
REMARK       I    between atoms: S_31  and  O2_60 
REMARK       I    between atoms: C2_32  and  O2_60 
REMARK       I    between atoms: N_33  and  C2_46 
REMARK       I    between atoms: C6_35  and  O6_47 
REMARK       I    between atoms: C5_36  and  C6_40 
REMARK       I    between atoms: O4_38  and  C4_45 
REMARK       I    between atoms: C6_40  and  O6_59 
REMARK       I    between atoms: O2_41  and  S_54 
REMARK       I    between atoms: O1S_42  and  S1_53 
REMARK       I    between atoms: O3_43  and  C3_44 
REMARK       I    between atoms: O3S_50  and  S1_53 
REMARK       I    between atoms: O2S_52  and  S1_53 
REMARK       I    between atoms: S1_53  and  N_67 
ROOT
ATOM      1  C5  IDS d   1      21.777 -48.632  39.475  0.00  0.00     0.152 C 
ATOM      2  O2S IDS d   1      26.307 -46.799  41.769  0.00  0.00    -0.572 OA
ATOM      3  C4  IDS d   1      22.263 -47.847  40.697  0.00  0.00     0.097 C 
ATOM      4  C6  IDS d   1      20.863 -49.779  39.923  0.00  0.00     0.206 C 
ATOM      5  C2  IDS d   1      24.389 -47.398  39.453  0.00  0.00     0.134 C 
ATOM      6  C1  IDS d   1      23.798 -48.182  38.276  0.00  0.00     0.161 C 
ATOM      7  O61 IDS d   1      21.057 -50.913  39.430  0.00  0.00    -0.646 OA
ATOM      8  O3S IDS d   1      27.000 -47.037  39.436  0.00  0.00    -0.572 OA
ATOM      9  O2  IDS d   1      25.140 -48.289  40.285  0.00  0.00    -0.244 OA
ATOM     10  O3  IDS d   1      22.628 -45.736  39.537  0.00  0.00    -0.390 OA
ATOM     11  C3  IDS d   1      23.271 -46.771  40.288  0.00  0.00     0.094 C 
ATOM     12  O62 IDS d   1      19.953 -49.525  40.737  0.00  0.00    -0.646 OA
ATOM     13  S   IDS d   1      26.426 -47.756  40.620  0.00  0.00     0.252 S 
ATOM     14  O4  IDS d   1      22.853 -48.734  41.654  0.00  0.00    -0.390 OA
ATOM     15  O5  IDS d   1      22.888 -49.189  38.752  0.00  0.00    -0.340 OA
ATOM     16  O1S IDS d   1      27.341 -48.880  41.004  0.00  0.00    -0.572 OA
ATOM     17  H   IDS d   1      21.242 -47.959  38.839  0.00  0.00     0.104 H 
ATOM     18  H   IDS d   1      21.418 -47.367  41.143  0.00  0.00     0.091 H 
ATOM     19  H   IDS d   1      25.021 -46.625  39.070  0.00  0.00     0.097 H 
ATOM     20  H   IDS d   1      24.610 -48.647  37.758  0.00  0.00     0.133 H 
ATOM     21  H   IDS d   1      21.920 -45.341  40.069  0.00  0.00     0.210 HD
ATOM     22  H   IDS d   1      23.687 -46.339  41.175  0.00  0.00     0.091 H 
ATOM     23  H   IDS d   1      23.621 -49.172  41.256  0.00  0.00     0.210 HD
ATOM     24  S2  SGN d   2      26.133 -50.045  35.330  0.00  0.00     0.251 S 
ATOM     25  C2  SGN d   2      20.652 -48.047  34.654  0.00  0.00     0.081 C 
ATOM     26  O5S SGN d   2      25.841 -51.500  35.547  0.00  0.00    -0.572 OA
ATOM     27  O4S SGN d   2      26.807 -49.487  36.549  0.00  0.00    -0.572 OA
ATOM     28  C3  SGN d   2      21.149 -47.521  36.002  0.00  0.00     0.083 C 
ATOM     29  C1  SGN d   2      21.537 -47.544  33.510  0.00  0.00     0.150 C 
ATOM     30  O3  SGN d   2      20.382 -48.119  37.050  0.00  0.00    -0.391 OA
ATOM     31  C5  SGN d   2      23.445 -47.403  34.976  0.00  0.00     0.091 C 
ATOM     32  O4  SGN d   2      23.125 -47.333  37.386  0.00  0.00    -0.348 OA
ATOM     33  C6  SGN d   2      24.884 -47.909  35.118  0.00  0.00     0.067 C 
ATOM     34  O1S SGN d   2      18.456 -50.082  34.284  0.00  0.00    -0.296 OA
ATOM     35  C4  SGN d   2      22.622 -47.896  36.170  0.00  0.00     0.095 C 
ATOM     36  O6S SGN d   2      27.037 -49.894  34.143  0.00  0.00    -0.572 OA
ATOM     37  O3S SGN d   2      19.134 -48.922  32.225  0.00  0.00    -0.296 OA
ATOM     38  O2S SGN d   2      17.043 -48.322  33.350  0.00  0.00    -0.296 OA
ATOM     39  S1  SGN d   2      18.460 -48.770  33.557  0.00  0.00     0.156 S 
ATOM     40  O6  SGN d   2      24.911 -49.339  35.101  0.00  0.00    -0.254 OA
ATOM     41  N   SGN d   2      19.250 -47.653  34.444  0.00  0.00    -0.210 NA
ATOM     42  O5  SGN d   2      22.900 -47.932  33.756  0.00  0.00    -0.349 OA
ATOM     43  H   SGN d   2      20.708 -49.115  34.664  0.00  0.00     0.076 H 
ATOM     44  H   SGN d   2      21.041 -46.458  36.042  0.00  0.00     0.089 H 
ATOM     45  H   SGN d   2      21.186 -47.978  32.597  0.00  0.00     0.131 H 
ATOM     46  H   SGN d   2      20.480 -49.084  37.013  0.00  0.00     0.210 HD
ATOM     47  H   SGN d   2      23.421 -46.333  34.951  0.00  0.00     0.090 H 
ATOM     48  H   SGN d   2      25.291 -47.559  36.043  0.00  0.00     0.080 H 
ATOM     49  H   SGN d   2      25.465 -47.540  34.299  0.00  0.00     0.080 H 
ATOM     50  H   SGN d   2      17.986 -50.744  33.753  0.00  0.00     0.231 HD
ATOM     51  H   SGN d   2      22.705 -48.962  36.213  0.00  0.00     0.091 H 
ATOM     52  H   SGN d   2      18.664 -49.588  31.698  0.00  0.00     0.231 HD
ATOM     53  H   SGN d   2      16.569 -48.984  32.822  0.00  0.00     0.231 HD
ATOM     54  H   SGN d   2      19.224 -46.758  33.954  0.00  0.00     0.140 HD
ATOM     55  O3  SGN d   4      23.666 -41.558  30.935  0.00  0.00    -0.391 OA
ATOM     56  C5  SGN d   4      20.204 -40.201  30.382  0.00  0.00     0.091 C 
ATOM     57  C1  SGN d   4      21.772 -38.536  29.710  0.00  0.00     0.147 C 
ATOM     58  O1S SGN d   4      25.238 -38.105  31.622  0.00  0.00    -0.296 OA
ATOM     59  S2  SGN d   4      16.643 -39.461  31.363  0.00  0.00     0.251 S 
ATOM     60  S1  SGN d   4      24.950 -37.814  30.178  0.00  0.00     0.156 S 
ATOM     61  C4  SGN d   4      21.299 -41.083  30.985  0.00  0.00     0.095 C 
ATOM     62  O6S SGN d   4      15.514 -39.411  30.376  0.00  0.00    -0.572 OA
ATOM     63  O4  SGN d   4      20.928 -42.462  30.896  0.00  0.00    -0.348 OA
ATOM     64  N   SGN d   4      24.165 -39.082  29.520  0.00  0.00    -0.210 NA
ATOM     65  O3S SGN d   4      24.098 -36.584  30.073  0.00  0.00    -0.296 OA
ATOM     66  C6  SGN d   4      18.916 -40.405  31.179  0.00  0.00     0.067 C 
ATOM     67  O2S SGN d   4      26.243 -37.601  29.445  0.00  0.00    -0.296 OA
ATOM     68  C2  SGN d   4      22.934 -39.352  30.277  0.00  0.00     0.081 C 
ATOM     69  O6  SGN d   4      17.878 -39.577  30.653  0.00  0.00    -0.254 OA
ATOM     70  O4S SGN d   4      16.473 -40.647  32.266  0.00  0.00    -0.572 OA
ATOM     71  C3  SGN d   4      22.624 -40.851  30.257  0.00  0.00     0.083 C 
ATOM     72  O1  SGN d   4      21.554 -38.861  28.334  0.00  0.00    -0.369 OA
ATOM     73  O5  SGN d   4      20.590 -38.818  30.475  0.00  0.00    -0.350 OA
ATOM     74  O5S SGN d   4      16.647 -38.210  32.191  0.00  0.00    -0.572 OA
ATOM     75  H   SGN d   4      23.472 -42.509  30.924  0.00  0.00     0.210 HD
ATOM     76  H   SGN d   4      20.056 -40.464  29.356  0.00  0.00     0.090 H 
ATOM     77  H   SGN d   4      22.006 -37.494  29.772  0.00  0.00     0.131 H 
ATOM     78  H   SGN d   4      25.789 -38.900  31.689  0.00  0.00     0.231 HD
ATOM     79  H   SGN d   4      21.419 -40.822  32.016  0.00  0.00     0.091 H 
ATOM     80  H   SGN d   4      24.767 -39.905  29.548  0.00  0.00     0.140 HD
ATOM     81  H   SGN d   4      23.264 -36.727  30.547  0.00  0.00     0.231 HD
ATOM     82  H   SGN d   4      19.089 -40.148  32.204  0.00  0.00     0.080 H 
ATOM     83  H   SGN d   4      18.617 -41.430  31.107  0.00  0.00     0.080 H 
ATOM     84  H   SGN d   4      26.790 -38.400  29.516  0.00  0.00     0.231 HD
ATOM     85  H   SGN d   4      23.077 -39.056  31.295  0.00  0.00     0.076 H 
ATOM     86  H   SGN d   4      22.556 -41.199  29.247  0.00  0.00     0.089 H 
ATOM     87  H   SGN d   4      21.339 -39.804  28.255  0.00  0.00     0.212 HD
ATOM     88  C1  IDS d   3      20.486 -43.048  32.082  0.00  0.00     0.161 C 
ATOM     89  O61 IDS d   3      23.668 -43.919  34.381  0.00  0.00    -0.646 OA
ATOM     90  O3S IDS d   3      17.364 -44.538  34.655  0.00  0.00    -0.572 OA
ATOM     91  O3  IDS d   3      20.993 -45.078  29.924  0.00  0.00    -0.390 OA
ATOM     92  C5  IDS d   3      22.526 -44.256  32.318  0.00  0.00     0.152 C 
ATOM     93  O4  IDS d   3      21.470 -46.166  33.398  0.00  0.00    -0.348 OA
ATOM     94  S   IDS d   3      17.760 -44.374  33.217  0.00  0.00     0.252 S 
ATOM     95  C2  IDS d   3      19.687 -44.329  31.824  0.00  0.00     0.134 C 
ATOM     96  O2S IDS d   3      17.576 -42.935  32.840  0.00  0.00    -0.572 OA
ATOM     97  O5  IDS d   3      21.616 -43.324  32.924  0.00  0.00    -0.340 OA
ATOM     98  C6  IDS d   3      23.742 -44.403  33.236  0.00  0.00     0.206 C 
ATOM     99  C3  IDS d   3      20.592 -45.423  31.254  0.00  0.00     0.094 C 
ATOM    100  O2  IDS d   3      19.128 -44.768  33.067  0.00  0.00    -0.244 OA
ATOM    101  C4  IDS d   3      21.833 -45.606  32.133  0.00  0.00     0.103 C 
ATOM    102  O62 IDS d   3      24.747 -44.996  32.779  0.00  0.00    -0.646 OA
ATOM    103  O1S IDS d   3      16.899 -45.244  32.350  0.00  0.00    -0.572 OA
ATOM    104  H   IDS d   3      19.828 -42.360  32.571  0.00  0.00     0.133 H 
ATOM    105  H   IDS d   3      20.206 -44.963  29.369  0.00  0.00     0.210 HD
ATOM    106  H   IDS d   3      22.837 -43.903  31.357  0.00  0.00     0.104 H 
ATOM    107  H   IDS d   3      18.912 -44.131  31.113  0.00  0.00     0.097 H 
ATOM    108  H   IDS d   3      20.044 -46.342  31.235  0.00  0.00     0.091 H 
ATOM    109  H   IDS d   3      22.508 -46.284  31.654  0.00  0.00     0.092 H 
ENDROOT
TORSDOF 34
ENDMDL
MODEL 41
REMARK VINA RESULT:      -7.2      3.236      5.979
REMARK  0 active torsions:
REMARK  status: ('A' for Active; 'I' for Inactive)
REMARK       I    between atoms: C5_1  and  C6_10 
REMARK       I    between atoms: S2_2  and  O6_59 
REMARK       I    between atoms: O3_3  and  C3_61 
REMARK       I    between atoms: C5_5  and  C6_35 
REMARK       I    between atoms: C2_6  and  N_67 
REMARK       I    between atoms: C4_9  and  O4_55 
REMARK       I    between atoms: C1_11  and  O1_63 
REMARK       I    between atoms: C1_12  and  O4_30 
REMARK       I    between atoms: O1S_13  and  S1_24 
REMARK       I    between atoms: C3_14  and  O3_18 
REMARK       I    between atoms: C1_16  and  O4_29 
REMARK       I    between atoms: C2_19  and  O2_41 
REMARK       I    between atoms: C1_20  and  O4_38 
REMARK       I    between atoms: S2_21  and  O6_47 
REMARK       I    between atoms: O3_23  and  C3_58 
REMARK       I    between atoms: S1_24  and  N_33 
REMARK       I    between atoms: S1_24  and  O2S_37 
REMARK       I    between atoms: S1_24  and  O3S_34 
REMARK       I    between atoms: C4_25  and  O4_30 
REMARK       I    between atoms: C5_28  and  C6_56 
REMARK       I    between atoms: O4_29  and  C4_65 
REMARK       I    between atoms: S_31  and  O2_60 
REMARK       I    between atoms: C2_32  and  O2_60 
REMARK       I    between atoms: N_33  and  C2_46 
REMARK       I    between atoms: C6_35  and  O6_47 
REMARK       I    between atoms: C5_36  and  C6_40 
REMARK       I    between atoms: O4_38  and  C4_45 
REMARK       I    between atoms: C6_40  and  O6_59 
REMARK       I    between atoms: O2_41  and  S_54 
REMARK       I    between atoms: O1S_42  and  S1_53 
REMARK       I    between atoms: O3_43  and  C3_44 
REMARK       I    between atoms: O3S_50  and  S1_53 
REMARK       I    between atoms: O2S_52  and  S1_53 
REMARK       I    between atoms: S1_53  and  N_67 
ROOT
ATOM      1  C5  IDS d   1      27.531 -41.364  37.409  0.00  0.00     0.152 C 
ATOM      2  O2S IDS d   1      26.078 -36.464  35.669  0.00  0.00    -0.572 OA
ATOM      3  C4  IDS d   1      26.966 -40.035  37.919  0.00  0.00     0.097 C 
ATOM      4  C6  IDS d   1      28.747 -41.768  38.250  0.00  0.00     0.206 C 
ATOM      5  C2  IDS d   1      26.286 -39.521  35.565  0.00  0.00     0.134 C 
ATOM      6  C1  IDS d   1      26.859 -40.885  35.163  0.00  0.00     0.161 C 
ATOM      7  O61 IDS d   1      29.777 -42.152  37.650  0.00  0.00    -0.646 OA
ATOM      8  O3S IDS d   1      25.901 -37.785  33.619  0.00  0.00    -0.572 OA
ATOM      9  O2  IDS d   1      27.300 -38.520  35.422  0.00  0.00    -0.244 OA
ATOM     10  O3  IDS d   1      24.681 -40.400  37.154  0.00  0.00    -0.390 OA
ATOM     11  C3  IDS d   1      25.824 -39.548  37.023  0.00  0.00     0.094 C 
ATOM     12  O62 IDS d   1      28.648 -41.722  39.493  0.00  0.00    -0.646 OA
ATOM     13  S   IDS d   1      26.820 -37.365  34.726  0.00  0.00     0.252 S 
ATOM     14  O4  IDS d   1      27.998 -39.046  37.978  0.00  0.00    -0.390 OA
ATOM     15  O5  IDS d   1      27.942 -41.249  36.036  0.00  0.00    -0.340 OA
ATOM     16  O1S IDS d   1      27.985 -36.621  34.144  0.00  0.00    -0.572 OA
ATOM     17  H   IDS d   1      26.763 -42.104  37.488  0.00  0.00     0.104 H 
ATOM     18  H   IDS d   1      26.578 -40.193  38.904  0.00  0.00     0.091 H 
ATOM     19  H   IDS d   1      25.452 -39.298  34.934  0.00  0.00     0.097 H 
ATOM     20  H   IDS d   1      27.219 -40.800  34.159  0.00  0.00     0.133 H 
ATOM     21  H   IDS d   1      24.391 -40.414  38.080  0.00  0.00     0.210 HD
ATOM     22  H   IDS d   1      25.548 -38.560  37.329  0.00  0.00     0.091 H 
ATOM     23  H   IDS d   1      28.354 -38.897  37.088  0.00  0.00     0.210 HD
ATOM     24  S2  SGN d   2      28.159 -41.796  31.280  0.00  0.00     0.251 S 
ATOM     25  C2  SGN d   2      26.129 -45.628  35.240  0.00  0.00     0.081 C 
ATOM     26  O5S SGN d   2      29.632 -42.006  31.464  0.00  0.00    -0.572 OA
ATOM     27  O4S SGN d   2      27.813 -40.375  31.617  0.00  0.00    -0.572 OA
ATOM     28  C3  SGN d   2      25.840 -44.230  35.792  0.00  0.00     0.083 C 
ATOM     29  C1  SGN d   2      25.427 -45.842  33.897  0.00  0.00     0.150 C 
ATOM     30  O3  SGN d   2      26.619 -44.022  36.973  0.00  0.00    -0.391 OA
ATOM     31  C5  SGN d   2      25.522 -43.484  33.409  0.00  0.00     0.091 C 
ATOM     32  O4  SGN d   2      25.876 -41.883  35.205  0.00  0.00    -0.348 OA
ATOM     33  C6  SGN d   2      26.031 -42.502  32.348  0.00  0.00     0.067 C 
ATOM     34  O1S SGN d   2      28.091 -47.591  36.421  0.00  0.00    -0.296 OA
ATOM     35  C4  SGN d   2      26.224 -43.190  34.738  0.00  0.00     0.095 C 
ATOM     36  O6S SGN d   2      27.795 -42.074  29.851  0.00  0.00    -0.572 OA
ATOM     37  O3S SGN d   2      26.585 -48.543  34.727  0.00  0.00    -0.296 OA
ATOM     38  O2S SGN d   2      26.210 -48.992  37.105  0.00  0.00    -0.296 OA
ATOM     39  S1  SGN d   2      26.673 -47.968  36.110  0.00  0.00     0.156 S 
ATOM     40  O6  SGN d   2      27.436 -42.676  32.144  0.00  0.00    -0.254 OA
ATOM     41  N   SGN d   2      25.719 -46.650  36.215  0.00  0.00    -0.210 NA
ATOM     42  O5  SGN d   2      25.838 -44.818  32.975  0.00  0.00    -0.349 OA
ATOM     43  H   SGN d   2      27.182 -45.717  35.075  0.00  0.00     0.076 H 
ATOM     44  H   SGN d   2      24.801 -44.138  36.028  0.00  0.00     0.089 H 
ATOM     45  H   SGN d   2      25.699 -46.807  33.525  0.00  0.00     0.131 H 
ATOM     46  H   SGN d   2      27.561 -44.106  36.758  0.00  0.00     0.210 HD
ATOM     47  H   SGN d   2      24.465 -43.384  33.540  0.00  0.00     0.090 H 
ATOM     48  H   SGN d   2      25.843 -41.501  32.676  0.00  0.00     0.080 H 
ATOM     49  H   SGN d   2      25.519 -42.689  31.427  0.00  0.00     0.080 H 
ATOM     50  H   SGN d   2      28.655 -48.378  36.357  0.00  0.00     0.231 HD
ATOM     51  H   SGN d   2      27.280 -43.237  34.574  0.00  0.00     0.091 H 
ATOM     52  H   SGN d   2      27.153 -49.326  34.665  0.00  0.00     0.231 HD
ATOM     53  H   SGN d   2      26.776 -49.778  37.046  0.00  0.00     0.231 HD
ATOM     54  H   SGN d   2      24.753 -46.921  36.029  0.00  0.00     0.140 HD
ATOM     55  O3  SGN d   4      19.063 -45.629  31.356  0.00  0.00    -0.391 OA
ATOM     56  C5  SGN d   4      17.665 -48.132  33.789  0.00  0.00     0.091 C 
ATOM     57  C1  SGN d   4      15.893 -47.403  32.371  0.00  0.00     0.147 C 
ATOM     58  O1S SGN d   4      15.766 -43.658  31.023  0.00  0.00    -0.296 OA
ATOM     59  S2  SGN d   4      17.143 -49.630  37.205  0.00  0.00     0.251 S 
ATOM     60  S1  SGN d   4      15.232 -44.889  30.350  0.00  0.00     0.156 S 
ATOM     61  C4  SGN d   4      18.628 -47.076  33.239  0.00  0.00     0.095 C 
ATOM     62  O6S SGN d   4      16.934 -51.098  37.434  0.00  0.00    -0.572 OA
ATOM     63  O4  SGN d   4      19.974 -47.558  33.296  0.00  0.00    -0.348 OA
ATOM     64  N   SGN d   4      16.374 -46.051  30.370  0.00  0.00    -0.210 NA
ATOM     65  O3S SGN d   4      14.011 -45.370  31.077  0.00  0.00    -0.296 OA
ATOM     66  C6  SGN d   4      18.018 -48.402  35.251  0.00  0.00     0.067 C 
ATOM     67  O2S SGN d   4      14.882 -44.566  28.926  0.00  0.00    -0.296 OA
ATOM     68  C2  SGN d   4      16.784 -46.322  31.755  0.00  0.00     0.081 C 
ATOM     69  O6  SGN d   4      17.122 -49.369  35.800  0.00  0.00    -0.254 OA
ATOM     70  O4S SGN d   4      18.470 -49.214  37.770  0.00  0.00    -0.572 OA
ATOM     71  C3  SGN d   4      18.259 -46.727  31.796  0.00  0.00     0.083 C 
ATOM     72  O1  SGN d   4      15.977 -48.614  31.615  0.00  0.00    -0.369 OA
ATOM     73  O5  SGN d   4      16.316 -47.637  33.723  0.00  0.00    -0.350 OA
ATOM     74  O5S SGN d   4      16.055 -48.851  37.885  0.00  0.00    -0.572 OA
ATOM     75  H   SGN d   4      19.999 -45.882  31.381  0.00  0.00     0.210 HD
ATOM     76  H   SGN d   4      17.748 -49.028  33.211  0.00  0.00     0.090 H 
ATOM     77  H   SGN d   4      14.876 -47.073  32.359  0.00  0.00     0.131 H 
ATOM     78  H   SGN d   4      16.555 -43.348  30.552  0.00  0.00     0.231 HD
ATOM     79  H   SGN d   4      18.549 -46.195  33.840  0.00  0.00     0.091 H 
ATOM     80  H   SGN d   4      17.183 -45.741  29.832  0.00  0.00     0.140 HD
ATOM     81  H   SGN d   4      14.242 -45.577  31.996  0.00  0.00     0.231 HD
ATOM     82  H   SGN d   4      17.941 -47.491  35.808  0.00  0.00     0.080 H 
ATOM     83  H   SGN d   4      19.018 -48.779  35.308  0.00  0.00     0.080 H 
ATOM     84  H   SGN d   4      15.675 -44.256  28.461  0.00  0.00     0.231 HD
ATOM     85  H   SGN d   4      16.668 -45.431  32.336  0.00  0.00     0.076 H 
ATOM     86  H   SGN d   4      18.428 -47.570  31.158  0.00  0.00     0.089 H 
ATOM     87  H   SGN d   4      16.894 -48.931  31.613  0.00  0.00     0.212 HD
ATOM     88  C1  IDS d   3      20.762 -47.033  34.321  0.00  0.00     0.161 C 
ATOM     89  O61 IDS d   3      21.986 -43.348  33.279  0.00  0.00    -0.646 OA
ATOM     90  O3S IDS d   3      22.708 -47.334  38.156  0.00  0.00    -0.572 OA
ATOM     91  O3  IDS d   3      22.381 -48.569  32.308  0.00  0.00    -0.390 OA
ATOM     92  C5  IDS d   3      21.971 -45.677  32.781  0.00  0.00     0.152 C 
ATOM     93  O4  IDS d   3      24.050 -45.797  34.043  0.00  0.00    -0.348 OA
ATOM     94  S   IDS d   3      22.292 -48.129  36.954  0.00  0.00     0.252 S 
ATOM     95  C2  IDS d   3      21.986 -47.907  34.606  0.00  0.00     0.134 C 
ATOM     96  O2S IDS d   3      20.811 -48.352  37.026  0.00  0.00    -0.572 OA
ATOM     97  O5  IDS d   3      21.168 -45.700  33.971  0.00  0.00    -0.340 OA
ATOM     98  C6  IDS d   3      22.263 -44.216  32.430  0.00  0.00     0.206 C 
ATOM     99  C3  IDS d   3      22.955 -47.880  33.422  0.00  0.00     0.094 C 
ATOM    100  O2  IDS d   3      22.640 -47.398  35.774  0.00  0.00    -0.244 OA
ATOM    101  C4  IDS d   3      23.276 -46.436  33.024  0.00  0.00     0.103 C 
ATOM    102  O62 IDS d   3      22.758 -43.975  31.303  0.00  0.00    -0.646 OA
ATOM    103  O1S IDS d   3      23.007 -49.448  36.945  0.00  0.00    -0.572 OA
ATOM    104  H   IDS d   3      20.176 -47.011  35.217  0.00  0.00     0.133 H 
ATOM    105  H   IDS d   3      22.179 -49.483  32.562  0.00  0.00     0.210 HD
ATOM    106  H   IDS d   3      21.454 -46.147  31.971  0.00  0.00     0.104 H 
ATOM    107  H   IDS d   3      21.676 -48.919  34.761  0.00  0.00     0.097 H 
ATOM    108  H   IDS d   3      23.863 -48.367  33.714  0.00  0.00     0.091 H 
ATOM    109  H   IDS d   3      23.853 -46.438  32.123  0.00  0.00     0.092 H 
ENDROOT
TORSDOF 34
ENDMDL
MODEL 42
REMARK VINA RESULT:      -7.2      5.869     13.278
REMARK  0 active torsions:
REMARK  status: ('A' for Active; 'I' for Inactive)
REMARK       I    between atoms: C5_1  and  C6_10 
REMARK       I    between atoms: S2_2  and  O6_59 
REMARK       I    between atoms: O3_3  and  C3_61 
REMARK       I    between atoms: C5_5  and  C6_35 
REMARK       I    between atoms: C2_6  and  N_67 
REMARK       I    between atoms: C4_9  and  O4_55 
REMARK       I    between atoms: C1_11  and  O1_63 
REMARK       I    between atoms: C1_12  and  O4_30 
REMARK       I    between atoms: O1S_13  and  S1_24 
REMARK       I    between atoms: C3_14  and  O3_18 
REMARK       I    between atoms: C1_16  and  O4_29 
REMARK       I    between atoms: C2_19  and  O2_41 
REMARK       I    between atoms: C1_20  and  O4_38 
REMARK       I    between atoms: S2_21  and  O6_47 
REMARK       I    between atoms: O3_23  and  C3_58 
REMARK       I    between atoms: S1_24  and  N_33 
REMARK       I    between atoms: S1_24  and  O2S_37 
REMARK       I    between atoms: S1_24  and  O3S_34 
REMARK       I    between atoms: C4_25  and  O4_30 
REMARK       I    between atoms: C5_28  and  C6_56 
REMARK       I    between atoms: O4_29  and  C4_65 
REMARK       I    between atoms: S_31  and  O2_60 
REMARK       I    between atoms: C2_32  and  O2_60 
REMARK       I    between atoms: N_33  and  C2_46 
REMARK       I    between atoms: C6_35  and  O6_47 
REMARK       I    between atoms: C5_36  and  C6_40 
REMARK       I    between atoms: O4_38  and  C4_45 
REMARK       I    between atoms: C6_40  and  O6_59 
REMARK       I    between atoms: O2_41  and  S_54 
REMARK       I    between atoms: O1S_42  and  S1_53 
REMARK       I    between atoms: O3_43  and  C3_44 
REMARK       I    between atoms: O3S_50  and  S1_53 
REMARK       I    between atoms: O2S_52  and  S1_53 
REMARK       I    between atoms: S1_53  and  N_67 
ROOT
ATOM      1  C5  IDS d   1      18.687 -46.151  33.510  0.00  0.00     0.152 C 
ATOM      2  O2S IDS d   1      23.575 -48.378  32.966  0.00  0.00    -0.572 OA
ATOM      3  C4  IDS d   1      19.914 -46.555  34.334  0.00  0.00     0.097 C 
ATOM      4  C6  IDS d   1      17.421 -46.743  34.138  0.00  0.00     0.206 C 
ATOM      5  C2  IDS d   1      21.236 -46.547  32.209  0.00  0.00     0.134 C 
ATOM      6  C1  IDS d   1      19.956 -46.118  31.481  0.00  0.00     0.161 C 
ATOM      7  O61 IDS d   1      16.600 -47.312  33.383  0.00  0.00    -0.646 OA
ATOM      8  O3S IDS d   1      23.169 -47.530  30.710  0.00  0.00    -0.572 OA
ATOM      9  O2  IDS d   1      21.335 -47.975  32.189  0.00  0.00    -0.244 OA
ATOM     10  O3  IDS d   1      21.299 -44.648  33.713  0.00  0.00    -0.390 OA
ATOM     11  C3  IDS d   1      21.203 -46.076  33.663  0.00  0.00     0.094 C 
ATOM     12  O62 IDS d   1      17.252 -46.609  35.366  0.00  0.00    -0.646 OA
ATOM     13  S   IDS d   1      22.639 -48.418  31.795  0.00  0.00     0.252 S 
ATOM     14  O4  IDS d   1      19.949 -47.975  34.508  0.00  0.00    -0.390 OA
ATOM     15  O5  IDS d   1      18.799 -46.635  32.161  0.00  0.00    -0.340 OA
ATOM     16  O1S IDS d   1      22.548 -49.824  31.281  0.00  0.00    -0.572 OA
ATOM     17  H   IDS d   1      18.632 -45.083  33.500  0.00  0.00     0.104 H 
ATOM     18  H   IDS d   1      19.839 -46.088  35.294  0.00  0.00     0.091 H 
ATOM     19  H   IDS d   1      22.077 -46.109  31.713  0.00  0.00     0.097 H 
ATOM     20  H   IDS d   1      19.999 -46.517  30.490  0.00  0.00     0.133 H 
ATOM     21  H   IDS d   1      21.278 -44.354  34.637  0.00  0.00     0.210 HD
ATOM     22  H   IDS d   1      22.037 -46.491  34.192  0.00  0.00     0.091 H 
ATOM     23  H   IDS d   1      20.018 -48.404  33.641  0.00  0.00     0.210 HD
ATOM     24  S2  SGN d   2      19.281 -46.784  27.395  0.00  0.00     0.251 S 
ATOM     25  C2  SGN d   2      16.960 -42.466  30.630  0.00  0.00     0.081 C 
ATOM     26  O5S SGN d   2      18.130 -47.745  27.401  0.00  0.00    -0.572 OA
ATOM     27  O4S SGN d   2      20.468 -47.426  28.051  0.00  0.00    -0.572 OA
ATOM     28  C3  SGN d   2      18.048 -43.121  31.484  0.00  0.00     0.083 C 
ATOM     29  C1  SGN d   2      17.550 -41.894  29.339  0.00  0.00     0.150 C 
ATOM     30  O3  SGN d   2      17.439 -43.760  32.610  0.00  0.00    -0.391 OA
ATOM     31  C5  SGN d   2      19.310 -43.540  29.347  0.00  0.00     0.091 C 
ATOM     32  O4  SGN d   2      19.860 -44.722  31.400  0.00  0.00    -0.348 OA
ATOM     33  C6  SGN d   2      19.922 -44.640  28.475  0.00  0.00     0.067 C 
ATOM     34  O1S SGN d   2      14.000 -42.579  31.197  0.00  0.00    -0.296 OA
ATOM     35  C4  SGN d   2      18.782 -44.165  30.641  0.00  0.00     0.095 C 
ATOM     36  O6S SGN d   2      19.623 -46.431  25.977  0.00  0.00    -0.572 OA
ATOM     37  O3S SGN d   2      14.652 -40.945  29.480  0.00  0.00    -0.296 OA
ATOM     38  O2S SGN d   2      14.057 -40.198  31.736  0.00  0.00    -0.296 OA
ATOM     39  S1  SGN d   2      14.715 -41.286  30.940  0.00  0.00     0.156 S 
ATOM     40  O6  SGN d   2      18.925 -45.602  28.116  0.00  0.00    -0.254 OA
ATOM     41  N   SGN d   2      16.274 -41.420  31.401  0.00  0.00    -0.210 NA
ATOM     42  O5  SGN d   2      18.227 -42.939  28.619  0.00  0.00    -0.349 OA
ATOM     43  H   SGN d   2      16.246 -43.214  30.357  0.00  0.00     0.076 H 
ATOM     44  H   SGN d   2      18.741 -42.381  31.825  0.00  0.00     0.089 H 
ATOM     45  H   SGN d   2      16.750 -41.495  28.750  0.00  0.00     0.131 H 
ATOM     46  H   SGN d   2      16.810 -44.431  32.300  0.00  0.00     0.210 HD
ATOM     47  H   SGN d   2      20.043 -42.798  29.589  0.00  0.00     0.090 H 
ATOM     48  H   SGN d   2      20.703 -45.129  29.019  0.00  0.00     0.080 H 
ATOM     49  H   SGN d   2      20.317 -44.200  27.583  0.00  0.00     0.080 H 
ATOM     50  H   SGN d   2      13.074 -42.497  30.921  0.00  0.00     0.231 HD
ATOM     51  H   SGN d   2      18.095 -44.943  30.379  0.00  0.00     0.091 H 
ATOM     52  H   SGN d   2      13.724 -40.866  29.207  0.00  0.00     0.231 HD
ATOM     53  H   SGN d   2      13.129 -40.115  31.464  0.00  0.00     0.231 HD
ATOM     54  H   SGN d   2      16.745 -40.527  31.249  0.00  0.00     0.140 HD
ATOM     55  O3  SGN d   4      22.393 -37.417  27.466  0.00  0.00    -0.391 OA
ATOM     56  C5  SGN d   4      20.957 -34.554  29.436  0.00  0.00     0.091 C 
ATOM     57  C1  SGN d   4      22.946 -33.795  28.362  0.00  0.00     0.147 C 
ATOM     58  O1S SGN d   4      26.045 -36.240  27.843  0.00  0.00    -0.296 OA
ATOM     59  S2  SGN d   4      19.472 -32.936  32.496  0.00  0.00     0.251 S 
ATOM     60  S1  SGN d   4      25.641 -35.082  26.977  0.00  0.00     0.156 S 
ATOM     61  C4  SGN d   4      21.217 -36.008  29.036  0.00  0.00     0.095 C 
ATOM     62  O6S SGN d   4      18.489 -31.803  32.430  0.00  0.00    -0.572 OA
ATOM     63  O4  SGN d   4      19.978 -36.705  28.873  0.00  0.00    -0.348 OA
ATOM     64  N   SGN d   4      24.047 -35.184  26.654  0.00  0.00    -0.210 NA
ATOM     65  O3S SGN d   4      25.929 -33.795  27.692  0.00  0.00    -0.296 OA
ATOM     66  C6  SGN d   4      20.216 -34.538  30.773  0.00  0.00     0.067 C 
ATOM     67  O2S SGN d   4      26.410 -35.132  25.689  0.00  0.00    -0.296 OA
ATOM     68  C2  SGN d   4      23.285 -35.216  27.910  0.00  0.00     0.081 C 
ATOM     69  O6  SGN d   4      19.978 -33.191  31.184  0.00  0.00    -0.254 OA
ATOM     70  O4S SGN d   4      18.790 -34.167  33.017  0.00  0.00    -0.572 OA
ATOM     71  C3  SGN d   4      22.022 -36.062  27.736  0.00  0.00     0.083 C 
ATOM     72  O1  SGN d   4      22.172 -33.122  27.365  0.00  0.00    -0.369 OA
ATOM     73  O5  SGN d   4      22.209 -33.864  29.594  0.00  0.00    -0.350 OA
ATOM     74  O5S SGN d   4      20.600 -32.574  33.416  0.00  0.00    -0.572 OA
ATOM     75  H   SGN d   4      21.594 -37.955  27.356  0.00  0.00     0.210 HD
ATOM     76  H   SGN d   4      20.375 -34.072  28.679  0.00  0.00     0.090 H 
ATOM     77  H   SGN d   4      23.850 -33.244  28.509  0.00  0.00     0.131 H 
ATOM     78  H   SGN d   4      25.859 -37.071  27.380  0.00  0.00     0.231 HD
ATOM     79  H   SGN d   4      21.781 -36.480  29.813  0.00  0.00     0.091 H 
ATOM     80  H   SGN d   4      23.862 -36.035  26.124  0.00  0.00     0.140 HD
ATOM     81  H   SGN d   4      25.430 -33.768  28.524  0.00  0.00     0.231 HD
ATOM     82  H   SGN d   4      20.810 -35.034  31.512  0.00  0.00     0.080 H 
ATOM     83  H   SGN d   4      19.279 -35.042  30.661  0.00  0.00     0.080 H 
ATOM     84  H   SGN d   4      26.220 -35.966  25.231  0.00  0.00     0.231 HD
ATOM     85  H   SGN d   4      23.885 -35.668  28.672  0.00  0.00     0.076 H 
ATOM     86  H   SGN d   4      21.435 -35.685  26.924  0.00  0.00     0.089 H 
ATOM     87  H   SGN d   4      21.345 -33.606  27.217  0.00  0.00     0.212 HD
ATOM     88  C1  IDS d   3      19.627 -37.567  29.912  0.00  0.00     0.161 C 
ATOM     89  O61 IDS d   3      21.738 -40.971  29.559  0.00  0.00    -0.646 OA
ATOM     90  O3S IDS d   3      17.318 -38.562  33.414  0.00  0.00    -0.572 OA
ATOM     91  O3  IDS d   3      17.888 -37.931  27.488  0.00  0.00    -0.390 OA
ATOM     92  C5  IDS d   3      20.159 -39.476  28.589  0.00  0.00     0.152 C 
ATOM     93  O4  IDS d   3      18.448 -40.874  29.610  0.00  0.00    -0.348 OA
ATOM     94  S   IDS d   3      17.268 -37.817  32.113  0.00  0.00     0.252 S 
ATOM     95  C2  IDS d   3      18.133 -37.900  29.899  0.00  0.00     0.134 C 
ATOM     96  O2S IDS d   3      18.054 -36.549  32.266  0.00  0.00    -0.572 OA
ATOM     97  O5  IDS d   3      20.409 -38.769  29.814  0.00  0.00    -0.340 OA
ATOM     98  C6  IDS d   3      21.109 -40.675  28.527  0.00  0.00     0.206 C 
ATOM     99  C3  IDS d   3      17.777 -38.734  28.667  0.00  0.00     0.094 C 
ATOM    100  O2  IDS d   3      17.827 -38.642  31.086  0.00  0.00    -0.244 OA
ATOM    101  C4  IDS d   3      18.705 -39.947  28.552  0.00  0.00     0.103 C 
ATOM    102  O62 IDS d   3      21.204 -41.286  27.436  0.00  0.00    -0.646 OA
ATOM    103  O1S IDS d   3      15.844 -37.495  31.766  0.00  0.00    -0.572 OA
ATOM    104  H   IDS d   3      19.833 -37.075  30.840  0.00  0.00     0.133 H 
ATOM    105  H   IDS d   3      17.299 -37.164  27.562  0.00  0.00     0.210 HD
ATOM    106  H   IDS d   3      20.327 -38.837  27.748  0.00  0.00     0.104 H 
ATOM    107  H   IDS d   3      17.565 -36.994  29.866  0.00  0.00     0.097 H 
ATOM    108  H   IDS d   3      16.769 -39.080  28.770  0.00  0.00     0.091 H 
ATOM    109  H   IDS d   3      18.522 -40.446  27.624  0.00  0.00     0.092 H 
ENDROOT
TORSDOF 34
ENDMDL
MODEL 43
REMARK VINA RESULT:      -7.1      4.832     12.520
REMARK  0 active torsions:
REMARK  status: ('A' for Active; 'I' for Inactive)
REMARK       I    between atoms: C5_1  and  C6_10 
REMARK       I    between atoms: S2_2  and  O6_59 
REMARK       I    between atoms: O3_3  and  C3_61 
REMARK       I    between atoms: C5_5  and  C6_35 
REMARK       I    between atoms: C2_6  and  N_67 
REMARK       I    between atoms: C4_9  and  O4_55 
REMARK       I    between atoms: C1_11  and  O1_63 
REMARK       I    between atoms: C1_12  and  O4_30 
REMARK       I    between atoms: O1S_13  and  S1_24 
REMARK       I    between atoms: C3_14  and  O3_18 
REMARK       I    between atoms: C1_16  and  O4_29 
REMARK       I    between atoms: C2_19  and  O2_41 
REMARK       I    between atoms: C1_20  and  O4_38 
REMARK       I    between atoms: S2_21  and  O6_47 
REMARK       I    between atoms: O3_23  and  C3_58 
REMARK       I    between atoms: S1_24  and  N_33 
REMARK       I    between atoms: S1_24  and  O2S_37 
REMARK       I    between atoms: S1_24  and  O3S_34 
REMARK       I    between atoms: C4_25  and  O4_30 
REMARK       I    between atoms: C5_28  and  C6_56 
REMARK       I    between atoms: O4_29  and  C4_65 
REMARK       I    between atoms: S_31  and  O2_60 
REMARK       I    between atoms: C2_32  and  O2_60 
REMARK       I    between atoms: N_33  and  C2_46 
REMARK       I    between atoms: C6_35  and  O6_47 
REMARK       I    between atoms: C5_36  and  C6_40 
REMARK       I    between atoms: O4_38  and  C4_45 
REMARK       I    between atoms: C6_40  and  O6_59 
REMARK       I    between atoms: O2_41  and  S_54 
REMARK       I    between atoms: O1S_42  and  S1_53 
REMARK       I    between atoms: O3_43  and  C3_44 
REMARK       I    between atoms: O3S_50  and  S1_53 
REMARK       I    between atoms: O2S_52  and  S1_53 
REMARK       I    between atoms: S1_53  and  N_67 
ROOT
ATOM      1  C5  IDS d   1      21.814 -48.510  30.549  0.00  0.00     0.152 C 
ATOM      2  O2S IDS d   1      17.893 -50.130  27.211  0.00  0.00    -0.572 OA
ATOM      3  C4  IDS d   1      21.607 -49.176  29.185  0.00  0.00     0.097 C 
ATOM      4  C6  IDS d   1      22.767 -49.355  31.401  0.00  0.00     0.206 C 
ATOM      5  C2  IDS d   1      19.287 -48.235  29.177  0.00  0.00     0.134 C 
ATOM      6  C1  IDS d   1      19.606 -47.589  30.530  0.00  0.00     0.161 C 
ATOM      7  O61 IDS d   1      22.446 -49.587  32.589  0.00  0.00    -0.646 OA
ATOM      8  O3S IDS d   1      16.737 -48.433  28.538  0.00  0.00    -0.572 OA
ATOM      9  O2  IDS d   1      18.695 -49.520  29.394  0.00  0.00    -0.244 OA
ATOM     10  O3  IDS d   1      21.074 -47.136  27.964  0.00  0.00    -0.390 OA
ATOM     11  C3  IDS d   1      20.567 -48.415  28.359  0.00  0.00     0.094 C 
ATOM     12  O62 IDS d   1      23.830 -49.752  30.882  0.00  0.00    -0.646 OA
ATOM     13  S   IDS d   1      17.518 -49.711  28.601  0.00  0.00     0.252 S 
ATOM     14  O4  IDS d   1      21.197 -50.537  29.355  0.00  0.00    -0.390 OA
ATOM     15  O5  IDS d   1      20.565 -48.383  31.249  0.00  0.00    -0.340 OA
ATOM     16  O1S IDS d   1      16.668 -50.777  29.227  0.00  0.00    -0.572 OA
ATOM     17  H   IDS d   1      22.228 -47.538  30.384  0.00  0.00     0.104 H 
ATOM     18  H   IDS d   1      22.538 -49.156  28.659  0.00  0.00     0.091 H 
ATOM     19  H   IDS d   1      18.612 -47.600  28.642  0.00  0.00     0.097 H 
ATOM     20  H   IDS d   1      18.693 -47.536  31.085  0.00  0.00     0.133 H 
ATOM     21  H   IDS d   1      21.885 -47.255  27.446  0.00  0.00     0.210 HD
ATOM     22  H   IDS d   1      20.351 -48.982  27.478  0.00  0.00     0.091 H 
ATOM     23  H   IDS d   1      20.353 -50.563  29.832  0.00  0.00     0.210 HD
ATOM     24  S2  SGN d   2      16.673 -46.513  33.331  0.00  0.00     0.251 S 
ATOM     25  C2  SGN d   2      21.958 -44.025  32.721  0.00  0.00     0.081 C 
ATOM     26  O5S SGN d   2      16.962 -47.430  34.481  0.00  0.00    -0.572 OA
ATOM     27  O4S SGN d   2      16.275 -47.328  32.135  0.00  0.00    -0.572 OA
ATOM     28  C3  SGN d   2      21.758 -44.937  31.509  0.00  0.00     0.083 C 
ATOM     29  C1  SGN d   2      20.875 -42.945  32.778  0.00  0.00     0.150 C 
ATOM     30  O3  SGN d   2      22.704 -46.008  31.566  0.00  0.00    -0.391 OA
ATOM     31  C5  SGN d   2      19.307 -44.380  31.643  0.00  0.00     0.091 C 
ATOM     32  O4  SGN d   2      20.109 -46.290  30.368  0.00  0.00    -0.348 OA
ATOM     33  C6  SGN d   2      17.913 -44.994  31.805  0.00  0.00     0.067 C 
ATOM     34  O1S SGN d   2      23.976 -44.471  34.918  0.00  0.00    -0.296 OA
ATOM     35  C4  SGN d   2      20.339 -45.507  31.543  0.00  0.00     0.095 C 
ATOM     36  O6S SGN d   2      15.552 -45.589  33.704  0.00  0.00    -0.572 OA
ATOM     37  O3S SGN d   2      22.929 -42.247  34.927  0.00  0.00    -0.296 OA
ATOM     38  O2S SGN d   2      25.220 -42.531  34.109  0.00  0.00    -0.296 OA
ATOM     39  S1  SGN d   2      23.862 -43.164  34.192  0.00  0.00     0.156 S 
ATOM     40  O6  SGN d   2      17.843 -45.753  33.016  0.00  0.00    -0.254 OA
ATOM     41  N   SGN d   2      23.299 -43.421  32.683  0.00  0.00    -0.210 NA
ATOM     42  O5  SGN d   2      19.579 -43.570  32.798  0.00  0.00    -0.349 OA
ATOM     43  H   SGN d   2      21.875 -44.616  33.609  0.00  0.00     0.076 H 
ATOM     44  H   SGN d   2      21.902 -44.381  30.606  0.00  0.00     0.089 H 
ATOM     45  H   SGN d   2      21.022 -42.367  33.666  0.00  0.00     0.131 H 
ATOM     46  H   SGN d   2      22.574 -46.511  32.385  0.00  0.00     0.210 HD
ATOM     47  H   SGN d   2      19.355 -43.781  30.757  0.00  0.00     0.090 H 
ATOM     48  H   SGN d   2      17.711 -45.636  30.974  0.00  0.00     0.080 H 
ATOM     49  H   SGN d   2      17.188 -44.208  31.845  0.00  0.00     0.080 H 
ATOM     50  H   SGN d   2      24.311 -44.314  35.815  0.00  0.00     0.231 HD
ATOM     51  H   SGN d   2      20.238 -46.129  32.408  0.00  0.00     0.091 H 
ATOM     52  H   SGN d   2      23.265 -42.095  35.824  0.00  0.00     0.231 HD
ATOM     53  H   SGN d   2      25.559 -42.376  35.005  0.00  0.00     0.231 HD
ATOM     54  H   SGN d   2      23.250 -42.530  32.188  0.00  0.00     0.140 HD
ATOM     55  O3  SGN d   4      18.436 -37.924  28.799  0.00  0.00    -0.391 OA
ATOM     56  C5  SGN d   4      21.752 -36.196  28.399  0.00  0.00     0.091 C 
ATOM     57  C1  SGN d   4      20.127 -34.988  27.141  0.00  0.00     0.147 C 
ATOM     58  O1S SGN d   4      17.132 -36.880  25.323  0.00  0.00    -0.296 OA
ATOM     59  S2  SGN d   4      25.457 -36.057  27.732  0.00  0.00     0.251 S 
ATOM     60  S1  SGN d   4      17.130 -35.483  25.870  0.00  0.00     0.156 S 
ATOM     61  C4  SGN d   4      20.777 -37.341  28.683  0.00  0.00     0.095 C 
ATOM     62  O6S SGN d   4      26.364 -35.036  28.354  0.00  0.00    -0.572 OA
ATOM     63  O4  SGN d   4      21.084 -37.951  29.941  0.00  0.00    -0.348 OA
ATOM     64  N   SGN d   4      17.731 -35.497  27.385  0.00  0.00    -0.210 NA
ATOM     65  O3S SGN d   4      17.978 -34.601  25.001  0.00  0.00    -0.296 OA
ATOM     66  C6  SGN d   4      23.168 -36.766  28.324  0.00  0.00     0.067 C 
ATOM     67  O2S SGN d   4      15.723 -34.963  25.903  0.00  0.00    -0.296 OA
ATOM     68  C2  SGN d   4      19.081 -36.078  27.380  0.00  0.00     0.081 C 
ATOM     69  O6  SGN d   4      24.101 -35.723  28.038  0.00  0.00    -0.254 OA
ATOM     70  O4S SGN d   4      25.772 -37.417  28.282  0.00  0.00    -0.572 OA
ATOM     71  C3  SGN d   4      19.339 -36.819  28.693  0.00  0.00     0.083 C 
ATOM     72  O1  SGN d   4      20.054 -33.989  28.162  0.00  0.00    -0.369 OA
ATOM     73  O5  SGN d   4      21.432 -35.590  27.135  0.00  0.00    -0.350 OA
ATOM     74  O5S SGN d   4      25.655 -36.071  26.245  0.00  0.00    -0.572 OA
ATOM     75  H   SGN d   4      18.598 -38.396  29.631  0.00  0.00     0.210 HD
ATOM     76  H   SGN d   4      21.682 -35.465  29.176  0.00  0.00     0.090 H 
ATOM     77  H   SGN d   4      19.939 -34.516  26.200  0.00  0.00     0.131 H 
ATOM     78  H   SGN d   4      16.584 -37.449  25.886  0.00  0.00     0.231 HD
ATOM     79  H   SGN d   4      20.875 -38.074  27.910  0.00  0.00     0.091 H 
ATOM     80  H   SGN d   4      17.124 -36.056  27.985  0.00  0.00     0.140 HD
ATOM     81  H   SGN d   4      18.886 -34.942  24.983  0.00  0.00     0.231 HD
ATOM     82  H   SGN d   4      23.212 -37.504  27.550  0.00  0.00     0.080 H 
ATOM     83  H   SGN d   4      23.418 -37.211  29.265  0.00  0.00     0.080 H 
ATOM     84  H   SGN d   4      15.179 -35.536  26.467  0.00  0.00     0.231 HD
ATOM     85  H   SGN d   4      19.155 -36.785  26.580  0.00  0.00     0.076 H 
ATOM     86  H   SGN d   4      19.192 -36.159  29.524  0.00  0.00     0.089 H 
ATOM     87  H   SGN d   4      20.222 -34.397  29.026  0.00  0.00     0.212 HD
ATOM     88  C1  IDS d   3      21.740 -39.180  29.874  0.00  0.00     0.161 C 
ATOM     89  O61 IDS d   3      19.065 -42.048  28.989  0.00  0.00    -0.646 OA
ATOM     90  O3S IDS d   3      25.274 -41.627  30.197  0.00  0.00    -0.572 OA
ATOM     91  O3  IDS d   3      20.751 -38.563  32.644  0.00  0.00    -0.390 OA
ATOM     92  C5  IDS d   3      19.757 -40.343  30.499  0.00  0.00     0.152 C 
ATOM     93  O4  IDS d   3      20.956 -42.100  31.684  0.00  0.00    -0.348 OA
ATOM     94  S   IDS d   3      24.601 -40.409  30.757  0.00  0.00     0.252 S 
ATOM     95  C2  IDS d   3      22.434 -39.531  31.193  0.00  0.00     0.134 C 
ATOM     96  O2S IDS d   3      24.745 -39.294  29.765  0.00  0.00    -0.572 OA
ATOM     97  O5  IDS d   3      20.796 -40.203  29.518  0.00  0.00    -0.340 OA
ATOM     98  C6  IDS d   3      18.748 -41.372  29.984  0.00  0.00     0.206 C 
ATOM     99  C3  IDS d   3      21.403 -39.787  32.293  0.00  0.00     0.094 C 
ATOM    100  O2  IDS d   3      23.220 -40.710  30.987  0.00  0.00    -0.244 OA
ATOM    101  C4  IDS d   3      20.361 -40.807  31.826  0.00  0.00     0.103 C 
ATOM    102  O62 IDS d   3      17.655 -41.468  30.591  0.00  0.00    -0.646 OA
ATOM    103  O1S IDS d   3      25.245 -40.024  32.056  0.00  0.00    -0.572 OA
ATOM    104  H   IDS d   3      22.502 -39.113  29.125  0.00  0.00     0.133 H 
ATOM    105  H   IDS d   3      21.413 -37.918  32.940  0.00  0.00     0.210 HD
ATOM    106  H   IDS d   3      19.268 -39.405  30.663  0.00  0.00     0.104 H 
ATOM    107  H   IDS d   3      23.055 -38.714  31.499  0.00  0.00     0.097 H 
ATOM    108  H   IDS d   3      21.910 -40.181  33.150  0.00  0.00     0.091 H 
ATOM    109  H   IDS d   3      19.584 -40.880  32.557  0.00  0.00     0.092 H 
ENDROOT
TORSDOF 34
ENDMDL
MODEL 44
REMARK VINA RESULT:      -7.1      5.328      9.532
REMARK  0 active torsions:
REMARK  status: ('A' for Active; 'I' for Inactive)
REMARK       I    between atoms: C5_1  and  C6_10 
REMARK       I    between atoms: S2_2  and  O6_59 
REMARK       I    between atoms: O3_3  and  C3_61 
REMARK       I    between atoms: C5_5  and  C6_35 
REMARK       I    between atoms: C2_6  and  N_67 
REMARK       I    between atoms: C4_9  and  O4_55 
REMARK       I    between atoms: C1_11  and  O1_63 
REMARK       I    between atoms: C1_12  and  O4_30 
REMARK       I    between atoms: O1S_13  and  S1_24 
REMARK       I    between atoms: C3_14  and  O3_18 
REMARK       I    between atoms: C1_16  and  O4_29 
REMARK       I    between atoms: C2_19  and  O2_41 
REMARK       I    between atoms: C1_20  and  O4_38 
REMARK       I    between atoms: S2_21  and  O6_47 
REMARK       I    between atoms: O3_23  and  C3_58 
REMARK       I    between atoms: S1_24  and  N_33 
REMARK       I    between atoms: S1_24  and  O2S_37 
REMARK       I    between atoms: S1_24  and  O3S_34 
REMARK       I    between atoms: C4_25  and  O4_30 
REMARK       I    between atoms: C5_28  and  C6_56 
REMARK       I    between atoms: O4_29  and  C4_65 
REMARK       I    between atoms: S_31  and  O2_60 
REMARK       I    between atoms: C2_32  and  O2_60 
REMARK       I    between atoms: N_33  and  C2_46 
REMARK       I    between atoms: C6_35  and  O6_47 
REMARK       I    between atoms: C5_36  and  C6_40 
REMARK       I    between atoms: O4_38  and  C4_45 
REMARK       I    between atoms: C6_40  and  O6_59 
REMARK       I    between atoms: O2_41  and  S_54 
REMARK       I    between atoms: O1S_42  and  S1_53 
REMARK       I    between atoms: O3_43  and  C3_44 
REMARK       I    between atoms: O3S_50  and  S1_53 
REMARK       I    between atoms: O2S_52  and  S1_53 
REMARK       I    between atoms: S1_53  and  N_67 
ROOT
ATOM      1  C5  IDS d   1      18.465 -37.332  27.206  0.00  0.00     0.152 C 
ATOM      2  O2S IDS d   1      22.354 -34.063  29.032  0.00  0.00    -0.572 OA
ATOM      3  C4  IDS d   1      19.752 -36.637  26.751  0.00  0.00     0.097 C 
ATOM      4  C6  IDS d   1      17.333 -37.028  26.219  0.00  0.00     0.206 C 
ATOM      5  C2  IDS d   1      20.373 -36.400  29.164  0.00  0.00     0.134 C 
ATOM      6  C1  IDS d   1      19.070 -37.128  29.513  0.00  0.00     0.161 C 
ATOM      7  O61 IDS d   1      16.223 -36.682  26.685  0.00  0.00    -0.646 OA
ATOM      8  O3S IDS d   1      21.520 -35.041  31.111  0.00  0.00    -0.572 OA
ATOM      9  O2  IDS d   1      20.137 -34.987  29.153  0.00  0.00    -0.244 OA
ATOM     10  O3  IDS d   1      21.294 -38.193  27.820  0.00  0.00    -0.390 OA
ATOM     11  C3  IDS d   1      20.868 -36.827  27.781  0.00  0.00     0.094 C 
ATOM     12  O62 IDS d   1      17.559 -37.165  25.000  0.00  0.00    -0.646 OA
ATOM     13  S   IDS d   1      21.138 -34.270  29.885  0.00  0.00     0.252 S 
ATOM     14  O4  IDS d   1      19.514 -35.243  26.537  0.00  0.00    -0.390 OA
ATOM     15  O5  IDS d   1      18.071 -36.872  28.510  0.00  0.00    -0.340 OA
ATOM     16  O1S IDS d   1      20.587 -32.936  30.293  0.00  0.00    -0.572 OA
ATOM     17  H   IDS d   1      18.652 -38.385  27.244  0.00  0.00     0.104 H 
ATOM     18  H   IDS d   1      20.063 -37.083  25.830  0.00  0.00     0.091 H 
ATOM     19  H   IDS d   1      21.113 -36.647  29.897  0.00  0.00     0.097 H 
ATOM     20  H   IDS d   1      18.735 -36.756  30.458  0.00  0.00     0.133 H 
ATOM     21  H   IDS d   1      21.606 -38.460  26.941  0.00  0.00     0.210 HD
ATOM     22  H   IDS d   1      21.701 -36.219  27.496  0.00  0.00     0.091 H 
ATOM     23  H   IDS d   1      19.231 -34.832  27.369  0.00  0.00     0.210 HD
ATOM     24  S2  SGN d   2      17.117 -36.743  33.205  0.00  0.00     0.251 S 
ATOM     25  C2  SGN d   2      16.863 -41.389  29.622  0.00  0.00     0.081 C 
ATOM     26  O5S SGN d   2      15.830 -36.070  32.831  0.00  0.00    -0.572 OA
ATOM     27  O4S SGN d   2      18.265 -35.829  32.890  0.00  0.00    -0.572 OA
ATOM     28  C3  SGN d   2      17.973 -40.481  29.087  0.00  0.00     0.083 C 
ATOM     29  C1  SGN d   2      17.170 -41.846  31.050  0.00  0.00     0.150 C 
ATOM     30  O3  SGN d   2      17.585 -39.969  27.809  0.00  0.00    -0.391 OA
ATOM     31  C5  SGN d   2      18.439 -39.841  31.477  0.00  0.00     0.091 C 
ATOM     32  O4  SGN d   2      19.273 -38.511  29.620  0.00  0.00    -0.348 OA
ATOM     33  C6  SGN d   2      18.509 -38.654  32.442  0.00  0.00     0.067 C 
ATOM     34  O1S SGN d   2      14.245 -41.940  28.228  0.00  0.00    -0.296 OA
ATOM     35  C4  SGN d   2      18.178 -39.320  30.061  0.00  0.00     0.095 C 
ATOM     36  O6S SGN d   2      17.108 -37.046  34.674  0.00  0.00    -0.572 OA
ATOM     37  O3S SGN d   2      14.728 -43.427  30.125  0.00  0.00    -0.296 OA
ATOM     38  O2S SGN d   2      14.992 -44.230  27.826  0.00  0.00    -0.296 OA
ATOM     39  S1  SGN d   2      15.130 -43.042  28.732  0.00  0.00     0.156 S 
ATOM     40  O6  SGN d   2      17.260 -37.956  32.461  0.00  0.00    -0.254 OA
ATOM     41  N   SGN d   2      16.682 -42.544  28.729  0.00  0.00    -0.210 NA
ATOM     42  O5  SGN d   2      17.357 -40.693  31.890  0.00  0.00    -0.349 OA
ATOM     43  H   SGN d   2      15.950 -40.832  29.647  0.00  0.00     0.076 H 
ATOM     44  H   SGN d   2      18.883 -41.034  28.990  0.00  0.00     0.089 H 
ATOM     45  H   SGN d   2      16.347 -42.432  31.401  0.00  0.00     0.131 H 
ATOM     46  H   SGN d   2      16.759 -39.467  27.899  0.00  0.00     0.210 HD
ATOM     47  H   SGN d   2      19.358 -40.390  31.485  0.00  0.00     0.090 H 
ATOM     48  H   SGN d   2      19.282 -37.986  32.124  0.00  0.00     0.080 H 
ATOM     49  H   SGN d   2      18.720 -39.016  33.426  0.00  0.00     0.080 H 
ATOM     50  H   SGN d   2      13.323 -42.239  28.231  0.00  0.00     0.231 HD
ATOM     51  H   SGN d   2      17.288 -38.726  30.084  0.00  0.00     0.091 H 
ATOM     52  H   SGN d   2      13.804 -43.723  30.125  0.00  0.00     0.231 HD
ATOM     53  H   SGN d   2      14.069 -44.530  27.824  0.00  0.00     0.231 HD
ATOM     54  H   SGN d   2      17.279 -43.309  29.047  0.00  0.00     0.140 HD
ATOM     55  O3  SGN d   4      22.152 -45.147  34.409  0.00  0.00    -0.391 OA
ATOM     56  C5  SGN d   4      22.029 -48.209  32.230  0.00  0.00     0.091 C 
ATOM     57  C1  SGN d   4      23.743 -48.522  33.857  0.00  0.00     0.147 C 
ATOM     58  O1S SGN d   4      25.926 -45.449  35.140  0.00  0.00    -0.296 OA
ATOM     59  S2  SGN d   4      21.892 -50.042  28.942  0.00  0.00     0.251 S 
ATOM     60  S1  SGN d   4      25.563 -46.691  35.901  0.00  0.00     0.156 S 
ATOM     61  C4  SGN d   4      21.828 -46.745  32.628  0.00  0.00     0.095 C 
ATOM     62  O6S SGN d   4      21.214 -51.370  28.771  0.00  0.00    -0.572 OA
ATOM     63  O4  SGN d   4      20.470 -46.354  32.401  0.00  0.00    -0.348 OA
ATOM     64  N   SGN d   4      23.963 -46.964  35.751  0.00  0.00    -0.210 NA
ATOM     65  O3S SGN d   4      26.327 -47.859  35.351  0.00  0.00    -0.296 OA
ATOM     66  C6  SGN d   4      21.728 -48.358  30.739  0.00  0.00     0.067 C 
ATOM     67  O2S SGN d   4      25.897 -46.501  37.351  0.00  0.00    -0.296 OA
ATOM     68  C2  SGN d   4      23.608 -47.073  34.329  0.00  0.00     0.081 C 
ATOM     69  O6  SGN d   4      21.928 -49.713  30.332  0.00  0.00    -0.254 OA
ATOM     70  O4S SGN d   4      21.129 -48.985  28.199  0.00  0.00    -0.572 OA
ATOM     71  C3  SGN d   4      22.191 -46.544  34.100  0.00  0.00     0.083 C 
ATOM     72  O1  SGN d   4      22.889 -49.380  34.618  0.00  0.00    -0.369 OA
ATOM     73  O5  SGN d   4      23.396 -48.591  32.465  0.00  0.00    -0.350 OA
ATOM     74  O5S SGN d   4      23.289 -50.111  28.398  0.00  0.00    -0.572 OA
ATOM     75  H   SGN d   4      21.255 -44.808  34.264  0.00  0.00     0.210 HD
ATOM     76  H   SGN d   4      21.378 -48.831  32.809  0.00  0.00     0.090 H 
ATOM     77  H   SGN d   4      24.752 -48.848  33.997  0.00  0.00     0.131 H 
ATOM     78  H   SGN d   4      25.431 -44.694  35.496  0.00  0.00     0.231 HD
ATOM     79  H   SGN d   4      22.469 -46.136  32.026  0.00  0.00     0.091 H 
ATOM     80  H   SGN d   4      23.447 -46.192  36.171  0.00  0.00     0.140 HD
ATOM     81  H   SGN d   4      26.108 -47.977  34.413  0.00  0.00     0.231 HD
ATOM     82  H   SGN d   4      22.380 -47.720  30.181  0.00  0.00     0.080 H 
ATOM     83  H   SGN d   4      20.709 -48.085  30.558  0.00  0.00     0.080 H 
ATOM     84  H   SGN d   4      25.400 -45.745  37.702  0.00  0.00     0.231 HD
ATOM     85  H   SGN d   4      24.283 -46.476  33.752  0.00  0.00     0.076 H 
ATOM     86  H   SGN d   4      21.496 -47.066  34.726  0.00  0.00     0.089 H 
ATOM     87  H   SGN d   4      21.966 -49.102  34.504  0.00  0.00     0.212 HD
ATOM     88  C1  IDS d   3      20.247 -45.567  31.271  0.00  0.00     0.161 C 
ATOM     89  O61 IDS d   3      21.341 -41.782  32.073  0.00  0.00    -0.646 OA
ATOM     90  O3S IDS d   3      18.879 -45.033  27.218  0.00  0.00    -0.572 OA
ATOM     91  O3  IDS d   3      17.849 -45.674  33.080  0.00  0.00    -0.390 OA
ATOM     92  C5  IDS d   3      19.930 -43.623  32.611  0.00  0.00     0.152 C 
ATOM     93  O4  IDS d   3      18.314 -42.626  31.087  0.00  0.00    -0.348 OA
ATOM     94  S   IDS d   3      18.627 -45.805  28.480  0.00  0.00     0.252 S 
ATOM     95  C2  IDS d   3      18.777 -45.585  30.843  0.00  0.00     0.134 C 
ATOM     96  O2S IDS d   3      19.689 -46.855  28.609  0.00  0.00    -0.572 OA
ATOM     97  O5  IDS d   3      20.674 -44.222  31.539  0.00  0.00    -0.340 OA
ATOM     98  C6  IDS d   3      20.525 -42.241  32.893  0.00  0.00     0.206 C 
ATOM     99  C3  IDS d   3      17.903 -44.887  31.887  0.00  0.00     0.094 C 
ATOM    100  O2  IDS d   3      18.666 -44.901  29.589  0.00  0.00    -0.244 OA
ATOM    101  C4  IDS d   3      18.459 -43.498  32.212  0.00  0.00     0.103 C 
ATOM    102  O62 IDS d   3      20.162 -41.654  33.940  0.00  0.00    -0.646 OA
ATOM    103  O1S IDS d   3      17.275 -46.452  28.418  0.00  0.00    -0.572 OA
ATOM    104  H   IDS d   3      20.816 -45.974  30.461  0.00  0.00     0.133 H 
ATOM    105  H   IDS d   3      17.496 -46.553  32.873  0.00  0.00     0.210 HD
ATOM    106  H   IDS d   3      19.989 -44.229  33.491  0.00  0.00     0.104 H 
ATOM    107  H   IDS d   3      18.444 -46.597  30.749  0.00  0.00     0.097 H 
ATOM    108  H   IDS d   3      16.916 -44.778  31.486  0.00  0.00     0.091 H 
ATOM    109  H   IDS d   3      17.909 -43.079  33.028  0.00  0.00     0.092 H 
ENDROOT
TORSDOF 34
ENDMDL
MODEL 45
REMARK VINA RESULT:      -7.0      4.031      7.368
REMARK  0 active torsions:
REMARK  status: ('A' for Active; 'I' for Inactive)
REMARK       I    between atoms: C5_1  and  C6_10 
REMARK       I    between atoms: S2_2  and  O6_59 
REMARK       I    between atoms: O3_3  and  C3_61 
REMARK       I    between atoms: C5_5  and  C6_35 
REMARK       I    between atoms: C2_6  and  N_67 
REMARK       I    between atoms: C4_9  and  O4_55 
REMARK       I    between atoms: C1_11  and  O1_63 
REMARK       I    between atoms: C1_12  and  O4_30 
REMARK       I    between atoms: O1S_13  and  S1_24 
REMARK       I    between atoms: C3_14  and  O3_18 
REMARK       I    between atoms: C1_16  and  O4_29 
REMARK       I    between atoms: C2_19  and  O2_41 
REMARK       I    between atoms: C1_20  and  O4_38 
REMARK       I    between atoms: S2_21  and  O6_47 
REMARK       I    between atoms: O3_23  and  C3_58 
REMARK       I    between atoms: S1_24  and  N_33 
REMARK       I    between atoms: S1_24  and  O2S_37 
REMARK       I    between atoms: S1_24  and  O3S_34 
REMARK       I    between atoms: C4_25  and  O4_30 
REMARK       I    between atoms: C5_28  and  C6_56 
REMARK       I    between atoms: O4_29  and  C4_65 
REMARK       I    between atoms: S_31  and  O2_60 
REMARK       I    between atoms: C2_32  and  O2_60 
REMARK       I    between atoms: N_33  and  C2_46 
REMARK       I    between atoms: C6_35  and  O6_47 
REMARK       I    between atoms: C5_36  and  C6_40 
REMARK       I    between atoms: O4_38  and  C4_45 
REMARK       I    between atoms: C6_40  and  O6_59 
REMARK       I    between atoms: O2_41  and  S_54 
REMARK       I    between atoms: O1S_42  and  S1_53 
REMARK       I    between atoms: O3_43  and  C3_44 
REMARK       I    between atoms: O3S_50  and  S1_53 
REMARK       I    between atoms: O2S_52  and  S1_53 
REMARK       I    between atoms: S1_53  and  N_67 
ROOT
ATOM      1  C5  IDS d   1      19.020 -39.578  29.667  0.00  0.00     0.152 C 
ATOM      2  O2S IDS d   1      14.349 -41.879  31.094  0.00  0.00    -0.572 OA
ATOM      3  C4  IDS d   1      17.728 -39.280  30.434  0.00  0.00     0.097 C 
ATOM      4  C6  IDS d   1      19.277 -38.475  28.634  0.00  0.00     0.206 C 
ATOM      5  C2  IDS d   1      17.377 -41.751  30.626  0.00  0.00     0.134 C 
ATOM      6  C1  IDS d   1      18.698 -41.940  29.872  0.00  0.00     0.161 C 
ATOM      7  O61 IDS d   1      19.590 -38.819  27.471  0.00  0.00    -0.646 OA
ATOM      8  O3S IDS d   1      15.765 -43.836  30.718  0.00  0.00    -0.572 OA
ATOM      9  O2  IDS d   1      16.295 -41.736  29.688  0.00  0.00    -0.244 OA
ATOM     10  O3  IDS d   1      18.331 -40.490  32.462  0.00  0.00    -0.390 OA
ATOM     11  C3  IDS d   1      17.385 -40.426  31.389  0.00  0.00     0.094 C 
ATOM     12  O62 IDS d   1      19.189 -37.287  29.003  0.00  0.00    -0.646 OA
ATOM     13  S   IDS d   1      15.217 -42.586  30.097  0.00  0.00     0.252 S 
ATOM     14  O4  IDS d   1      16.647 -39.063  29.521  0.00  0.00    -0.390 OA
ATOM     15  O5  IDS d   1      18.925 -40.836  28.978  0.00  0.00    -0.340 OA
ATOM     16  O1S IDS d   1      14.395 -42.952  28.897  0.00  0.00    -0.572 OA
ATOM     17  H   IDS d   1      19.823 -39.619  30.372  0.00  0.00     0.104 H 
ATOM     18  H   IDS d   1      17.880 -38.393  31.011  0.00  0.00     0.091 H 
ATOM     19  H   IDS d   1      17.257 -42.558  31.319  0.00  0.00     0.097 H 
ATOM     20  H   IDS d   1      18.623 -42.848  29.311  0.00  0.00     0.133 H 
ATOM     21  H   IDS d   1      18.333 -39.648  32.943  0.00  0.00     0.210 HD
ATOM     22  H   IDS d   1      16.414 -40.246  31.802  0.00  0.00     0.091 H 
ATOM     23  H   IDS d   1      16.504 -39.865  28.994  0.00  0.00     0.210 HD
ATOM     24  S2  SGN d   2      19.648 -45.397  27.693  0.00  0.00     0.251 S 
ATOM     25  C2  SGN d   2      23.481 -41.734  30.221  0.00  0.00     0.081 C 
ATOM     26  O5S SGN d   2      19.715 -44.892  26.283  0.00  0.00    -0.572 OA
ATOM     27  O4S SGN d   2      18.252 -45.226  28.216  0.00  0.00    -0.572 OA
ATOM     28  C3  SGN d   2      22.093 -41.342  30.733  0.00  0.00     0.083 C 
ATOM     29  C1  SGN d   2      23.814 -43.180  30.596  0.00  0.00     0.150 C 
ATOM     30  O3  SGN d   2      21.766 -40.037  30.247  0.00  0.00    -0.391 OA
ATOM     31  C5  SGN d   2      21.479 -43.779  30.585  0.00  0.00     0.091 C 
ATOM     32  O4  SGN d   2      19.779 -42.048  30.759  0.00  0.00    -0.348 OA
ATOM     33  C6  SGN d   2      20.500 -44.764  29.939  0.00  0.00     0.067 C 
ATOM     34  O1S SGN d   2      25.207 -40.048  28.411  0.00  0.00    -0.296 OA
ATOM     35  C4  SGN d   2      21.068 -42.351  30.214  0.00  0.00     0.095 C 
ATOM     36  O6S SGN d   2      20.017 -46.851  27.716  0.00  0.00    -0.572 OA
ATOM     37  O3S SGN d   2      26.361 -41.963  29.433  0.00  0.00    -0.296 OA
ATOM     38  O2S SGN d   2      26.742 -39.696  30.277  0.00  0.00    -0.296 OA
ATOM     39  S1  SGN d   2      25.724 -40.630  29.693  0.00  0.00     0.156 S 
ATOM     40  O6  SGN d   2      20.554 -44.654  28.514  0.00  0.00    -0.254 OA
ATOM     41  N   SGN d   2      24.494 -40.809  30.749  0.00  0.00    -0.210 NA
ATOM     42  O5  SGN d   2      22.795 -44.054  30.078  0.00  0.00    -0.349 OA
ATOM     43  H   SGN d   2      23.481 -41.666  29.153  0.00  0.00     0.076 H 
ATOM     44  H   SGN d   2      22.086 -41.338  31.802  0.00  0.00     0.089 H 
ATOM     45  H   SGN d   2      24.765 -43.427  30.174  0.00  0.00     0.131 H 
ATOM     46  H   SGN d   2      21.773 -40.041  29.277  0.00  0.00     0.210 HD
ATOM     47  H   SGN d   2      21.470 -43.881  31.650  0.00  0.00     0.090 H 
ATOM     48  H   SGN d   2      19.507 -44.545  30.273  0.00  0.00     0.080 H 
ATOM     49  H   SGN d   2      20.770 -45.760  30.222  0.00  0.00     0.080 H 
ATOM     50  H   SGN d   2      25.940 -39.943  27.785  0.00  0.00     0.231 HD
ATOM     51  H   SGN d   2      21.025 -42.283  29.147  0.00  0.00     0.091 H 
ATOM     52  H   SGN d   2      27.092 -41.855  28.804  0.00  0.00     0.231 HD
ATOM     53  H   SGN d   2      27.476 -39.586  29.652  0.00  0.00     0.231 HD
ATOM     54  H   SGN d   2      24.860 -41.179  31.628  0.00  0.00     0.140 HD
ATOM     55  O3  SGN d   4      24.286 -47.023  36.254  0.00  0.00    -0.391 OA
ATOM     56  C5  SGN d   4      26.802 -44.796  37.941  0.00  0.00     0.091 C 
ATOM     57  C1  SGN d   4      26.297 -46.599  39.416  0.00  0.00     0.147 C 
ATOM     58  O1S SGN d   4      22.638 -48.166  39.547  0.00  0.00    -0.296 OA
ATOM     59  S2  SGN d   4      28.198 -41.484  39.070  0.00  0.00     0.251 S 
ATOM     60  S1  SGN d   4      23.939 -48.862  39.823  0.00  0.00     0.156 S 
ATOM     61  C4  SGN d   4      25.687 -45.191  36.970  0.00  0.00     0.095 C 
ATOM     62  O6S SGN d   4      29.668 -41.217  39.205  0.00  0.00    -0.572 OA
ATOM     63  O4  SGN d   4      26.042 -44.821  35.634  0.00  0.00    -0.348 OA
ATOM     64  N   SGN d   4      24.991 -48.530  38.623  0.00  0.00    -0.210 NA
ATOM     65  O3S SGN d   4      24.499 -48.383  41.130  0.00  0.00    -0.296 OA
ATOM     66  C6  SGN d   4      26.978 -43.278  37.893  0.00  0.00     0.067 C 
ATOM     67  O2S SGN d   4      23.710 -50.344  39.880  0.00  0.00    -0.296 OA
ATOM     68  C2  SGN d   4      25.166 -47.076  38.502  0.00  0.00     0.081 C 
ATOM     69  O6  SGN d   4      27.998 -42.875  38.807  0.00  0.00    -0.254 OA
ATOM     70  O4S SGN d   4      27.639 -40.677  37.935  0.00  0.00    -0.572 OA
ATOM     71  C3  SGN d   4      25.433 -46.698  37.044  0.00  0.00     0.083 C 
ATOM     72  O1  SGN d   4      27.526 -47.246  39.075  0.00  0.00    -0.369 OA
ATOM     73  O5  SGN d   4      26.435 -45.176  39.279  0.00  0.00    -0.350 OA
ATOM     74  O5S SGN d   4      27.494 -41.099  40.338  0.00  0.00    -0.572 OA
ATOM     75  H   SGN d   4      24.452 -46.784  35.328  0.00  0.00     0.210 HD
ATOM     76  H   SGN d   4      27.710 -45.288  37.664  0.00  0.00     0.090 H 
ATOM     77  H   SGN d   4      26.061 -46.846  40.430  0.00  0.00     0.131 H 
ATOM     78  H   SGN d   4      22.278 -48.477  38.702  0.00  0.00     0.231 HD
ATOM     79  H   SGN d   4      24.792 -44.675  37.247  0.00  0.00     0.091 H 
ATOM     80  H   SGN d   4      24.631 -48.902  37.744  0.00  0.00     0.140 HD
ATOM     81  H   SGN d   4      24.646 -47.425  41.087  0.00  0.00     0.231 HD
ATOM     82  H   SGN d   4      26.055 -42.807  38.161  0.00  0.00     0.080 H 
ATOM     83  H   SGN d   4      27.259 -42.988  36.903  0.00  0.00     0.080 H 
ATOM     84  H   SGN d   4      23.348 -50.648  39.033  0.00  0.00     0.231 HD
ATOM     85  H   SGN d   4      24.266 -46.587  38.813  0.00  0.00     0.076 H 
ATOM     86  H   SGN d   4      26.283 -47.234  36.674  0.00  0.00     0.089 H 
ATOM     87  H   SGN d   4      27.758 -47.034  38.157  0.00  0.00     0.212 HD
ATOM     88  C1  IDS d   3      25.405 -43.685  35.132  0.00  0.00     0.161 C 
ATOM     89  O61 IDS d   3      21.670 -44.664  34.008  0.00  0.00    -0.646 OA
ATOM     90  O3S IDS d   3      25.368 -39.514  34.045  0.00  0.00    -0.572 OA
ATOM     91  O3  IDS d   3      26.870 -45.213  32.997  0.00  0.00    -0.390 OA
ATOM     92  C5  IDS d   3      24.009 -45.012  33.729  0.00  0.00     0.152 C 
ATOM     93  O4  IDS d   3      23.888 -43.333  31.970  0.00  0.00    -0.348 OA
ATOM     94  S   IDS d   3      26.247 -40.727  34.126  0.00  0.00     0.252 S 
ATOM     95  C2  IDS d   3      26.152 -43.095  33.932  0.00  0.00     0.134 C 
ATOM     96  O2S IDS d   3      26.600 -40.958  35.565  0.00  0.00    -0.572 OA
ATOM     97  O5  IDS d   3      24.057 -44.021  34.766  0.00  0.00    -0.340 OA
ATOM     98  C6  IDS d   3      22.544 -45.381  33.486  0.00  0.00     0.206 C 
ATOM     99  C3  IDS d   3      26.086 -44.045  32.735  0.00  0.00     0.094 C 
ATOM    100  O2  IDS d   3      25.537 -41.848  33.589  0.00  0.00    -0.244 OA
ATOM    101  C4  IDS d   3      24.637 -44.453  32.452  0.00  0.00     0.103 C 
ATOM    102  O62 IDS d   3      22.307 -46.389  32.780  0.00  0.00    -0.646 OA
ATOM    103  O1S IDS d   3      27.495 -40.504  33.323  0.00  0.00    -0.572 OA
ATOM    104  H   IDS d   3      25.399 -42.938  35.898  0.00  0.00     0.133 H 
ATOM    105  H   IDS d   3      27.787 -44.953  33.176  0.00  0.00     0.210 HD
ATOM    106  H   IDS d   3      24.559 -45.884  34.020  0.00  0.00     0.104 H 
ATOM    107  H   IDS d   3      27.180 -42.949  34.187  0.00  0.00     0.097 H 
ATOM    108  H   IDS d   3      26.475 -43.539  31.876  0.00  0.00     0.091 H 
ATOM    109  H   IDS d   3      24.623 -45.209  31.695  0.00  0.00     0.092 H 
ENDROOT
TORSDOF 34
ENDMDL
MODEL 46
REMARK VINA RESULT:      -6.9      3.119     11.638
REMARK  0 active torsions:
REMARK  status: ('A' for Active; 'I' for Inactive)
REMARK       I    between atoms: C5_1  and  C6_10 
REMARK       I    between atoms: S2_2  and  O6_59 
REMARK       I    between atoms: O3_3  and  C3_61 
REMARK       I    between atoms: C5_5  and  C6_35 
REMARK       I    between atoms: C2_6  and  N_67 
REMARK       I    between atoms: C4_9  and  O4_55 
REMARK       I    between atoms: C1_11  and  O1_63 
REMARK       I    between atoms: C1_12  and  O4_30 
REMARK       I    between atoms: O1S_13  and  S1_24 
REMARK       I    between atoms: C3_14  and  O3_18 
REMARK       I    between atoms: C1_16  and  O4_29 
REMARK       I    between atoms: C2_19  and  O2_41 
REMARK       I    between atoms: C1_20  and  O4_38 
REMARK       I    between atoms: S2_21  and  O6_47 
REMARK       I    between atoms: O3_23  and  C3_58 
REMARK       I    between atoms: S1_24  and  N_33 
REMARK       I    between atoms: S1_24  and  O2S_37 
REMARK       I    between atoms: S1_24  and  O3S_34 
REMARK       I    between atoms: C4_25  and  O4_30 
REMARK       I    between atoms: C5_28  and  C6_56 
REMARK       I    between atoms: O4_29  and  C4_65 
REMARK       I    between atoms: S_31  and  O2_60 
REMARK       I    between atoms: C2_32  and  O2_60 
REMARK       I    between atoms: N_33  and  C2_46 
REMARK       I    between atoms: C6_35  and  O6_47 
REMARK       I    between atoms: C5_36  and  C6_40 
REMARK       I    between atoms: O4_38  and  C4_45 
REMARK       I    between atoms: C6_40  and  O6_59 
REMARK       I    between atoms: O2_41  and  S_54 
REMARK       I    between atoms: O1S_42  and  S1_53 
REMARK       I    between atoms: O3_43  and  C3_44 
REMARK       I    between atoms: O3S_50  and  S1_53 
REMARK       I    between atoms: O2S_52  and  S1_53 
REMARK       I    between atoms: S1_53  and  N_67 
ROOT
ATOM      1  C5  IDS d   1      22.852 -49.351  37.973  0.00  0.00     0.152 C 
ATOM      2  O2S IDS d   1      24.257 -47.266  42.750  0.00  0.00    -0.572 OA
ATOM      3  C4  IDS d   1      22.272 -49.038  39.356  0.00  0.00     0.097 C 
ATOM      4  C6  IDS d   1      22.559 -50.810  37.604  0.00  0.00     0.206 C 
ATOM      5  C2  IDS d   1      24.167 -47.437  39.690  0.00  0.00     0.134 C 
ATOM      6  C1  IDS d   1      24.649 -47.802  38.282  0.00  0.00     0.161 C 
ATOM      7  O61 IDS d   1      23.495 -51.500  37.142  0.00  0.00    -0.646 OA
ATOM      8  O3S IDS d   1      25.923 -46.263  41.268  0.00  0.00    -0.572 OA
ATOM      9  O2  IDS d   1      24.806 -48.291  40.645  0.00  0.00    -0.244 OA
ATOM     10  O3  IDS d   1      21.986 -46.644  38.995  0.00  0.00    -0.390 OA
ATOM     11  C3  IDS d   1      22.653 -47.623  39.798  0.00  0.00     0.094 C 
ATOM     12  O62 IDS d   1      21.396 -51.235  37.757  0.00  0.00    -0.646 OA
ATOM     13  S   IDS d   1      25.339 -47.556  41.753  0.00  0.00     0.252 S 
ATOM     14  O4  IDS d   1      22.734 -49.993  40.315  0.00  0.00    -0.390 OA
ATOM     15  O5  IDS d   1      24.275 -49.153  37.961  0.00  0.00    -0.340 OA
ATOM     16  O1S IDS d   1      26.415 -48.367  42.411  0.00  0.00    -0.572 OA
ATOM     17  H   IDS d   1      22.396 -48.691  37.265  0.00  0.00     0.104 H 
ATOM     18  H   IDS d   1      21.206 -49.096  39.291  0.00  0.00     0.091 H 
ATOM     19  H   IDS d   1      24.413 -46.414  39.884  0.00  0.00     0.097 H 
ATOM     20  H   IDS d   1      25.715 -47.712  38.272  0.00  0.00     0.133 H 
ATOM     21  H   IDS d   1      21.026 -46.766  39.066  0.00  0.00     0.210 HD
ATOM     22  H   IDS d   1      22.349 -47.492  40.817  0.00  0.00     0.091 H 
ATOM     23  H   IDS d   1      23.701 -49.945  40.379  0.00  0.00     0.210 HD
ATOM     24  S2  SGN d   2      28.625 -47.377  37.011  0.00  0.00     0.251 S 
ATOM     25  C2  SGN d   2      23.858 -47.209  33.585  0.00  0.00     0.081 C 
ATOM     26  O5S SGN d   2      29.051 -48.795  36.775  0.00  0.00    -0.572 OA
ATOM     27  O4S SGN d   2      28.301 -47.192  38.465  0.00  0.00    -0.572 OA
ATOM     28  C3  SGN d   2      23.362 -47.164  35.032  0.00  0.00     0.083 C 
ATOM     29  C1  SGN d   2      24.764 -46.014  33.280  0.00  0.00     0.150 C 
ATOM     30  O3  SGN d   2      22.634 -48.362  35.315  0.00  0.00    -0.391 OA
ATOM     31  C5  SGN d   2      25.455 -45.878  35.585  0.00  0.00     0.091 C 
ATOM     32  O4  SGN d   2      24.115 -46.933  37.319  0.00  0.00    -0.348 OA
ATOM     33  C6  SGN d   2      26.712 -45.892  36.459  0.00  0.00     0.067 C 
ATOM     34  O1S SGN d   2      23.430 -49.500  31.670  0.00  0.00    -0.296 OA
ATOM     35  C4  SGN d   2      24.568 -47.066  35.968  0.00  0.00     0.095 C 
ATOM     36  O6S SGN d   2      29.743 -46.454  36.626  0.00  0.00    -0.572 OA
ATOM     37  O3S SGN d   2      24.256 -47.433  30.625  0.00  0.00    -0.296 OA
ATOM     38  O2S SGN d   2      21.906 -48.085  30.388  0.00  0.00    -0.296 OA
ATOM     39  S1  SGN d   2      23.090 -48.084  31.311  0.00  0.00     0.156 S 
ATOM     40  O6  SGN d   2      27.465 -47.086  36.228  0.00  0.00    -0.254 OA
ATOM     41  N   SGN d   2      22.715 -47.249  32.660  0.00  0.00    -0.210 NA
ATOM     42  O5  SGN d   2      25.860 -45.996  34.211  0.00  0.00    -0.349 OA
ATOM     43  H   SGN d   2      24.437 -48.099  33.451  0.00  0.00     0.076 H 
ATOM     44  H   SGN d   2      22.726 -46.316  35.174  0.00  0.00     0.089 H 
ATOM     45  H   SGN d   2      25.129 -46.114  32.279  0.00  0.00     0.131 H 
ATOM     46  H   SGN d   2      23.212 -49.130  35.186  0.00  0.00     0.210 HD
ATOM     47  H   SGN d   2      24.906 -44.971  35.726  0.00  0.00     0.090 H 
ATOM     48  H   SGN d   2      26.426 -45.849  37.489  0.00  0.00     0.080 H 
ATOM     49  H   SGN d   2      27.318 -45.045  36.212  0.00  0.00     0.080 H 
ATOM     50  H   SGN d   2      23.652 -49.993  30.865  0.00  0.00     0.231 HD
ATOM     51  H   SGN d   2      25.150 -47.960  35.877  0.00  0.00     0.091 H 
ATOM     52  H   SGN d   2      24.478 -47.931  29.823  0.00  0.00     0.231 HD
ATOM     53  H   SGN d   2      22.125 -48.581  29.583  0.00  0.00     0.231 HD
ATOM     54  H   SGN d   2      22.459 -46.296  32.403  0.00  0.00     0.140 HD
ATOM     55  O3  SGN d   4      24.446 -39.168  33.466  0.00  0.00    -0.391 OA
ATOM     56  C5  SGN d   4      21.442 -38.928  31.218  0.00  0.00     0.091 C 
ATOM     57  C1  SGN d   4      22.056 -36.721  31.877  0.00  0.00     0.147 C 
ATOM     58  O1S SGN d   4      23.553 -36.014  35.498  0.00  0.00    -0.296 OA
ATOM     59  S2  SGN d   4      17.999 -39.886  30.026  0.00  0.00     0.251 S 
ATOM     60  S1  SGN d   4      23.833 -35.259  34.232  0.00  0.00     0.156 S 
ATOM     61  C4  SGN d   4      22.432 -39.566  32.195  0.00  0.00     0.095 C 
ATOM     62  O6S SGN d   4      17.576 -39.803  28.589  0.00  0.00    -0.572 OA
ATOM     63  O4  SGN d   4      22.896 -40.819  31.680  0.00  0.00    -0.348 OA
ATOM     64  N   SGN d   4      24.186 -36.316  33.042  0.00  0.00    -0.210 NA
ATOM     65  O3S SGN d   4      22.626 -34.455  33.849  0.00  0.00    -0.296 OA
ATOM     66  C6  SGN d   4      20.240 -39.859  31.060  0.00  0.00     0.067 C 
ATOM     67  O2S SGN d   4      25.005 -34.347  34.444  0.00  0.00    -0.296 OA
ATOM     68  C2  SGN d   4      23.078 -37.267  32.876  0.00  0.00     0.081 C 
ATOM     69  O6  SGN d   4      19.286 -39.280  30.169  0.00  0.00    -0.254 OA
ATOM     70  O4S SGN d   4      18.074 -41.323  30.449  0.00  0.00    -0.572 OA
ATOM     71  C3  SGN d   4      23.617 -38.629  32.433  0.00  0.00     0.083 C 
ATOM     72  O1  SGN d   4      22.668 -36.493  30.605  0.00  0.00    -0.369 OA
ATOM     73  O5  SGN d   4      20.985 -37.670  31.744  0.00  0.00    -0.350 OA
ATOM     74  O5S SGN d   4      17.001 -39.172  30.890  0.00  0.00    -0.572 OA
ATOM     75  H   SGN d   4      24.789 -40.032  33.189  0.00  0.00     0.210 HD
ATOM     76  H   SGN d   4      21.920 -38.770  30.274  0.00  0.00     0.090 H 
ATOM     77  H   SGN d   4      21.673 -35.789  32.235  0.00  0.00     0.131 H 
ATOM     78  H   SGN d   4      24.335 -36.534  35.744  0.00  0.00     0.231 HD
ATOM     79  H   SGN d   4      21.932 -39.738  33.125  0.00  0.00     0.091 H 
ATOM     80  H   SGN d   4      25.036 -36.825  33.283  0.00  0.00     0.140 HD
ATOM     81  H   SGN d   4      21.871 -35.049  33.712  0.00  0.00     0.231 HD
ATOM     82  H   SGN d   4      19.784 -40.013  32.016  0.00  0.00     0.080 H 
ATOM     83  H   SGN d   4      20.570 -40.795  30.660  0.00  0.00     0.080 H 
ATOM     84  H   SGN d   4      25.783 -34.871  34.691  0.00  0.00     0.231 HD
ATOM     85  H   SGN d   4      22.582 -37.395  33.815  0.00  0.00     0.076 H 
ATOM     86  H   SGN d   4      24.190 -38.524  31.535  0.00  0.00     0.089 H 
ATOM     87  H   SGN d   4      23.022 -37.328  30.262  0.00  0.00     0.212 HD
ATOM     88  C1  IDS d   3      22.341 -41.957  32.265  0.00  0.00     0.161 C 
ATOM     89  O61 IDS d   3      24.118 -42.607  35.813  0.00  0.00    -0.646 OA
ATOM     90  O3S IDS d   3      19.648 -45.323  32.230  0.00  0.00    -0.572 OA
ATOM     91  O3  IDS d   3      24.700 -42.605  30.520  0.00  0.00    -0.390 OA
ATOM     92  C5  IDS d   3      24.357 -42.405  33.453  0.00  0.00     0.152 C 
ATOM     93  O4  IDS d   3      24.066 -44.822  33.377  0.00  0.00    -0.348 OA
ATOM     94  S   IDS d   3      20.495 -44.452  31.349  0.00  0.00     0.252 S 
ATOM     95  C2  IDS d   3      22.513 -43.196  31.383  0.00  0.00     0.134 C 
ATOM     96  O2S IDS d   3      19.796 -43.136  31.177  0.00  0.00    -0.572 OA
ATOM     97  O5  IDS d   3      22.944 -42.170  33.552  0.00  0.00    -0.340 OA
ATOM     98  C6  IDS d   3      24.925 -42.513  34.870  0.00  0.00     0.206 C 
ATOM     99  C3  IDS d   3      23.990 -43.585  31.283  0.00  0.00     0.094 C 
ATOM    100  O2  IDS d   3      21.772 -44.272  31.969  0.00  0.00    -0.244 OA
ATOM    101  C4  IDS d   3      24.611 -43.699  32.678  0.00  0.00     0.103 C 
ATOM    102  O62 IDS d   3      26.171 -42.493  35.001  0.00  0.00    -0.646 OA
ATOM    103  O1S IDS d   3      20.682 -45.109  30.014  0.00  0.00    -0.572 OA
ATOM    104  H   IDS d   3      21.289 -41.796  32.380  0.00  0.00     0.133 H 
ATOM    105  H   IDS d   3      24.306 -42.534  29.637  0.00  0.00     0.210 HD
ATOM    106  H   IDS d   3      24.834 -41.602  32.931  0.00  0.00     0.104 H 
ATOM    107  H   IDS d   3      22.155 -42.986  30.397  0.00  0.00     0.097 H 
ATOM    108  H   IDS d   3      24.059 -44.536  30.796  0.00  0.00     0.091 H 
ATOM    109  H   IDS d   3      25.666 -43.850  32.584  0.00  0.00     0.092 H 
ENDROOT
TORSDOF 34
ENDMDL
MODEL 47
REMARK VINA RESULT:      -6.9      3.387     11.352
REMARK  0 active torsions:
REMARK  status: ('A' for Active; 'I' for Inactive)
REMARK       I    between atoms: C5_1  and  C6_10 
REMARK       I    between atoms: S2_2  and  O6_59 
REMARK       I    between atoms: O3_3  and  C3_61 
REMARK       I    between atoms: C5_5  and  C6_35 
REMARK       I    between atoms: C2_6  and  N_67 
REMARK       I    between atoms: C4_9  and  O4_55 
REMARK       I    between atoms: C1_11  and  O1_63 
REMARK       I    between atoms: C1_12  and  O4_30 
REMARK       I    between atoms: O1S_13  and  S1_24 
REMARK       I    between atoms: C3_14  and  O3_18 
REMARK       I    between atoms: C1_16  and  O4_29 
REMARK       I    between atoms: C2_19  and  O2_41 
REMARK       I    between atoms: C1_20  and  O4_38 
REMARK       I    between atoms: S2_21  and  O6_47 
REMARK       I    between atoms: O3_23  and  C3_58 
REMARK       I    between atoms: S1_24  and  N_33 
REMARK       I    between atoms: S1_24  and  O2S_37 
REMARK       I    between atoms: S1_24  and  O3S_34 
REMARK       I    between atoms: C4_25  and  O4_30 
REMARK       I    between atoms: C5_28  and  C6_56 
REMARK       I    between atoms: O4_29  and  C4_65 
REMARK       I    between atoms: S_31  and  O2_60 
REMARK       I    between atoms: C2_32  and  O2_60 
REMARK       I    between atoms: N_33  and  C2_46 
REMARK       I    between atoms: C6_35  and  O6_47 
REMARK       I    between atoms: C5_36  and  C6_40 
REMARK       I    between atoms: O4_38  and  C4_45 
REMARK       I    between atoms: C6_40  and  O6_59 
REMARK       I    between atoms: O2_41  and  S_54 
REMARK       I    between atoms: O1S_42  and  S1_53 
REMARK       I    between atoms: O3_43  and  C3_44 
REMARK       I    between atoms: O3S_50  and  S1_53 
REMARK       I    between atoms: O2S_52  and  S1_53 
REMARK       I    between atoms: S1_53  and  N_67 
ROOT
ATOM      1  C5  IDS d   1      16.107 -44.687  32.646  0.00  0.00     0.152 C 
ATOM      2  O2S IDS d   1      16.601 -48.497  36.439  0.00  0.00    -0.572 OA
ATOM      3  C4  IDS d   1      15.539 -45.096  34.009  0.00  0.00     0.097 C 
ATOM      4  C6  IDS d   1      14.962 -44.455  31.654  0.00  0.00     0.206 C 
ATOM      5  C2  IDS d   1      17.594 -46.484  34.350  0.00  0.00     0.134 C 
ATOM      6  C1  IDS d   1      18.083 -45.994  32.983  0.00  0.00     0.161 C 
ATOM      7  O61 IDS d   1      15.058 -44.964  30.515  0.00  0.00    -0.646 OA
ATOM      8  O3S IDS d   1      18.770 -48.636  35.319  0.00  0.00    -0.572 OA
ATOM      9  O2  IDS d   1      16.873 -47.710  34.183  0.00  0.00    -0.244 OA
ATOM     10  O3  IDS d   1      17.412 -44.280  35.339  0.00  0.00    -0.390 OA
ATOM     11  C3  IDS d   1      16.665 -45.448  34.985  0.00  0.00     0.094 C 
ATOM     12  O62 IDS d   1      14.001 -43.748  32.017  0.00  0.00    -0.646 OA
ATOM     13  S   IDS d   1      17.286 -48.709  35.122  0.00  0.00     0.252 S 
ATOM     14  O4  IDS d   1      14.650 -46.207  33.863  0.00  0.00    -0.390 OA
ATOM     15  O5  IDS d   1      16.965 -45.715  32.123  0.00  0.00    -0.340 OA
ATOM     16  O1S IDS d   1      16.927 -50.064  34.589  0.00  0.00    -0.572 OA
ATOM     17  H   IDS d   1      16.672 -43.788  32.778  0.00  0.00     0.104 H 
ATOM     18  H   IDS d   1      14.996 -44.265  34.407  0.00  0.00     0.091 H 
ATOM     19  H   IDS d   1      18.442 -46.636  34.985  0.00  0.00     0.097 H 
ATOM     20  H   IDS d   1      18.680 -46.772  32.555  0.00  0.00     0.133 H 
ATOM     21  H   IDS d   1      16.818 -43.626  35.741  0.00  0.00     0.210 HD
ATOM     22  H   IDS d   1      16.229 -45.856  35.873  0.00  0.00     0.091 H 
ATOM     23  H   IDS d   1      15.137 -46.965  33.503  0.00  0.00     0.210 HD
ATOM     24  S2  SGN d   2      20.850 -48.088  30.625  0.00  0.00     0.251 S 
ATOM     25  C2  SGN d   2      19.957 -42.283  30.583  0.00  0.00     0.081 C 
ATOM     26  O5S SGN d   2      20.039 -48.473  29.424  0.00  0.00    -0.572 OA
ATOM     27  O4S SGN d   2      20.281 -48.753  31.844  0.00  0.00    -0.572 OA
ATOM     28  C3  SGN d   2      19.195 -42.837  31.789  0.00  0.00     0.083 C 
ATOM     29  C1  SGN d   2      21.454 -42.581  30.697  0.00  0.00     0.150 C 
ATOM     30  O3  SGN d   2      17.792 -42.659  31.580  0.00  0.00    -0.391 OA
ATOM     31  C5  SGN d   2      21.016 -44.563  31.997  0.00  0.00     0.091 C 
ATOM     32  O4  SGN d   2      18.870 -44.840  33.107  0.00  0.00    -0.348 OA
ATOM     33  C6  SGN d   2      21.288 -46.071  32.007  0.00  0.00     0.067 C 
ATOM     34  O1S SGN d   2      18.685 -41.081  28.126  0.00  0.00    -0.296 OA
ATOM     35  C4  SGN d   2      19.505 -44.328  31.930  0.00  0.00     0.095 C 
ATOM     36  O6S SGN d   2      22.269 -48.535  30.427  0.00  0.00    -0.572 OA
ATOM     37  O3S SGN d   2      21.108 -40.708  28.311  0.00  0.00    -0.296 OA
ATOM     38  O2S SGN d   2      19.537 -38.896  28.808  0.00  0.00    -0.296 OA
ATOM     39  S1  SGN d   2      19.765 -40.377  28.892  0.00  0.00     0.156 S 
ATOM     40  O6  SGN d   2      20.809 -46.669  30.799  0.00  0.00    -0.254 OA
ATOM     41  N   SGN d   2      19.719 -40.838  30.456  0.00  0.00    -0.210 NA
ATOM     42  O5  SGN d   2      21.649 -44.000  30.836  0.00  0.00    -0.349 OA
ATOM     43  H   SGN d   2      19.595 -42.768  29.700  0.00  0.00     0.076 H 
ATOM     44  H   SGN d   2      19.493 -42.322  32.678  0.00  0.00     0.089 H 
ATOM     45  H   SGN d   2      21.937 -42.225  29.811  0.00  0.00     0.131 H 
ATOM     46  H   SGN d   2      17.523 -43.127  30.773  0.00  0.00     0.210 HD
ATOM     47  H   SGN d   2      21.404 -44.103  32.882  0.00  0.00     0.090 H 
ATOM     48  H   SGN d   2      20.787 -46.513  32.843  0.00  0.00     0.080 H 
ATOM     49  H   SGN d   2      22.342 -46.234  32.083  0.00  0.00     0.080 H 
ATOM     50  H   SGN d   2      18.716 -40.805  27.197  0.00  0.00     0.231 HD
ATOM     51  H   SGN d   2      19.125 -44.843  31.072  0.00  0.00     0.091 H 
ATOM     52  H   SGN d   2      21.134 -40.435  27.380  0.00  0.00     0.231 HD
ATOM     53  H   SGN d   2      19.564 -38.618  27.879  0.00  0.00     0.231 HD
ATOM     54  H   SGN d   2      20.438 -40.333  30.974  0.00  0.00     0.140 HD
ATOM     55  O3  SGN d   4      26.588 -41.409  35.086  0.00  0.00    -0.391 OA
ATOM     56  C5  SGN d   4      26.164 -37.673  35.081  0.00  0.00     0.091 C 
ATOM     57  C1  SGN d   4      27.941 -38.217  36.573  0.00  0.00     0.147 C 
ATOM     58  O1S SGN d   4      27.843 -41.564  38.729  0.00  0.00    -0.296 OA
ATOM     59  S2  SGN d   4      24.182 -34.474  35.250  0.00  0.00     0.251 S 
ATOM     60  S1  SGN d   4      29.057 -40.841  38.221  0.00  0.00     0.156 S 
ATOM     61  C4  SGN d   4      25.775 -39.142  34.902  0.00  0.00     0.095 C 
ATOM     62  O6S SGN d   4      24.589 -33.218  34.536  0.00  0.00    -0.572 OA
ATOM     63  O4  SGN d   4      25.219 -39.351  33.600  0.00  0.00    -0.348 OA
ATOM     64  N   SGN d   4      28.857 -40.502  36.639  0.00  0.00    -0.210 NA
ATOM     65  O3S SGN d   4      29.241 -39.566  38.990  0.00  0.00    -0.296 OA
ATOM     66  C6  SGN d   4      24.906 -36.814  34.952  0.00  0.00     0.067 C 
ATOM     67  O2S SGN d   4      30.264 -41.716  38.388  0.00  0.00    -0.296 OA
ATOM     68  C2  SGN d   4      27.633 -39.711  36.450  0.00  0.00     0.081 C 
ATOM     69  O6  SGN d   4      25.232 -35.436  35.136  0.00  0.00    -0.254 OA
ATOM     70  O4S SGN d   4      22.931 -35.024  34.630  0.00  0.00    -0.572 OA
ATOM     71  C3  SGN d   4      26.999 -40.039  35.096  0.00  0.00     0.083 C 
ATOM     72  O1  SGN d   4      28.907 -37.821  35.595  0.00  0.00    -0.369 OA
ATOM     73  O5  SGN d   4      26.724 -37.476  36.390  0.00  0.00    -0.350 OA
ATOM     74  O5S SGN d   4      23.921 -34.173  36.696  0.00  0.00    -0.572 OA
ATOM     75  H   SGN d   4      26.186 -41.620  34.229  0.00  0.00     0.210 HD
ATOM     76  H   SGN d   4      26.883 -37.399  34.338  0.00  0.00     0.090 H 
ATOM     77  H   SGN d   4      28.347 -38.018  37.542  0.00  0.00     0.131 H 
ATOM     78  H   SGN d   4      27.725 -42.388  38.231  0.00  0.00     0.231 HD
ATOM     79  H   SGN d   4      25.041 -39.394  35.637  0.00  0.00     0.091 H 
ATOM     80  H   SGN d   4      28.782 -41.372  36.112  0.00  0.00     0.140 HD
ATOM     81  H   SGN d   4      28.458 -39.005  38.878  0.00  0.00     0.231 HD
ATOM     82  H   SGN d   4      24.196 -37.113  35.695  0.00  0.00     0.080 H 
ATOM     83  H   SGN d   4      24.488 -36.948  33.976  0.00  0.00     0.080 H 
ATOM     84  H   SGN d   4      30.140 -42.538  37.889  0.00  0.00     0.231 HD
ATOM     85  H   SGN d   4      26.930 -39.964  37.216  0.00  0.00     0.076 H 
ATOM     86  H   SGN d   4      27.706 -39.874  34.309  0.00  0.00     0.089 H 
ATOM     87  H   SGN d   4      28.557 -37.994  34.707  0.00  0.00     0.212 HD
ATOM     88  C1  IDS d   3      23.831 -39.488  33.549  0.00  0.00     0.161 C 
ATOM     89  O61 IDS d   3      22.836 -43.205  34.715  0.00  0.00    -0.646 OA
ATOM     90  O3S IDS d   3      19.889 -37.966  32.698  0.00  0.00    -0.572 OA
ATOM     91  O3  IDS d   3      25.148 -40.230  30.952  0.00  0.00    -0.390 OA
ATOM     92  C5  IDS d   3      24.014 -41.832  33.166  0.00  0.00     0.152 C 
ATOM     93  O4  IDS d   3      22.008 -41.937  31.791  0.00  0.00    -0.348 OA
ATOM     94  S   IDS d   3      21.323 -37.899  32.263  0.00  0.00     0.252 S 
ATOM     95  C2  IDS d   3      23.283 -39.239  32.141  0.00  0.00     0.134 C 
ATOM     96  O2S IDS d   3      22.076 -37.061  33.253  0.00  0.00    -0.572 OA
ATOM     97  O5  IDS d   3      23.468 -40.801  34.004  0.00  0.00    -0.340 OA
ATOM     98  C6  IDS d   3      23.665 -43.187  33.787  0.00  0.00     0.206 C 
ATOM     99  C3  IDS d   3      23.740 -40.340  31.183  0.00  0.00     0.094 C 
ATOM    100  O2  IDS d   3      21.853 -39.227  32.212  0.00  0.00    -0.244 OA
ATOM    101  C4  IDS d   3      23.422 -41.722  31.761  0.00  0.00     0.103 C 
ATOM    102  O62 IDS d   3      24.243 -44.202  33.330  0.00  0.00    -0.646 OA
ATOM    103  O1S IDS d   3      21.411 -37.280  30.899  0.00  0.00    -0.572 OA
ATOM    104  H   IDS d   3      23.398 -38.748  34.191  0.00  0.00     0.133 H 
ATOM    105  H   IDS d   3      25.348 -39.355  30.585  0.00  0.00     0.210 HD
ATOM    106  H   IDS d   3      25.077 -41.730  33.092  0.00  0.00     0.104 H 
ATOM    107  H   IDS d   3      23.649 -38.303  31.775  0.00  0.00     0.097 H 
ATOM    108  H   IDS d   3      23.216 -40.225  30.257  0.00  0.00     0.091 H 
ATOM    109  H   IDS d   3      23.857 -42.475  31.138  0.00  0.00     0.092 H 
ENDROOT
TORSDOF 34
ENDMDL
MODEL 48
REMARK VINA RESULT:      -6.5      4.077      5.844
REMARK  0 active torsions:
REMARK  status: ('A' for Active; 'I' for Inactive)
REMARK       I    between atoms: C5_1  and  C6_10 
REMARK       I    between atoms: S2_2  and  O6_59 
REMARK       I    between atoms: O3_3  and  C3_61 
REMARK       I    between atoms: C5_5  and  C6_35 
REMARK       I    between atoms: C2_6  and  N_67 
REMARK       I    between atoms: C4_9  and  O4_55 
REMARK       I    between atoms: C1_11  and  O1_63 
REMARK       I    between atoms: C1_12  and  O4_30 
REMARK       I    between atoms: O1S_13  and  S1_24 
REMARK       I    between atoms: C3_14  and  O3_18 
REMARK       I    between atoms: C1_16  and  O4_29 
REMARK       I    between atoms: C2_19  and  O2_41 
REMARK       I    between atoms: C1_20  and  O4_38 
REMARK       I    between atoms: S2_21  and  O6_47 
REMARK       I    between atoms: O3_23  and  C3_58 
REMARK       I    between atoms: S1_24  and  N_33 
REMARK       I    between atoms: S1_24  and  O2S_37 
REMARK       I    between atoms: S1_24  and  O3S_34 
REMARK       I    between atoms: C4_25  and  O4_30 
REMARK       I    between atoms: C5_28  and  C6_56 
REMARK       I    between atoms: O4_29  and  C4_65 
REMARK       I    between atoms: S_31  and  O2_60 
REMARK       I    between atoms: C2_32  and  O2_60 
REMARK       I    between atoms: N_33  and  C2_46 
REMARK       I    between atoms: C6_35  and  O6_47 
REMARK       I    between atoms: C5_36  and  C6_40 
REMARK       I    between atoms: O4_38  and  C4_45 
REMARK       I    between atoms: C6_40  and  O6_59 
REMARK       I    between atoms: O2_41  and  S_54 
REMARK       I    between atoms: O1S_42  and  S1_53 
REMARK       I    between atoms: O3_43  and  C3_44 
REMARK       I    between atoms: O3S_50  and  S1_53 
REMARK       I    between atoms: O2S_52  and  S1_53 
REMARK       I    between atoms: S1_53  and  N_67 
ROOT
ATOM      1  C5  IDS d   1      20.034 -34.172  32.139  0.00  0.00     0.152 C 
ATOM      2  O2S IDS d   1      15.208 -33.959  29.730  0.00  0.00    -0.572 OA
ATOM      3  C4  IDS d   1      18.546 -34.000  32.460  0.00  0.00     0.097 C 
ATOM      4  C6  IDS d   1      20.840 -33.041  32.788  0.00  0.00     0.206 C 
ATOM      5  C2  IDS d   1      18.038 -35.026  30.234  0.00  0.00     0.134 C 
ATOM      6  C1  IDS d   1      19.549 -35.176  30.022  0.00  0.00     0.161 C 
ATOM      7  O61 IDS d   1      21.698 -32.454  32.090  0.00  0.00    -0.646 OA
ATOM      8  O3S IDS d   1      16.525 -35.195  28.082  0.00  0.00    -0.572 OA
ATOM      9  O2  IDS d   1      17.605 -33.776  29.684  0.00  0.00    -0.244 OA
ATOM     10  O3  IDS d   1      17.951 -36.355  32.258  0.00  0.00    -0.390 OA
ATOM     11  C3  IDS d   1      17.706 -35.048  31.727  0.00  0.00     0.094 C 
ATOM     12  O62 IDS d   1      20.625 -32.775  33.987  0.00  0.00    -0.646 OA
ATOM     13  S   IDS d   1      16.436 -33.923  28.870  0.00  0.00     0.252 S 
ATOM     14  O4  IDS d   1      18.111 -32.684  32.103  0.00  0.00    -0.390 OA
ATOM     15  O5  IDS d   1      20.257 -34.136  30.719  0.00  0.00    -0.340 OA
ATOM     16  O1S IDS d   1      16.345 -32.763  27.924  0.00  0.00    -0.572 OA
ATOM     17  H   IDS d   1      20.349 -35.120  32.523  0.00  0.00     0.104 H 
ATOM     18  H   IDS d   1      18.414 -34.137  33.513  0.00  0.00     0.091 H 
ATOM     19  H   IDS d   1      17.539 -35.838  29.748  0.00  0.00     0.097 H 
ATOM     20  H   IDS d   1      19.737 -35.097  28.972  0.00  0.00     0.133 H 
ATOM     21  H   IDS d   1      17.739 -36.364  33.205  0.00  0.00     0.210 HD
ATOM     22  H   IDS d   1      16.671 -34.813  31.866  0.00  0.00     0.091 H 
ATOM     23  H   IDS d   1      18.228 -32.554  31.149  0.00  0.00     0.210 HD
ATOM     24  S2  SGN d   2      21.341 -35.448  26.239  0.00  0.00     0.251 S 
ATOM     25  C2  SGN d   2      23.453 -37.688  31.240  0.00  0.00     0.081 C 
ATOM     26  O5S SGN d   2      22.156 -34.191  26.167  0.00  0.00    -0.572 OA
ATOM     27  O4S SGN d   2      19.886 -35.092  26.331  0.00  0.00    -0.572 OA
ATOM     28  C3  SGN d   2      22.021 -37.234  31.531  0.00  0.00     0.083 C 
ATOM     29  C1  SGN d   2      23.477 -38.751  30.139  0.00  0.00     0.150 C 
ATOM     30  O3  SGN d   2      22.052 -36.150  32.463  0.00  0.00    -0.391 OA
ATOM     31  C5  SGN d   2      21.466 -37.858  29.156  0.00  0.00     0.091 C 
ATOM     32  O4  SGN d   2      20.004 -36.425  30.468  0.00  0.00    -0.348 OA
ATOM     33  C6  SGN d   2      20.925 -37.307  27.833  0.00  0.00     0.067 C 
ATOM     34  O1S SGN d   2      25.942 -36.434  32.394  0.00  0.00    -0.296 OA
ATOM     35  C4  SGN d   2      21.372 -36.768  30.227  0.00  0.00     0.095 C 
ATOM     36  O6S SGN d   2      21.580 -36.263  25.002  0.00  0.00    -0.572 OA
ATOM     37  O3S SGN d   2      26.308 -38.591  31.272  0.00  0.00    -0.296 OA
ATOM     38  O2S SGN d   2      26.294 -38.456  33.717  0.00  0.00    -0.296 OA
ATOM     39  S1  SGN d   2      25.688 -37.911  32.457  0.00  0.00     0.156 S 
ATOM     40  O6  SGN d   2      21.719 -36.199  27.395  0.00  0.00    -0.254 OA
ATOM     41  N   SGN d   2      24.082 -38.193  32.470  0.00  0.00    -0.210 NA
ATOM     42  O5  SGN d   2      22.841 -38.231  28.959  0.00  0.00    -0.349 OA
ATOM     43  H   SGN d   2      24.012 -36.845  30.892  0.00  0.00     0.076 H 
ATOM     44  H   SGN d   2      21.457 -38.045  31.944  0.00  0.00     0.089 H 
ATOM     45  H   SGN d   2      24.497 -38.999  29.932  0.00  0.00     0.131 H 
ATOM     46  H   SGN d   2      22.564 -35.416  32.088  0.00  0.00     0.210 HD
ATOM     47  H   SGN d   2      20.900 -38.709  29.471  0.00  0.00     0.090 H 
ATOM     48  H   SGN d   2      19.915 -36.983  27.973  0.00  0.00     0.080 H 
ATOM     49  H   SGN d   2      20.964 -38.077  27.092  0.00  0.00     0.080 H 
ATOM     50  H   SGN d   2      26.898 -36.270  32.387  0.00  0.00     0.231 HD
ATOM     51  H   SGN d   2      21.895 -35.905  29.870  0.00  0.00     0.091 H 
ATOM     52  H   SGN d   2      27.264 -38.422  31.265  0.00  0.00     0.231 HD
ATOM     53  H   SGN d   2      27.250 -38.291  33.714  0.00  0.00     0.231 HD
ATOM     54  H   SGN d   2      23.920 -39.198  32.541  0.00  0.00     0.140 HD
ATOM     55  O3  SGN d   4      20.762 -44.928  28.925  0.00  0.00    -0.391 OA
ATOM     56  C5  SGN d   4      22.126 -46.496  32.059  0.00  0.00     0.091 C 
ATOM     57  C1  SGN d   4      20.847 -48.140  30.900  0.00  0.00     0.147 C 
ATOM     58  O1S SGN d   4      17.592 -47.121  28.846  0.00  0.00    -0.296 OA
ATOM     59  S2  SGN d   4      22.874 -46.630  35.748  0.00  0.00     0.251 S 
ATOM     60  S1  SGN d   4      18.526 -48.262  28.567  0.00  0.00     0.156 S 
ATOM     61  C4  SGN d   4      21.664 -45.380  31.119  0.00  0.00     0.095 C 
ATOM     62  O6S SGN d   4      24.068 -47.337  36.318  0.00  0.00    -0.572 OA
ATOM     63  O4  SGN d   4      22.679 -44.377  31.008  0.00  0.00    -0.348 OA
ATOM     64  N   SGN d   4      20.063 -47.719  28.604  0.00  0.00    -0.210 NA
ATOM     65  O3S SGN d   4      18.343 -49.327  29.607  0.00  0.00    -0.296 OA
ATOM     66  C6  SGN d   4      22.368 -45.900  33.446  0.00  0.00     0.067 C 
ATOM     67  O2S SGN d   4      18.235 -48.823  27.207  0.00  0.00    -0.296 OA
ATOM     68  C2  SGN d   4      20.339 -47.095  29.906  0.00  0.00     0.081 C 
ATOM     69  O6  SGN d   4      22.779 -46.924  34.353  0.00  0.00    -0.254 OA
ATOM     70  O4S SGN d   4      23.025 -45.149  35.938  0.00  0.00    -0.572 OA
ATOM     71  C3  SGN d   4      21.343 -45.952  29.738  0.00  0.00     0.083 C 
ATOM     72  O1  SGN d   4      22.044 -48.755  30.415  0.00  0.00    -0.369 OA
ATOM     73  O5  SGN d   4      21.100 -47.498  32.160  0.00  0.00    -0.350 OA
ATOM     74  O5S SGN d   4      21.630 -47.090  36.451  0.00  0.00    -0.572 OA
ATOM     75  H   SGN d   4      21.397 -44.202  28.817  0.00  0.00     0.210 HD
ATOM     76  H   SGN d   4      23.023 -46.937  31.679  0.00  0.00     0.090 H 
ATOM     77  H   SGN d   4      20.108 -48.903  31.021  0.00  0.00     0.131 H 
ATOM     78  H   SGN d   4      17.711 -46.433  28.174  0.00  0.00     0.231 HD
ATOM     79  H   SGN d   4      20.780 -44.935  31.525  0.00  0.00     0.091 H 
ATOM     80  H   SGN d   4      20.197 -47.031  27.864  0.00  0.00     0.140 HD
ATOM     81  H   SGN d   4      18.533 -48.960  30.485  0.00  0.00     0.231 HD
ATOM     82  H   SGN d   4      21.463 -45.454  33.802  0.00  0.00     0.080 H 
ATOM     83  H   SGN d   4      23.137 -45.159  33.380  0.00  0.00     0.080 H 
ATOM     84  H   SGN d   4      18.355 -48.130  26.538  0.00  0.00     0.231 HD
ATOM     85  H   SGN d   4      19.431 -46.684  30.298  0.00  0.00     0.076 H 
ATOM     86  H   SGN d   4      22.237 -46.313  29.271  0.00  0.00     0.089 H 
ATOM     87  H   SGN d   4      22.730 -48.078  30.298  0.00  0.00     0.212 HD
ATOM     88  C1  IDS d   3      22.448 -43.200  31.722  0.00  0.00     0.161 C 
ATOM     89  O61 IDS d   3      19.807 -40.937  29.705  0.00  0.00    -0.646 OA
ATOM     90  O3S IDS d   3      23.167 -40.581  35.070  0.00  0.00    -0.572 OA
ATOM     91  O3  IDS d   3      24.741 -42.937  29.797  0.00  0.00    -0.390 OA
ATOM     92  C5  IDS d   3      21.931 -42.014  29.722  0.00  0.00     0.152 C 
ATOM     93  O4  IDS d   3      22.818 -39.900  30.542  0.00  0.00    -0.348 OA
ATOM     94  S   IDS d   3      23.821 -41.587  34.169  0.00  0.00     0.252 S 
ATOM     95  C2  IDS d   3      23.736 -42.399  31.936  0.00  0.00     0.134 C 
ATOM     96  O2S IDS d   3      23.362 -42.954  34.579  0.00  0.00    -0.572 OA
ATOM     97  O5  IDS d   3      21.474 -42.406  31.026  0.00  0.00    -0.340 OA
ATOM     98  C6  IDS d   3      20.792 -41.270  29.020  0.00  0.00     0.206 C 
ATOM     99  C3  IDS d   3      24.261 -41.858  30.605  0.00  0.00     0.094 C 
ATOM    100  O2  IDS d   3      23.445 -41.308  32.816  0.00  0.00    -0.244 OA
ATOM    101  C4  IDS d   3      23.156 -41.109  29.855  0.00  0.00     0.103 C 
ATOM    102  O62 IDS d   3      20.914 -41.044  27.793  0.00  0.00    -0.646 OA
ATOM    103  O1S IDS d   3      25.312 -41.489  34.297  0.00  0.00    -0.572 OA
ATOM    104  H   IDS d   3      22.077 -43.464  32.691  0.00  0.00     0.133 H 
ATOM    105  H   IDS d   3      25.442 -43.411  30.273  0.00  0.00     0.210 HD
ATOM    106  H   IDS d   3      22.209 -42.874  29.149  0.00  0.00     0.104 H 
ATOM    107  H   IDS d   3      24.486 -43.034  32.359  0.00  0.00     0.097 H 
ATOM    108  H   IDS d   3      25.063 -41.179  30.806  0.00  0.00     0.091 H 
ATOM    109  H   IDS d   3      23.505 -40.847  28.879  0.00  0.00     0.092 H 
ENDROOT
TORSDOF 34
ENDMDL
MODEL 49
REMARK VINA RESULT:      -6.4      3.178     12.379
REMARK  0 active torsions:
REMARK  status: ('A' for Active; 'I' for Inactive)
REMARK       I    between atoms: C5_1  and  C6_10 
REMARK       I    between atoms: S2_2  and  O6_59 
REMARK       I    between atoms: O3_3  and  C3_61 
REMARK       I    between atoms: C5_5  and  C6_35 
REMARK       I    between atoms: C2_6  and  N_67 
REMARK       I    between atoms: C4_9  and  O4_55 
REMARK       I    between atoms: C1_11  and  O1_63 
REMARK       I    between atoms: C1_12  and  O4_30 
REMARK       I    between atoms: O1S_13  and  S1_24 
REMARK       I    between atoms: C3_14  and  O3_18 
REMARK       I    between atoms: C1_16  and  O4_29 
REMARK       I    between atoms: C2_19  and  O2_41 
REMARK       I    between atoms: C1_20  and  O4_38 
REMARK       I    between atoms: S2_21  and  O6_47 
REMARK       I    between atoms: O3_23  and  C3_58 
REMARK       I    between atoms: S1_24  and  N_33 
REMARK       I    between atoms: S1_24  and  O2S_37 
REMARK       I    between atoms: S1_24  and  O3S_34 
REMARK       I    between atoms: C4_25  and  O4_30 
REMARK       I    between atoms: C5_28  and  C6_56 
REMARK       I    between atoms: O4_29  and  C4_65 
REMARK       I    between atoms: S_31  and  O2_60 
REMARK       I    between atoms: C2_32  and  O2_60 
REMARK       I    between atoms: N_33  and  C2_46 
REMARK       I    between atoms: C6_35  and  O6_47 
REMARK       I    between atoms: C5_36  and  C6_40 
REMARK       I    between atoms: O4_38  and  C4_45 
REMARK       I    between atoms: C6_40  and  O6_59 
REMARK       I    between atoms: O2_41  and  S_54 
REMARK       I    between atoms: O1S_42  and  S1_53 
REMARK       I    between atoms: O3_43  and  C3_44 
REMARK       I    between atoms: O3S_50  and  S1_53 
REMARK       I    between atoms: O2S_52  and  S1_53 
REMARK       I    between atoms: S1_53  and  N_67 
ROOT
ATOM      1  C5  IDS d   1      19.322 -49.607  36.080  0.00  0.00     0.152 C 
ATOM      2  O2S IDS d   1      21.660 -49.714  40.944  0.00  0.00    -0.572 OA
ATOM      3  C4  IDS d   1      18.983 -49.497  37.570  0.00  0.00     0.097 C 
ATOM      4  C6  IDS d   1      18.421 -50.656  35.418  0.00  0.00     0.206 C 
ATOM      5  C2  IDS d   1      21.391 -48.954  37.986  0.00  0.00     0.134 C 
ATOM      6  C1  IDS d   1      21.618 -49.063  36.474  0.00  0.00     0.161 C 
ATOM      7  O61 IDS d   1      18.957 -51.499  34.663  0.00  0.00    -0.646 OA
ATOM      8  O3S IDS d   1      23.537 -49.082  39.512  0.00  0.00    -0.572 OA
ATOM      9  O2  IDS d   1      21.640 -50.226  38.595  0.00  0.00    -0.244 OA
ATOM     10  O3  IDS d   1      19.731 -47.194  37.849  0.00  0.00    -0.390 OA
ATOM     11  C3  IDS d   1      19.947 -48.543  38.278  0.00  0.00     0.094 C 
ATOM     12  O62 IDS d   1      17.195 -50.606  35.640  0.00  0.00    -0.646 OA
ATOM     13  S   IDS d   1      22.477 -50.114  39.752  0.00  0.00     0.252 S 
ATOM     14  O4  IDS d   1      19.030 -50.788  38.185  0.00  0.00    -0.390 OA
ATOM     15  O5  IDS d   1      20.693 -49.999  35.896  0.00  0.00    -0.340 OA
ATOM     16  O1S IDS d   1      23.129 -51.438  40.019  0.00  0.00    -0.572 OA
ATOM     17  H   IDS d   1      19.165 -48.648  35.632  0.00  0.00     0.104 H 
ATOM     18  H   IDS d   1      17.992 -49.104  37.658  0.00  0.00     0.091 H 
ATOM     19  H   IDS d   1      22.056 -48.216  38.383  0.00  0.00     0.097 H 
ATOM     20  H   IDS d   1      22.620 -49.406  36.322  0.00  0.00     0.133 H 
ATOM     21  H   IDS d   1      18.814 -46.938  38.036  0.00  0.00     0.210 HD
ATOM     22  H   IDS d   1      19.767 -48.597  39.332  0.00  0.00     0.091 H 
ATOM     23  H   IDS d   1      19.926 -51.150  38.109  0.00  0.00     0.210 HD
ATOM     24  S2  SGN d   2      25.345 -49.917  34.748  0.00  0.00     0.251 S 
ATOM     25  C2  SGN d   2      20.980 -46.890  32.242  0.00  0.00     0.081 C 
ATOM     26  O5S SGN d   2      25.117 -51.255  34.111  0.00  0.00    -0.572 OA
ATOM     27  O4S SGN d   2      25.186 -50.041  36.235  0.00  0.00    -0.572 OA
ATOM     28  C3  SGN d   2      20.605 -47.066  33.715  0.00  0.00     0.083 C 
ATOM     29  C1  SGN d   2      22.297 -46.123  32.101  0.00  0.00     0.150 C 
ATOM     30  O3  SGN d   2      19.447 -47.900  33.808  0.00  0.00    -0.391 OA
ATOM     31  C5  SGN d   2      23.065 -46.939  34.235  0.00  0.00     0.091 C 
ATOM     32  O4  SGN d   2      21.470 -47.818  35.846  0.00  0.00    -0.348 OA
ATOM     33  C6  SGN d   2      24.229 -47.702  34.875  0.00  0.00     0.067 C 
ATOM     34  O1S SGN d   2      19.544 -48.169  29.919  0.00  0.00    -0.296 OA
ATOM     35  C4  SGN d   2      21.771 -47.729  34.450  0.00  0.00     0.095 C 
ATOM     36  O6S SGN d   2      26.735 -49.449  34.430  0.00  0.00    -0.572 OA
ATOM     37  O3S SGN d   2      21.133 -46.400  29.292  0.00  0.00    -0.296 OA
ATOM     38  O2S SGN d   2      18.723 -45.963  29.269  0.00  0.00    -0.296 OA
ATOM     39  S1  SGN d   2      19.828 -46.697  29.970  0.00  0.00     0.156 S 
ATOM     40  O6  SGN d   2      24.391 -48.977  34.247  0.00  0.00    -0.254 OA
ATOM     41  N   SGN d   2      19.895 -46.206  31.523  0.00  0.00    -0.210 NA
ATOM     42  O5  SGN d   2      23.330 -46.811  32.828  0.00  0.00    -0.349 OA
ATOM     43  H   SGN d   2      21.119 -47.858  31.809  0.00  0.00     0.076 H 
ATOM     44  H   SGN d   2      20.396 -46.114  34.156  0.00  0.00     0.089 H 
ATOM     45  H   SGN d   2      22.547 -46.071  31.062  0.00  0.00     0.131 H 
ATOM     46  H   SGN d   2      19.637 -48.763  33.408  0.00  0.00     0.210 HD
ATOM     47  H   SGN d   2      22.961 -45.969  34.675  0.00  0.00     0.090 H 
ATOM     48  H   SGN d   2      24.027 -47.844  35.916  0.00  0.00     0.080 H 
ATOM     49  H   SGN d   2      25.128 -47.135  34.750  0.00  0.00     0.080 H 
ATOM     50  H   SGN d   2      19.505 -48.459  28.993  0.00  0.00     0.231 HD
ATOM     51  H   SGN d   2      21.913 -48.714  34.056  0.00  0.00     0.091 H 
ATOM     52  H   SGN d   2      21.091 -46.694  28.368  0.00  0.00     0.231 HD
ATOM     53  H   SGN d   2      18.679 -46.253  28.344  0.00  0.00     0.231 HD
ATOM     54  H   SGN d   2      20.060 -45.199  31.548  0.00  0.00     0.140 HD
ATOM     55  O3  SGN d   4      24.934 -40.084  33.991  0.00  0.00    -0.391 OA
ATOM     56  C5  SGN d   4      22.237 -38.035  32.359  0.00  0.00     0.091 C 
ATOM     57  C1  SGN d   4      23.757 -36.545  33.432  0.00  0.00     0.147 C 
ATOM     58  O1S SGN d   4      25.548 -37.559  36.840  0.00  0.00    -0.296 OA
ATOM     59  S2  SGN d   4      18.672 -37.155  31.516  0.00  0.00     0.251 S 
ATOM     60  S1  SGN d   4      26.075 -36.651  35.768  0.00  0.00     0.156 S 
ATOM     61  C4  SGN d   4      22.896 -39.265  32.987  0.00  0.00     0.095 C 
ATOM     62  O6S SGN d   4      18.271 -36.504  30.225  0.00  0.00    -0.572 OA
ATOM     63  O4  SGN d   4      22.763 -40.395  32.118  0.00  0.00    -0.348 OA
ATOM     64  N   SGN d   4      25.899 -37.374  34.317  0.00  0.00    -0.210 NA
ATOM     65  O3S SGN d   4      25.312 -35.360  35.782  0.00  0.00    -0.296 OA
ATOM     66  C6  SGN d   4      20.748 -38.321  32.168  0.00  0.00     0.067 C 
ATOM     67  O2S SGN d   4      27.532 -36.385  36.012  0.00  0.00    -0.296 OA
ATOM     68  C2  SGN d   4      24.486 -37.713  34.098  0.00  0.00     0.081 C 
ATOM     69  O6  SGN d   4      20.099 -37.182  31.602  0.00  0.00    -0.254 OA
ATOM     70  O4S SGN d   4      18.143 -38.559  31.560  0.00  0.00    -0.572 OA
ATOM     71  C3  SGN d   4      24.376 -38.988  33.260  0.00  0.00     0.083 C 
ATOM     72  O1  SGN d   4      24.360 -36.227  32.174  0.00  0.00    -0.369 OA
ATOM     73  O5  SGN d   4      22.380 -36.907  33.239  0.00  0.00    -0.350 OA
ATOM     74  O5S SGN d   4      18.107 -36.382  32.671  0.00  0.00    -0.572 OA
ATOM     75  H   SGN d   4      24.865 -40.895  33.462  0.00  0.00     0.210 HD
ATOM     76  H   SGN d   4      22.701 -37.819  31.420  0.00  0.00     0.090 H 
ATOM     77  H   SGN d   4      23.822 -35.682  34.060  0.00  0.00     0.131 H 
ATOM     78  H   SGN d   4      26.042 -38.394  36.830  0.00  0.00     0.231 HD
ATOM     79  H   SGN d   4      22.407 -39.480  33.913  0.00  0.00     0.091 H 
ATOM     80  H   SGN d   4      26.459 -38.226  34.293  0.00  0.00     0.140 HD
ATOM     81  H   SGN d   4      24.372 -35.538  35.624  0.00  0.00     0.231 HD
ATOM     82  H   SGN d   4      20.306 -38.547  33.116  0.00  0.00     0.080 H 
ATOM     83  H   SGN d   4      20.632 -39.155  31.506  0.00  0.00     0.080 H 
ATOM     84  H   SGN d   4      28.020 -37.223  36.001  0.00  0.00     0.231 HD
ATOM     85  H   SGN d   4      24.018 -37.895  35.043  0.00  0.00     0.076 H 
ATOM     86  H   SGN d   4      24.905 -38.870  32.337  0.00  0.00     0.089 H 
ATOM     87  H   SGN d   4      24.311 -36.999  31.588  0.00  0.00     0.212 HD
ATOM     88  C1  IDS d   3      21.798 -41.332  32.488  0.00  0.00     0.161 C 
ATOM     89  O61 IDS d   3      23.260 -43.620  35.454  0.00  0.00    -0.646 OA
ATOM     90  O3S IDS d   3      17.928 -43.180  32.052  0.00  0.00    -0.572 OA
ATOM     91  O3  IDS d   3      23.589 -42.340  30.295  0.00  0.00    -0.390 OA
ATOM     92  C5  IDS d   3      23.473 -42.866  33.205  0.00  0.00     0.152 C 
ATOM     93  O4  IDS d   3      22.177 -44.834  32.591  0.00  0.00    -0.348 OA
ATOM     94  S   IDS d   3      19.031 -42.508  31.289  0.00  0.00     0.252 S 
ATOM     95  C2  IDS d   3      21.392 -42.229  31.315  0.00  0.00     0.134 C 
ATOM     96  O2S IDS d   3      18.954 -41.033  31.552  0.00  0.00    -0.572 OA
ATOM     97  O5  IDS d   3      22.300 -42.125  33.575  0.00  0.00    -0.340 OA
ATOM     98  C6  IDS d   3      23.994 -43.591  34.449  0.00  0.00     0.206 C 
ATOM     99  C3  IDS d   3      22.557 -43.128  30.897  0.00  0.00     0.094 C 
ATOM    100  O2  IDS d   3      20.286 -43.038  31.730  0.00  0.00    -0.244 OA
ATOM    101  C4  IDS d   3      23.123 -43.874  32.110  0.00  0.00     0.103 C 
ATOM    102  O62 IDS d   3      25.134 -44.108  34.387  0.00  0.00    -0.646 OA
ATOM    103  O1S IDS d   3      18.871 -42.774  29.822  0.00  0.00    -0.572 OA
ATOM    104  H   IDS d   3      20.920 -40.804  32.799  0.00  0.00     0.133 H 
ATOM    105  H   IDS d   3      23.229 -41.869  29.528  0.00  0.00     0.210 HD
ATOM    106  H   IDS d   3      24.227 -42.208  32.827  0.00  0.00     0.104 H 
ATOM    107  H   IDS d   3      21.121 -41.621  30.477  0.00  0.00     0.097 H 
ATOM    108  H   IDS d   3      22.196 -43.845  30.189  0.00  0.00     0.091 H 
ATOM    109  H   IDS d   3      24.008 -44.399  31.821  0.00  0.00     0.092 H 
ENDROOT
TORSDOF 34
ENDMDL
MODEL 50
REMARK VINA RESULT:      -6.1      3.192     11.536
REMARK  0 active torsions:
REMARK  status: ('A' for Active; 'I' for Inactive)
REMARK       I    between atoms: C5_1  and  C6_10 
REMARK       I    between atoms: S2_2  and  O6_59 
REMARK       I    between atoms: O3_3  and  C3_61 
REMARK       I    between atoms: C5_5  and  C6_35 
REMARK       I    between atoms: C2_6  and  N_67 
REMARK       I    between atoms: C4_9  and  O4_55 
REMARK       I    between atoms: C1_11  and  O1_63 
REMARK       I    between atoms: C1_12  and  O4_30 
REMARK       I    between atoms: O1S_13  and  S1_24 
REMARK       I    between atoms: C3_14  and  O3_18 
REMARK       I    between atoms: C1_16  and  O4_29 
REMARK       I    between atoms: C2_19  and  O2_41 
REMARK       I    between atoms: C1_20  and  O4_38 
REMARK       I    between atoms: S2_21  and  O6_47 
REMARK       I    between atoms: O3_23  and  C3_58 
REMARK       I    between atoms: S1_24  and  N_33 
REMARK       I    between atoms: S1_24  and  O2S_37 
REMARK       I    between atoms: S1_24  and  O3S_34 
REMARK       I    between atoms: C4_25  and  O4_30 
REMARK       I    between atoms: C5_28  and  C6_56 
REMARK       I    between atoms: O4_29  and  C4_65 
REMARK       I    between atoms: S_31  and  O2_60 
REMARK       I    between atoms: C2_32  and  O2_60 
REMARK       I    between atoms: N_33  and  C2_46 
REMARK       I    between atoms: C6_35  and  O6_47 
REMARK       I    between atoms: C5_36  and  C6_40 
REMARK       I    between atoms: O4_38  and  C4_45 
REMARK       I    between atoms: C6_40  and  O6_59 
REMARK       I    between atoms: O2_41  and  S_54 
REMARK       I    between atoms: O1S_42  and  S1_53 
REMARK       I    between atoms: O3_43  and  C3_44 
REMARK       I    between atoms: O3S_50  and  S1_53 
REMARK       I    between atoms: O2S_52  and  S1_53 
REMARK       I    between atoms: S1_53  and  N_67 
ROOT
ATOM      1  C5  IDS d   1      17.127 -46.293  32.953  0.00  0.00     0.152 C 
ATOM      2  O2S IDS d   1      18.381 -49.962  36.710  0.00  0.00    -0.572 OA
ATOM      3  C4  IDS d   1      16.719 -46.752  34.356  0.00  0.00     0.097 C 
ATOM      4  C6  IDS d   1      15.891 -46.219  32.050  0.00  0.00     0.206 C 
ATOM      5  C2  IDS d   1      18.952 -47.868  34.545  0.00  0.00     0.134 C 
ATOM      6  C1  IDS d   1      19.272 -47.338  33.143  0.00  0.00     0.161 C 
ATOM      7  O61 IDS d   1      15.964 -46.728  30.908  0.00  0.00    -0.646 OA
ATOM      8  O3S IDS d   1      20.459 -49.842  35.429  0.00  0.00    -0.572 OA
ATOM      9  O2  IDS d   1      18.380 -49.176  34.437  0.00  0.00    -0.244 OA
ATOM     10  O3  IDS d   1      18.568 -45.691  35.537  0.00  0.00    -0.390 OA
ATOM     11  C3  IDS d   1      17.950 -46.948  35.245  0.00  0.00     0.094 C 
ATOM     12  O62 IDS d   1      14.878 -45.634  32.483  0.00  0.00    -0.646 OA
ATOM     13  S   IDS d   1      18.986 -50.103  35.345  0.00  0.00     0.252 S 
ATOM     14  O4  IDS d   1      15.969 -47.968  34.282  0.00  0.00    -0.390 OA
ATOM     15  O5  IDS d   1      18.065 -47.212  32.369  0.00  0.00    -0.340 OA
ATOM     16  O1S IDS d   1      18.761 -51.500  34.846  0.00  0.00    -0.572 OA
ATOM     17  H   IDS d   1      17.582 -45.329  33.038  0.00  0.00     0.104 H 
ATOM     18  H   IDS d   1      16.107 -45.990  34.791  0.00  0.00     0.091 H 
ATOM     19  H   IDS d   1      19.857 -47.903  35.114  0.00  0.00     0.097 H 
ATOM     20  H   IDS d   1      19.928 -48.040  32.674  0.00  0.00     0.133 H 
ATOM     21  H   IDS d   1      17.929 -45.111  35.981  0.00  0.00     0.210 HD
ATOM     22  H   IDS d   1      17.637 -47.396  36.165  0.00  0.00     0.091 H 
ATOM     23  H   IDS d   1      16.519 -48.663  33.889  0.00  0.00     0.210 HD
ATOM     24  S2  SGN d   2      22.096 -49.099  30.588  0.00  0.00     0.251 S 
ATOM     25  C2  SGN d   2      20.478 -43.453  30.594  0.00  0.00     0.081 C 
ATOM     26  O5S SGN d   2      21.252 -49.598  29.455  0.00  0.00    -0.572 OA
ATOM     27  O4S SGN d   2      21.708 -49.815  31.849  0.00  0.00    -0.572 OA
ATOM     28  C3  SGN d   2      19.885 -44.082  31.856  0.00  0.00     0.083 C 
ATOM     29  C1  SGN d   2      22.005 -43.560  30.595  0.00  0.00     0.150 C 
ATOM     30  O3  SGN d   2      18.458 -44.084  31.754  0.00  0.00    -0.391 OA
ATOM     31  C5  SGN d   2      21.919 -45.564  31.932  0.00  0.00     0.091 C 
ATOM     32  O4  SGN d   2      19.914 -46.093  33.202  0.00  0.00    -0.348 OA
ATOM     33  C6  SGN d   2      22.378 -47.025  31.926  0.00  0.00     0.067 C 
ATOM     34  O1S SGN d   2      18.884 -42.452  28.237  0.00  0.00    -0.296 OA
ATOM     35  C4  SGN d   2      20.389 -45.521  31.979  0.00  0.00     0.095 C 
ATOM     36  O6S SGN d   2      23.540 -49.367  30.285  0.00  0.00    -0.572 OA
ATOM     37  O3S SGN d   2      21.247 -41.776  28.235  0.00  0.00    -0.296 OA
ATOM     38  O2S SGN d   2      19.502 -40.169  28.844  0.00  0.00    -0.296 OA
ATOM     39  S1  SGN d   2      19.921 -41.608  28.916  0.00  0.00     0.156 S 
ATOM     40  O6  SGN d   2      21.890 -47.694  30.760  0.00  0.00    -0.254 OA
ATOM     41  N   SGN d   2      20.050 -42.051  30.480  0.00  0.00    -0.210 NA
ATOM     42  O5  SGN d   2      22.386 -44.941  30.724  0.00  0.00    -0.349 OA
ATOM     43  H   SGN d   2      20.114 -43.990  29.743  0.00  0.00     0.076 H 
ATOM     44  H   SGN d   2      20.181 -43.522  32.718  0.00  0.00     0.089 H 
ATOM     45  H   SGN d   2      22.371 -43.158  29.674  0.00  0.00     0.131 H 
ATOM     46  H   SGN d   2      18.190 -44.592  30.972  0.00  0.00     0.210 HD
ATOM     47  H   SGN d   2      22.311 -45.047  32.783  0.00  0.00     0.090 H 
ATOM     48  H   SGN d   2      22.001 -47.516  32.799  0.00  0.00     0.080 H 
ATOM     49  H   SGN d   2      23.447 -47.054  31.922  0.00  0.00     0.080 H 
ATOM     50  H   SGN d   2      18.810 -42.187  27.307  0.00  0.00     0.231 HD
ATOM     51  H   SGN d   2      20.014 -46.091  31.154  0.00  0.00     0.091 H 
ATOM     52  H   SGN d   2      21.169 -41.513  27.305  0.00  0.00     0.231 HD
ATOM     53  H   SGN d   2      19.424 -39.901  27.915  0.00  0.00     0.231 HD
ATOM     54  H   SGN d   2      20.738 -41.453  30.941  0.00  0.00     0.140 HD
ATOM     55  O3  SGN d   4      27.265 -41.696  34.576  0.00  0.00    -0.391 OA
ATOM     56  C5  SGN d   4      26.374 -38.043  34.590  0.00  0.00     0.091 C 
ATOM     57  C1  SGN d   4      28.313 -38.341  35.945  0.00  0.00     0.147 C 
ATOM     58  O1S SGN d   4      28.799 -41.645  38.114  0.00  0.00    -0.296 OA
ATOM     59  S2  SGN d   4      24.024 -35.115  34.898  0.00  0.00     0.251 S 
ATOM     60  S1  SGN d   4      29.870 -40.782  37.512  0.00  0.00     0.156 S 
ATOM     61  C4  SGN d   4      26.162 -39.552  34.447  0.00  0.00     0.095 C 
ATOM     62  O6S SGN d   4      24.215 -33.828  34.152  0.00  0.00    -0.572 OA
ATOM     63  O4  SGN d   4      25.540 -39.846  33.191  0.00  0.00    -0.348 OA
ATOM     64  N   SGN d   4      29.512 -40.491  35.949  0.00  0.00    -0.210 NA
ATOM     65  O3S SGN d   4      29.950 -39.484  38.260  0.00  0.00    -0.296 OA
ATOM     66  C6  SGN d   4      25.012 -37.351  34.554  0.00  0.00     0.067 C 
ATOM     67  O2S SGN d   4      31.188 -41.496  37.591  0.00  0.00    -0.296 OA
ATOM     68  C2  SGN d   4      28.187 -39.863  35.851  0.00  0.00     0.081 C 
ATOM     69  O6  SGN d   4      25.175 -35.940  34.708  0.00  0.00    -0.254 OA
ATOM     70  O4S SGN d   4      22.809 -35.826  34.378  0.00  0.00    -0.572 OA
ATOM     71  C3  SGN d   4      27.500 -40.285  34.550  0.00  0.00     0.083 C 
ATOM     72  O1  SGN d   4      29.145 -37.840  34.895  0.00  0.00    -0.369 OA
ATOM     73  O5  SGN d   4      27.002 -37.761  35.853  0.00  0.00    -0.350 OA
ATOM     74  O5S SGN d   4      23.836 -34.831  36.360  0.00  0.00    -0.572 OA
ATOM     75  H   SGN d   4      26.829 -41.967  33.753  0.00  0.00     0.210 HD
ATOM     76  H   SGN d   4      26.995 -37.690  33.794  0.00  0.00     0.090 H 
ATOM     77  H   SGN d   4      28.762 -38.079  36.880  0.00  0.00     0.131 H 
ATOM     78  H   SGN d   4      28.749 -42.483  37.629  0.00  0.00     0.231 HD
ATOM     79  H   SGN d   4      25.522 -39.884  35.237  0.00  0.00     0.091 H 
ATOM     80  H   SGN d   4      29.508 -41.371  35.433  0.00  0.00     0.140 HD
ATOM     81  H   SGN d   4      29.096 -39.027  38.207  0.00  0.00     0.231 HD
ATOM     82  H   SGN d   4      24.403 -37.726  35.350  0.00  0.00     0.080 H 
ATOM     83  H   SGN d   4      24.542 -37.549  33.614  0.00  0.00     0.080 H 
ATOM     84  H   SGN d   4      31.131 -42.334  37.105  0.00  0.00     0.231 HD
ATOM     85  H   SGN d   4      27.581 -40.192  36.669  0.00  0.00     0.076 H 
ATOM     86  H   SGN d   4      28.119 -40.043  33.711  0.00  0.00     0.089 H 
ATOM     87  H   SGN d   4      28.754 -38.066  34.037  0.00  0.00     0.212 HD
ATOM     88  C1  IDS d   3      24.181 -40.155  33.247  0.00  0.00     0.161 C 
ATOM     89  O61 IDS d   3      23.752 -43.953  34.498  0.00  0.00    -0.646 OA
ATOM     90  O3S IDS d   3      20.025 -39.151  32.693  0.00  0.00    -0.572 OA
ATOM     91  O3  IDS d   3      25.382 -40.761  30.560  0.00  0.00    -0.390 OA
ATOM     92  C5  IDS d   3      24.628 -42.463  32.860  0.00  0.00     0.152 C 
ATOM     93  O4  IDS d   3      22.553 -42.837  31.641  0.00  0.00    -0.348 OA
ATOM     94  S   IDS d   3      21.403 -38.910  32.150  0.00  0.00     0.252 S 
ATOM     95  C2  IDS d   3      23.501 -39.996  31.884  0.00  0.00     0.134 C 
ATOM     96  O2S IDS d   3      22.117 -37.972  33.076  0.00  0.00    -0.572 OA
ATOM     97  O5  IDS d   3      24.020 -41.498  33.733  0.00  0.00    -0.340 OA
ATOM     98  C6  IDS d   3      24.500 -43.843  33.510  0.00  0.00     0.206 C 
ATOM     99  C3  IDS d   3      24.020 -41.044  30.897  0.00  0.00     0.094 C 
ATOM    100  O2  IDS d   3      22.090 -40.163  32.063  0.00  0.00    -0.244 OA
ATOM    101  C4  IDS d   3      23.923 -42.447  31.503  0.00  0.00     0.103 C 
ATOM    102  O62 IDS d   3      25.165 -44.784  33.014  0.00  0.00    -0.646 OA
ATOM    103  O1S IDS d   3      21.310 -38.303  30.781  0.00  0.00    -0.572 OA
ATOM    104  H   IDS d   3      23.707 -39.468  33.917  0.00  0.00     0.133 H 
ATOM    105  H   IDS d   3      25.442 -39.872  30.176  0.00  0.00     0.210 HD
ATOM    106  H   IDS d   3      25.660 -42.229  32.705  0.00  0.00     0.104 H 
ATOM    107  H   IDS d   3      23.718 -39.026  31.488  0.00  0.00     0.097 H 
ATOM    108  H   IDS d   3      23.418 -41.007  30.014  0.00  0.00     0.091 H 
ATOM    109  H   IDS d   3      24.401 -43.148  30.851  0.00  0.00     0.092 H 
ENDROOT
TORSDOF 34
ENDMDL
MODEL 51
REMARK VINA RESULT:      -6.1      2.092      2.642
REMARK  0 active torsions:
REMARK  status: ('A' for Active; 'I' for Inactive)
REMARK       I    between atoms: C5_1  and  C6_10 
REMARK       I    between atoms: S2_2  and  O6_59 
REMARK       I    between atoms: O3_3  and  C3_61 
REMARK       I    between atoms: C5_5  and  C6_35 
REMARK       I    between atoms: C2_6  and  N_67 
REMARK       I    between atoms: C4_9  and  O4_55 
REMARK       I    between atoms: C1_11  and  O1_63 
REMARK       I    between atoms: C1_12  and  O4_30 
REMARK       I    between atoms: O1S_13  and  S1_24 
REMARK       I    between atoms: C3_14  and  O3_18 
REMARK       I    between atoms: C1_16  and  O4_29 
REMARK       I    between atoms: C2_19  and  O2_41 
REMARK       I    between atoms: C1_20  and  O4_38 
REMARK       I    between atoms: S2_21  and  O6_47 
REMARK       I    between atoms: O3_23  and  C3_58 
REMARK       I    between atoms: S1_24  and  N_33 
REMARK       I    between atoms: S1_24  and  O2S_37 
REMARK       I    between atoms: S1_24  and  O3S_34 
REMARK       I    between atoms: C4_25  and  O4_30 
REMARK       I    between atoms: C5_28  and  C6_56 
REMARK       I    between atoms: O4_29  and  C4_65 
REMARK       I    between atoms: S_31  and  O2_60 
REMARK       I    between atoms: C2_32  and  O2_60 
REMARK       I    between atoms: N_33  and  C2_46 
REMARK       I    between atoms: C6_35  and  O6_47 
REMARK       I    between atoms: C5_36  and  C6_40 
REMARK       I    between atoms: O4_38  and  C4_45 
REMARK       I    between atoms: C6_40  and  O6_59 
REMARK       I    between atoms: O2_41  and  S_54 
REMARK       I    between atoms: O1S_42  and  S1_53 
REMARK       I    between atoms: O3_43  and  C3_44 
REMARK       I    between atoms: O3S_50  and  S1_53 
REMARK       I    between atoms: O2S_52  and  S1_53 
REMARK       I    between atoms: S1_53  and  N_67 
ROOT
ATOM      1  C5  IDS d   1      25.335 -35.904  33.521  0.00  0.00     0.152 C 
ATOM      2  O2S IDS d   1      20.707 -33.125  33.417  0.00  0.00    -0.572 OA
ATOM      3  C4  IDS d   1      24.461 -35.006  34.403  0.00  0.00     0.097 C 
ATOM      4  C6  IDS d   1      26.775 -35.381  33.513  0.00  0.00     0.206 C 
ATOM      5  C2  IDS d   1      22.546 -35.518  32.874  0.00  0.00     0.134 C 
ATOM      6  C1  IDS d   1      23.498 -36.414  32.074  0.00  0.00     0.161 C 
ATOM      7  O61 IDS d   1      27.361 -35.287  32.410  0.00  0.00    -0.646 OA
ATOM      8  O3S IDS d   1      20.323 -34.783  31.662  0.00  0.00    -0.572 OA
ATOM      9  O2  IDS d   1      22.555 -34.199  32.315  0.00  0.00    -0.244 OA
ATOM     10  O3  IDS d   1      22.809 -36.706  34.970  0.00  0.00    -0.390 OA
ATOM     11  C3  IDS d   1      22.994 -35.436  34.335  0.00  0.00     0.094 C 
ATOM     12  O62 IDS d   1      27.308 -35.098  34.605  0.00  0.00    -0.646 OA
ATOM     13  S   IDS d   1      21.231 -33.686  32.129  0.00  0.00     0.252 S 
ATOM     14  O4  IDS d   1      24.590 -33.639  34.001  0.00  0.00    -0.390 OA
ATOM     15  O5  IDS d   1      24.846 -35.921  32.169  0.00  0.00    -0.340 OA
ATOM     16  O1S IDS d   1      21.265 -32.601  31.093  0.00  0.00    -0.572 OA
ATOM     17  H   IDS d   1      25.302 -36.895  33.922  0.00  0.00     0.104 H 
ATOM     18  H   IDS d   1      24.795 -35.105  35.414  0.00  0.00     0.091 H 
ATOM     19  H   IDS d   1      21.561 -35.934  32.829  0.00  0.00     0.097 H 
ATOM     20  H   IDS d   1      23.179 -36.394  31.054  0.00  0.00     0.133 H 
ATOM     21  H   IDS d   1      23.094 -36.649  35.895  0.00  0.00     0.210 HD
ATOM     22  H   IDS d   1      22.401 -34.709  34.850  0.00  0.00     0.091 H 
ATOM     23  H   IDS d   1      24.289 -33.542  33.084  0.00  0.00     0.210 HD
ATOM     24  S2  SGN d   2      22.915 -37.391  28.036  0.00  0.00     0.251 S 
ATOM     25  C2  SGN d   2      25.790 -40.631  32.003  0.00  0.00     0.081 C 
ATOM     26  O5S SGN d   2      24.081 -36.730  27.364  0.00  0.00    -0.572 OA
ATOM     27  O4S SGN d   2      22.045 -36.343  28.665  0.00  0.00    -0.572 OA
ATOM     28  C3  SGN d   2      25.076 -39.519  32.776  0.00  0.00     0.083 C 
ATOM     29  C1  SGN d   2      24.785 -41.502  31.245  0.00  0.00     0.150 C 
ATOM     30  O3  SGN d   2      26.053 -38.651  33.357  0.00  0.00    -0.391 OA
ATOM     31  C5  SGN d   2      23.247 -39.656  31.052  0.00  0.00     0.091 C 
ATOM     32  O4  SGN d   2      23.457 -37.738  32.532  0.00  0.00    -0.348 OA
ATOM     33  C6  SGN d   2      22.480 -38.844  30.004  0.00  0.00     0.067 C 
ATOM     34  O1S SGN d   2      28.779 -40.892  31.695  0.00  0.00    -0.296 OA
ATOM     35  C4  SGN d   2      24.199 -38.724  31.808  0.00  0.00     0.095 C 
ATOM     36  O6S SGN d   2      22.122 -38.154  27.016  0.00  0.00    -0.572 OA
ATOM     37  O3S SGN d   2      27.501 -42.874  31.000  0.00  0.00    -0.296 OA
ATOM     38  O2S SGN d   2      28.710 -42.867  33.130  0.00  0.00    -0.296 OA
ATOM     39  S1  SGN d   2      27.922 -42.029  32.166  0.00  0.00     0.156 S 
ATOM     40  O6  SGN d   2      23.387 -38.283  29.049  0.00  0.00    -0.254 OA
ATOM     41  N   SGN d   2      26.600 -41.444  32.922  0.00  0.00    -0.210 NA
ATOM     42  O5  SGN d   2      24.000 -40.673  30.370  0.00  0.00    -0.349 OA
ATOM     43  H   SGN d   2      26.439 -40.181  31.282  0.00  0.00     0.076 H 
ATOM     44  H   SGN d   2      24.469 -39.942  33.548  0.00  0.00     0.089 H 
ATOM     45  H   SGN d   2      25.329 -42.229  30.679  0.00  0.00     0.131 H 
ATOM     46  H   SGN d   2      26.603 -38.268  32.656  0.00  0.00     0.210 HD
ATOM     47  H   SGN d   2      22.572 -40.108  31.748  0.00  0.00     0.090 H 
ATOM     48  H   SGN d   2      21.948 -38.054  30.491  0.00  0.00     0.080 H 
ATOM     49  H   SGN d   2      21.794 -39.489  29.496  0.00  0.00     0.080 H 
ATOM     50  H   SGN d   2      29.564 -41.243  31.246  0.00  0.00     0.231 HD
ATOM     51  H   SGN d   2      24.827 -38.238  31.091  0.00  0.00     0.091 H 
ATOM     52  H   SGN d   2      28.289 -43.221  30.551  0.00  0.00     0.231 HD
ATOM     53  H   SGN d   2      29.498 -43.217  32.685  0.00  0.00     0.231 HD
ATOM     54  H   SGN d   2      26.038 -42.224  33.263  0.00  0.00     0.140 HD
ATOM     55  O3  SGN d   4      19.271 -45.336  32.622  0.00  0.00    -0.391 OA
ATOM     56  C5  SGN d   4      21.025 -47.527  35.124  0.00  0.00     0.091 C 
ATOM     57  C1  SGN d   4      18.749 -48.223  34.992  0.00  0.00     0.147 C 
ATOM     58  O1S SGN d   4      15.839 -45.579  34.363  0.00  0.00    -0.296 OA
ATOM     59  S2  SGN d   4      23.261 -48.201  38.079  0.00  0.00     0.251 S 
ATOM     60  S1  SGN d   4      15.863 -47.024  33.956  0.00  0.00     0.156 S 
ATOM     61  C4  SGN d   4      20.766 -46.290  34.262  0.00  0.00     0.095 C 
ATOM     62  O6S SGN d   4      24.085 -49.448  38.218  0.00  0.00    -0.572 OA
ATOM     63  O4  SGN d   4      21.942 -45.948  33.522  0.00  0.00    -0.348 OA
ATOM     64  N   SGN d   4      17.280 -47.351  33.219  0.00  0.00    -0.210 NA
ATOM     65  O3S SGN d   4      15.715 -47.891  35.171  0.00  0.00    -0.296 OA
ATOM     66  C6  SGN d   4      22.142 -47.207  36.117  0.00  0.00     0.067 C 
ATOM     67  O2S SGN d   4      14.738 -47.290  32.999  0.00  0.00    -0.296 OA
ATOM     68  C2  SGN d   4      18.396 -47.020  34.117  0.00  0.00     0.081 C 
ATOM     69  O6  SGN d   4      22.393 -48.338  36.953  0.00  0.00    -0.254 OA
ATOM     70  O4S SGN d   4      24.164 -47.020  37.873  0.00  0.00    -0.572 OA
ATOM     71  C3  SGN d   4      19.603 -46.550  33.302  0.00  0.00     0.083 C 
ATOM     72  O1  SGN d   4      19.119 -49.342  34.182  0.00  0.00    -0.369 OA
ATOM     73  O5  SGN d   4      19.836 -47.863  35.860  0.00  0.00    -0.350 OA
ATOM     74  O5S SGN d   4      22.451 -47.987  39.324  0.00  0.00    -0.572 OA
ATOM     75  H   SGN d   4      20.035 -45.036  32.105  0.00  0.00     0.210 HD
ATOM     76  H   SGN d   4      21.304 -48.349  34.498  0.00  0.00     0.090 H 
ATOM     77  H   SGN d   4      17.895 -48.501  35.574  0.00  0.00     0.131 H 
ATOM     78  H   SGN d   4      15.935 -45.019  33.576  0.00  0.00     0.231 HD
ATOM     79  H   SGN d   4      20.510 -45.473  34.904  0.00  0.00     0.091 H 
ATOM     80  H   SGN d   4      17.355 -46.797  32.367  0.00  0.00     0.140 HD
ATOM     81  H   SGN d   4      16.444 -47.714  35.785  0.00  0.00     0.231 HD
ATOM     82  H   SGN d   4      21.848 -46.376  36.724  0.00  0.00     0.080 H 
ATOM     83  H   SGN d   4      23.033 -46.965  35.577  0.00  0.00     0.080 H 
ATOM     84  H   SGN d   4      14.839 -46.727  32.215  0.00  0.00     0.231 HD
ATOM     85  H   SGN d   4      18.100 -46.220  34.763  0.00  0.00     0.076 H 
ATOM     86  H   SGN d   4      19.876 -47.297  32.585  0.00  0.00     0.089 H 
ATOM     87  H   SGN d   4      19.894 -49.111  33.646  0.00  0.00     0.212 HD
ATOM     88  C1  IDS d   3      22.664 -44.856  34.004  0.00  0.00     0.161 C 
ATOM     89  O61 IDS d   3      20.816 -41.465  32.885  0.00  0.00    -0.646 OA
ATOM     90  O3S IDS d   3      26.019 -43.140  36.098  0.00  0.00    -0.572 OA
ATOM     91  O3  IDS d   3      23.584 -45.720  31.276  0.00  0.00    -0.390 OA
ATOM     92  C5  IDS d   3      21.895 -43.480  32.218  0.00  0.00     0.152 C 
ATOM     93  O4  IDS d   3      23.941 -42.165  32.121  0.00  0.00    -0.348 OA
ATOM     94  S   IDS d   3      25.604 -44.295  35.235  0.00  0.00     0.252 S 
ATOM     95  C2  IDS d   3      24.101 -44.843  33.476  0.00  0.00     0.134 C 
ATOM     96  O2S IDS d   3      24.810 -45.249  36.077  0.00  0.00    -0.572 OA
ATOM     97  O5  IDS d   3      21.986 -43.642  33.641  0.00  0.00    -0.340 OA
ATOM     98  C6  IDS d   3      21.068 -42.224  31.931  0.00  0.00     0.206 C 
ATOM     99  C3  IDS d   3      24.119 -44.587  31.967  0.00  0.00     0.094 C 
ATOM    100  O2  IDS d   3      24.817 -43.800  34.147  0.00  0.00    -0.244 OA
ATOM    101  C4  IDS d   3      23.297 -43.341  31.623  0.00  0.00     0.103 C 
ATOM    102  O62 IDS d   3      20.685 -42.036  30.752  0.00  0.00    -0.646 OA
ATOM    103  O1S IDS d   3      26.820 -44.985  34.691  0.00  0.00    -0.572 OA
ATOM    104  H   IDS d   3      22.721 -44.936  35.070  0.00  0.00     0.133 H 
ATOM    105  H   IDS d   3      24.106 -46.508  31.495  0.00  0.00     0.210 HD
ATOM    106  H   IDS d   3      21.424 -44.333  31.773  0.00  0.00     0.104 H 
ATOM    107  H   IDS d   3      24.559 -45.792  33.660  0.00  0.00     0.097 H 
ATOM    108  H   IDS d   3      25.132 -44.427  31.661  0.00  0.00     0.091 H 
ATOM    109  H   IDS d   3      23.219 -43.251  30.560  0.00  0.00     0.092 H 
ENDROOT
TORSDOF 34
ENDMDL
MODEL 52
REMARK VINA RESULT:      -6.0      6.292     13.208
REMARK  0 active torsions:
REMARK  status: ('A' for Active; 'I' for Inactive)
REMARK       I    between atoms: C5_1  and  C6_10 
REMARK       I    between atoms: S2_2  and  O6_59 
REMARK       I    between atoms: O3_3  and  C3_61 
REMARK       I    between atoms: C5_5  and  C6_35 
REMARK       I    between atoms: C2_6  and  N_67 
REMARK       I    between atoms: C4_9  and  O4_55 
REMARK       I    between atoms: C1_11  and  O1_63 
REMARK       I    between atoms: C1_12  and  O4_30 
REMARK       I    between atoms: O1S_13  and  S1_24 
REMARK       I    between atoms: C3_14  and  O3_18 
REMARK       I    between atoms: C1_16  and  O4_29 
REMARK       I    between atoms: C2_19  and  O2_41 
REMARK       I    between atoms: C1_20  and  O4_38 
REMARK       I    between atoms: S2_21  and  O6_47 
REMARK       I    between atoms: O3_23  and  C3_58 
REMARK       I    between atoms: S1_24  and  N_33 
REMARK       I    between atoms: S1_24  and  O2S_37 
REMARK       I    between atoms: S1_24  and  O3S_34 
REMARK       I    between atoms: C4_25  and  O4_30 
REMARK       I    between atoms: C5_28  and  C6_56 
REMARK       I    between atoms: O4_29  and  C4_65 
REMARK       I    between atoms: S_31  and  O2_60 
REMARK       I    between atoms: C2_32  and  O2_60 
REMARK       I    between atoms: N_33  and  C2_46 
REMARK       I    between atoms: C6_35  and  O6_47 
REMARK       I    between atoms: C5_36  and  C6_40 
REMARK       I    between atoms: O4_38  and  C4_45 
REMARK       I    between atoms: C6_40  and  O6_59 
REMARK       I    between atoms: O2_41  and  S_54 
REMARK       I    between atoms: O1S_42  and  S1_53 
REMARK       I    between atoms: O3_43  and  C3_44 
REMARK       I    between atoms: O3S_50  and  S1_53 
REMARK       I    between atoms: O2S_52  and  S1_53 
REMARK       I    between atoms: S1_53  and  N_67 
ROOT
ATOM      1  C5  IDS d   1      20.691 -49.616  33.564  0.00  0.00     0.152 C 
ATOM      2  O2S IDS d   1      26.024 -49.691  32.730  0.00  0.00    -0.572 OA
ATOM      3  C4  IDS d   1      22.019 -49.546  34.324  0.00  0.00     0.097 C 
ATOM      4  C6  IDS d   1      19.795 -50.695  34.181  0.00  0.00     0.206 C 
ATOM      5  C2  IDS d   1      23.116 -48.896  32.170  0.00  0.00     0.134 C 
ATOM      6  C1  IDS d   1      21.734 -48.970  31.510  0.00  0.00     0.161 C 
ATOM      7  O61 IDS d   1      19.225 -51.500  33.409  0.00  0.00    -0.646 OA
ATOM      8  O3S IDS d   1      25.197 -48.948  30.552  0.00  0.00    -0.572 OA
ATOM      9  O2  IDS d   1      23.769 -50.165  32.044  0.00  0.00    -0.244 OA
ATOM     10  O3  IDS d   1      22.507 -47.215  33.805  0.00  0.00    -0.390 OA
ATOM     11  C3  IDS d   1      22.978 -48.559  33.655  0.00  0.00     0.094 C 
ATOM     12  O62 IDS d   1      19.652 -50.708  35.420  0.00  0.00    -0.646 OA
ATOM     13  S   IDS d   1      25.118 -50.032  31.584  0.00  0.00     0.252 S 
ATOM     14  O4  IDS d   1      22.619 -50.843  34.393  0.00  0.00    -0.390 OA
ATOM     15  O5  IDS d   1      20.911 -49.940  32.181  0.00  0.00    -0.340 OA
ATOM     16  O1S IDS d   1      25.560 -51.328  30.972  0.00  0.00    -0.572 OA
ATOM     17  H   IDS d   1      20.218 -48.658  33.633  0.00  0.00     0.104 H 
ATOM     18  H   IDS d   1      21.818 -49.202  35.316  0.00  0.00     0.091 H 
ATOM     19  H   IDS d   1      23.689 -48.134  31.685  0.00  0.00     0.097 H 
ATOM     20  H   IDS d   1      21.878 -49.263  30.491  0.00  0.00     0.133 H 
ATOM     21  H   IDS d   1      22.421 -47.006  34.748  0.00  0.00     0.210 HD
ATOM     22  H   IDS d   1      23.935 -48.639  34.130  0.00  0.00     0.091 H 
ATOM     23  H   IDS d   1      22.805 -51.161  33.496  0.00  0.00     0.210 HD
ATOM     24  S2  SGN d   2      21.159 -49.619  27.405  0.00  0.00     0.251 S 
ATOM     25  C2  SGN d   2      17.502 -46.762  31.005  0.00  0.00     0.081 C 
ATOM     26  O5S SGN d   2      20.481 -50.956  27.373  0.00  0.00    -0.572 OA
ATOM     27  O4S SGN d   2      22.536 -49.774  27.981  0.00  0.00    -0.572 OA
ATOM     28  C3  SGN d   2      18.804 -46.979  31.781  0.00  0.00     0.083 C 
ATOM     29  C1  SGN d   2      17.750 -45.931  29.744  0.00  0.00     0.150 C 
ATOM     30  O3  SGN d   2      18.556 -47.868  32.873  0.00  0.00    -0.391 OA
ATOM     31  C5  SGN d   2      20.013 -46.744  29.585  0.00  0.00     0.091 C 
ATOM     32  O4  SGN d   2      21.092 -47.724  31.532  0.00  0.00    -0.348 OA
ATOM     33  C6  SGN d   2      20.962 -47.461  28.620  0.00  0.00     0.067 C 
ATOM     34  O1S SGN d   2      14.860 -48.070  31.642  0.00  0.00    -0.296 OA
ATOM     35  C4  SGN d   2      19.843 -47.598  30.845  0.00  0.00     0.095 C 
ATOM     36  O6S SGN d   2      21.259 -49.081  26.009  0.00  0.00    -0.572 OA
ATOM     37  O3S SGN d   2      14.723 -46.218  30.031  0.00  0.00    -0.296 OA
ATOM     38  O2S SGN d   2      14.004 -45.895  32.350  0.00  0.00    -0.296 OA
ATOM     39  S1  SGN d   2      14.994 -46.587  31.460  0.00  0.00     0.156 S 
ATOM     40  O6  SGN d   2      20.405 -48.717  28.219  0.00  0.00    -0.254 OA
ATOM     41  N   SGN d   2      16.501 -46.118  31.869  0.00  0.00    -0.210 NA
ATOM     42  O5  SGN d   2      18.744 -46.581  28.932  0.00  0.00    -0.349 OA
ATOM     43  H   SGN d   2      17.126 -47.715  30.699  0.00  0.00     0.076 H 
ATOM     44  H   SGN d   2      19.166 -46.045  32.155  0.00  0.00     0.089 H 
ATOM     45  H   SGN d   2      16.828 -45.851  29.207  0.00  0.00     0.131 H 
ATOM     46  H   SGN d   2      18.227 -48.715  32.533  0.00  0.00     0.210 HD
ATOM     47  H   SGN d   2      20.407 -45.787  29.861  0.00  0.00     0.090 H 
ATOM     48  H   SGN d   2      21.899 -47.629  29.107  0.00  0.00     0.080 H 
ATOM     49  H   SGN d   2      21.103 -46.851  27.753  0.00  0.00     0.080 H 
ATOM     50  H   SGN d   2      13.963 -48.346  31.398  0.00  0.00     0.231 HD
ATOM     51  H   SGN d   2      19.505 -48.568  30.546  0.00  0.00     0.091 H 
ATOM     52  H   SGN d   2      13.827 -46.498  29.789  0.00  0.00     0.231 HD
ATOM     53  H   SGN d   2      13.106 -46.171  32.110  0.00  0.00     0.231 HD
ATOM     54  H   SGN d   2      16.575 -45.105  31.768  0.00  0.00     0.140 HD
ATOM     55  O3  SGN d   4      20.333 -39.805  28.071  0.00  0.00    -0.391 OA
ATOM     56  C5  SGN d   4      17.993 -37.860  30.280  0.00  0.00     0.091 C 
ATOM     57  C1  SGN d   4      19.463 -36.317  29.212  0.00  0.00     0.147 C 
ATOM     58  O1S SGN d   4      23.242 -37.301  28.434  0.00  0.00    -0.296 OA
ATOM     59  S2  SGN d   4      16.156 -37.137  33.488  0.00  0.00     0.251 S 
ATOM     60  S1  SGN d   4      22.370 -36.352  27.665  0.00  0.00     0.156 S 
ATOM     61  C4  SGN d   4      18.783 -39.067  29.770  0.00  0.00     0.095 C 
ATOM     62  O6S SGN d   4      14.806 -36.485  33.531  0.00  0.00    -0.572 OA
ATOM     63  O4  SGN d   4      17.911 -40.188  29.590  0.00  0.00    -0.348 OA
ATOM     64  N   SGN d   4      20.930 -37.058  27.378  0.00  0.00    -0.210 NA
ATOM     65  O3S SGN d   4      22.166 -35.098  28.464  0.00  0.00    -0.296 OA
ATOM     66  C6  SGN d   4      17.379 -38.214  31.634  0.00  0.00     0.067 C 
ATOM     67  O2S SGN d   4      23.026 -36.021  26.357  0.00  0.00    -0.296 OA
ATOM     68  C2  SGN d   4      20.310 -37.460  28.649  0.00  0.00     0.081 C 
ATOM     69  O6  SGN d   4      16.652 -37.097  32.148  0.00  0.00    -0.254 OA
ATOM     70  O4S SGN d   4      16.043 -38.564  33.936  0.00  0.00    -0.572 OA
ATOM     71  C3  SGN d   4      19.474 -38.726  28.448  0.00  0.00     0.083 C 
ATOM     72  O1  SGN d   4      18.435 -35.951  28.287  0.00  0.00    -0.369 OA
ATOM     73  O5  SGN d   4      18.879 -36.741  30.454  0.00  0.00    -0.350 OA
ATOM     74  O5S SGN d   4      17.099 -36.410  34.401  0.00  0.00    -0.572 OA
ATOM     75  H   SGN d   4      19.806 -40.610  27.943  0.00  0.00     0.210 HD
ATOM     76  H   SGN d   4      17.229 -37.607  29.576  0.00  0.00     0.090 H 
ATOM     77  H   SGN d   4      20.085 -35.462  29.374  0.00  0.00     0.131 H 
ATOM     78  H   SGN d   4      23.374 -38.111  27.917  0.00  0.00     0.231 HD
ATOM     79  H   SGN d   4      19.528 -39.320  30.495  0.00  0.00     0.091 H 
ATOM     80  H   SGN d   4      21.067 -37.882  26.793  0.00  0.00     0.140 HD
ATOM     81  H   SGN d   4      21.741 -35.318  29.308  0.00  0.00     0.231 HD
ATOM     82  H   SGN d   4      18.158 -38.475  32.319  0.00  0.00     0.080 H 
ATOM     83  H   SGN d   4      16.711 -39.041  31.511  0.00  0.00     0.080 H 
ATOM     84  H   SGN d   4      23.156 -36.835  25.845  0.00  0.00     0.231 HD
ATOM     85  H   SGN d   4      21.079 -37.679  29.360  0.00  0.00     0.076 H 
ATOM     86  H   SGN d   4      18.744 -38.567  27.681  0.00  0.00     0.089 H 
ATOM     87  H   SGN d   4      17.858 -36.715  28.126  0.00  0.00     0.212 HD
ATOM     88  C1  IDS d   3      17.984 -41.176  30.573  0.00  0.00     0.161 C 
ATOM     89  O61 IDS d   3      21.243 -43.439  29.918  0.00  0.00    -0.646 OA
ATOM     90  O3S IDS d   3      16.443 -43.198  34.054  0.00  0.00    -0.572 OA
ATOM     91  O3  IDS d   3      16.402 -42.063  28.176  0.00  0.00    -0.390 OA
ATOM     92  C5  IDS d   3      19.153 -42.640  29.101  0.00  0.00     0.152 C 
ATOM     93  O4  IDS d   3      18.187 -44.657  30.064  0.00  0.00    -0.348 OA
ATOM     94  S   IDS d   3      16.034 -42.462  32.812  0.00  0.00     0.252 S 
ATOM     95  C2  IDS d   3      16.743 -42.072  30.576  0.00  0.00     0.134 C 
ATOM     96  O2S IDS d   3      16.265 -40.997  33.036  0.00  0.00    -0.572 OA
ATOM     97  O5  IDS d   3      19.169 -41.962  30.367  0.00  0.00    -0.340 OA
ATOM     98  C6  IDS d   3      20.493 -43.360  28.927  0.00  0.00     0.206 C 
ATOM     99  C3  IDS d   3      16.678 -42.908  29.297  0.00  0.00     0.094 C 
ATOM    100  O2  IDS d   3      16.817 -42.939  31.713  0.00  0.00    -0.244 OA
ATOM    101  C4  IDS d   3      18.002 -43.646  29.070  0.00  0.00     0.103 C 
ATOM    102  O62 IDS d   3      20.763 -43.821  27.793  0.00  0.00    -0.646 OA
ATOM    103  O1S IDS d   3      14.582 -42.712  32.528  0.00  0.00    -0.572 OA
ATOM    104  H   IDS d   3      18.029 -40.695  31.528  0.00  0.00     0.133 H 
ATOM    105  H   IDS d   3      15.564 -41.597  28.321  0.00  0.00     0.210 HD
ATOM    106  H   IDS d   3      19.011 -41.941  28.304  0.00  0.00     0.104 H 
ATOM    107  H   IDS d   3      15.863 -41.464  30.623  0.00  0.00     0.097 H 
ATOM    108  H   IDS d   3      15.895 -43.630  29.401  0.00  0.00     0.091 H 
ATOM    109  H   IDS d   3      17.980 -44.124  28.113  0.00  0.00     0.092 H 
ENDROOT
TORSDOF 34
ENDMDL
MODEL 53
REMARK VINA RESULT:      -5.9      4.717     12.064
REMARK  0 active torsions:
REMARK  status: ('A' for Active; 'I' for Inactive)
REMARK       I    between atoms: C5_1  and  C6_10 
REMARK       I    between atoms: S2_2  and  O6_59 
REMARK       I    between atoms: O3_3  and  C3_61 
REMARK       I    between atoms: C5_5  and  C6_35 
REMARK       I    between atoms: C2_6  and  N_67 
REMARK       I    between atoms: C4_9  and  O4_55 
REMARK       I    between atoms: C1_11  and  O1_63 
REMARK       I    between atoms: C1_12  and  O4_30 
REMARK       I    between atoms: O1S_13  and  S1_24 
REMARK       I    between atoms: C3_14  and  O3_18 
REMARK       I    between atoms: C1_16  and  O4_29 
REMARK       I    between atoms: C2_19  and  O2_41 
REMARK       I    between atoms: C1_20  and  O4_38 
REMARK       I    between atoms: S2_21  and  O6_47 
REMARK       I    between atoms: O3_23  and  C3_58 
REMARK       I    between atoms: S1_24  and  N_33 
REMARK       I    between atoms: S1_24  and  O2S_37 
REMARK       I    between atoms: S1_24  and  O3S_34 
REMARK       I    between atoms: C4_25  and  O4_30 
REMARK       I    between atoms: C5_28  and  C6_56 
REMARK       I    between atoms: O4_29  and  C4_65 
REMARK       I    between atoms: S_31  and  O2_60 
REMARK       I    between atoms: C2_32  and  O2_60 
REMARK       I    between atoms: N_33  and  C2_46 
REMARK       I    between atoms: C6_35  and  O6_47 
REMARK       I    between atoms: C5_36  and  C6_40 
REMARK       I    between atoms: O4_38  and  C4_45 
REMARK       I    between atoms: C6_40  and  O6_59 
REMARK       I    between atoms: O2_41  and  S_54 
REMARK       I    between atoms: O1S_42  and  S1_53 
REMARK       I    between atoms: O3_43  and  C3_44 
REMARK       I    between atoms: O3S_50  and  S1_53 
REMARK       I    between atoms: O2S_52  and  S1_53 
REMARK       I    between atoms: S1_53  and  N_67 
ROOT
ATOM      1  C5  IDS d   1      22.499 -48.626  38.166  0.00  0.00     0.152 C 
ATOM      2  O2S IDS d   1      27.524 -46.873  39.072  0.00  0.00    -0.572 OA
ATOM      3  C4  IDS d   1      23.328 -47.865  39.205  0.00  0.00     0.097 C 
ATOM      4  C6  IDS d   1      21.738 -49.770  38.847  0.00  0.00     0.206 C 
ATOM      5  C2  IDS d   1      25.010 -47.418  37.404  0.00  0.00     0.134 C 
ATOM      6  C1  IDS d   1      24.093 -48.178  36.439  0.00  0.00     0.161 C 
ATOM      7  O61 IDS d   1      21.765 -50.899  38.305  0.00  0.00    -0.646 OA
ATOM      8  O3S IDS d   1      27.509 -47.083  36.636  0.00  0.00    -0.572 OA
ATOM      9  O2  IDS d   1      25.957 -48.329  37.973  0.00  0.00    -0.244 OA
ATOM     10  O3  IDS d   1      23.371 -45.740  38.012  0.00  0.00    -0.390 OA
ATOM     11  C3  IDS d   1      24.190 -46.792  38.534  0.00  0.00     0.094 C 
ATOM     12  O62 IDS d   1      21.105 -49.519  39.892  0.00  0.00    -0.646 OA
ATOM     13  S   IDS d   1      27.292 -47.813  37.927  0.00  0.00     0.252 S 
ATOM     14  O4  IDS d   1      24.158 -48.771  39.939  0.00  0.00    -0.390 OA
ATOM     15  O5  IDS d   1      23.345 -49.183  37.147  0.00  0.00    -0.340 OA
ATOM     16  O1S IDS d   1      28.264 -48.953  38.017  0.00  0.00    -0.572 OA
ATOM     17  H   IDS d   1      21.812 -47.938  37.721  0.00  0.00     0.104 H 
ATOM     18  H   IDS d   1      22.655 -47.383  39.881  0.00  0.00     0.091 H 
ATOM     19  H   IDS d   1      25.515 -46.646  36.864  0.00  0.00     0.097 H 
ATOM     20  H   IDS d   1      24.714 -48.644  35.703  0.00  0.00     0.133 H 
ATOM     21  H   IDS d   1      22.853 -45.345  38.732  0.00  0.00     0.210 HD
ATOM     22  H   IDS d   1      24.850 -46.378  39.267  0.00  0.00     0.091 H 
ATOM     23  H   IDS d   1      24.771 -49.211  39.331  0.00  0.00     0.210 HD
ATOM     24  S2  SGN d   2      25.450 -50.020  32.923  0.00  0.00     0.251 S 
ATOM     25  C2  SGN d   2      20.036 -47.957  33.884  0.00  0.00     0.081 C 
ATOM     26  O5S SGN d   2      25.214 -51.475  33.198  0.00  0.00    -0.572 OA
ATOM     27  O4S SGN d   2      26.456 -49.487  33.900  0.00  0.00    -0.572 OA
ATOM     28  C3  SGN d   2      20.909 -47.457  35.036  0.00  0.00     0.083 C 
ATOM     29  C1  SGN d   2      20.559 -47.447  32.539  0.00  0.00     0.150 C 
ATOM     30  O3  SGN d   2      20.470 -48.063  36.255  0.00  0.00    -0.391 OA
ATOM     31  C5  SGN d   2      22.811 -47.346  33.392  0.00  0.00     0.091 C 
ATOM     32  O4  SGN d   2      23.203 -47.310  35.792  0.00  0.00    -0.348 OA
ATOM     33  C6  SGN d   2      24.222 -47.868  33.105  0.00  0.00     0.067 C 
ATOM     34  O1S SGN d   2      17.799 -49.965  34.142  0.00  0.00    -0.296 OA
ATOM     35  C4  SGN d   2      22.362 -47.849  34.767  0.00  0.00     0.095 C 
ATOM     36  O6S SGN d   2      25.975 -49.860  31.527  0.00  0.00    -0.572 OA
ATOM     37  O3S SGN d   2      17.869 -48.781  31.988  0.00  0.00    -0.296 OA
ATOM     38  O2S SGN d   2      16.201 -48.177  33.677  0.00  0.00    -0.296 OA
ATOM     39  S1  SGN d   2      17.611 -48.642  33.459  0.00  0.00     0.156 S 
ATOM     40  O6  SGN d   2      24.224 -49.299  33.065  0.00  0.00    -0.254 OA
ATOM     41  N   SGN d   2      18.639 -47.547  34.093  0.00  0.00    -0.210 NA
ATOM     42  O5  SGN d   2      21.929 -47.852  32.376  0.00  0.00    -0.349 OA
ATOM     43  H   SGN d   2      20.078 -49.026  33.865  0.00  0.00     0.076 H 
ATOM     44  H   SGN d   2      20.832 -46.393  35.118  0.00  0.00     0.089 H 
ATOM     45  H   SGN d   2      19.953 -47.863  31.762  0.00  0.00     0.131 H 
ATOM     46  H   SGN d   2      20.539 -49.028  36.180  0.00  0.00     0.210 HD
ATOM     47  H   SGN d   2      22.796 -46.276  33.387  0.00  0.00     0.090 H 
ATOM     48  H   SGN d   2      24.885 -47.537  33.878  0.00  0.00     0.080 H 
ATOM     49  H   SGN d   2      24.547 -47.493  32.158  0.00  0.00     0.080 H 
ATOM     50  H   SGN d   2      17.186 -50.614  33.763  0.00  0.00     0.231 HD
ATOM     51  H   SGN d   2      22.439 -48.916  34.772  0.00  0.00     0.091 H 
ATOM     52  H   SGN d   2      17.257 -49.434  31.613  0.00  0.00     0.231 HD
ATOM     53  H   SGN d   2      15.585 -48.827  33.301  0.00  0.00     0.231 HD
ATOM     54  H   SGN d   2      18.485 -46.644  33.642  0.00  0.00     0.140 HD
ATOM     55  O3  SGN d   4      21.936 -41.444  29.527  0.00  0.00    -0.391 OA
ATOM     56  C5  SGN d   4      18.480 -40.044  30.015  0.00  0.00     0.091 C 
ATOM     57  C1  SGN d   4      19.810 -38.385  28.937  0.00  0.00     0.147 C 
ATOM     58  O1S SGN d   4      23.686 -38.017  29.769  0.00  0.00    -0.296 OA
ATOM     59  S2  SGN d   4      15.366 -39.284  31.992  0.00  0.00     0.251 S 
ATOM     60  S1  SGN d   4      22.997 -37.702  28.473  0.00  0.00     0.156 S 
ATOM     61  C4  SGN d   4      19.691 -40.946  30.265  0.00  0.00     0.095 C 
ATOM     62  O6S SGN d   4      14.000 -39.208  31.375  0.00  0.00    -0.572 OA
ATOM     63  O4  SGN d   4      19.291 -42.320  30.271  0.00  0.00    -0.348 OA
ATOM     64  N   SGN d   4      22.038 -38.952  28.057  0.00  0.00    -0.210 NA
ATOM     65  O3S SGN d   4      22.168 -36.462  28.634  0.00  0.00    -0.296 OA
ATOM     66  C6  SGN d   4      17.475 -40.247  31.148  0.00  0.00     0.067 C 
ATOM     67  O2S SGN d   4      24.026 -37.491  27.401  0.00  0.00    -0.296 OA
ATOM     68  C2  SGN d   4      21.075 -39.221  29.134  0.00  0.00     0.081 C 
ATOM     69  O6  SGN d   4      16.341 -39.401  30.954  0.00  0.00    -0.254 OA
ATOM     70  O4S SGN d   4      15.448 -40.481  32.893  0.00  0.00    -0.572 OA
ATOM     71  C3  SGN d   4      20.752 -40.716  29.188  0.00  0.00     0.083 C 
ATOM     72  O1  SGN d   4      19.198 -38.687  27.680  0.00  0.00    -0.369 OA
ATOM     73  O5  SGN d   4      18.896 -38.667  30.009  0.00  0.00    -0.350 OA
ATOM     74  O5S SGN d   4      15.626 -38.046  32.799  0.00  0.00    -0.572 OA
ATOM     75  H   SGN d   4      21.733 -42.392  29.562  0.00  0.00     0.210 HD
ATOM     76  H   SGN d   4      18.038 -40.290  29.073  0.00  0.00     0.090 H 
ATOM     77  H   SGN d   4      20.067 -37.347  28.941  0.00  0.00     0.131 H 
ATOM     78  H   SGN d   4      24.222 -38.819  29.664  0.00  0.00     0.231 HD
ATOM     79  H   SGN d   4      20.108 -40.702  31.220  0.00  0.00     0.091 H 
ATOM     80  H   SGN d   4      22.611 -39.781  27.900  0.00  0.00     0.140 HD
ATOM     81  H   SGN d   4      21.505 -36.604  29.328  0.00  0.00     0.231 HD
ATOM     82  H   SGN d   4      17.941 -40.008  32.081  0.00  0.00     0.080 H 
ATOM     83  H   SGN d   4      17.154 -41.268  31.154  0.00  0.00     0.080 H 
ATOM     84  H   SGN d   4      24.559 -38.296  27.301  0.00  0.00     0.231 HD
ATOM     85  H   SGN d   4      21.510 -38.942  30.071  0.00  0.00     0.076 H 
ATOM     86  H   SGN d   4      20.390 -41.049  28.237  0.00  0.00     0.089 H 
ATOM     87  H   SGN d   4      18.957 -39.626  27.655  0.00  0.00     0.212 HD
ATOM     88  C1  IDS d   3      19.202 -42.919  31.528  0.00  0.00     0.161 C 
ATOM     89  O61 IDS d   3      22.901 -43.856  32.797  0.00  0.00    -0.646 OA
ATOM     90  O3S IDS d   3      16.938 -44.417  34.876  0.00  0.00    -0.572 OA
ATOM     91  O3  IDS d   3      19.036 -44.922  29.293  0.00  0.00    -0.390 OA
ATOM     92  C5  IDS d   3      21.206 -44.151  31.150  0.00  0.00     0.152 C 
ATOM     93  O4  IDS d   3      20.482 -46.066  32.467  0.00  0.00    -0.348 OA
ATOM     94  S   IDS d   3      16.904 -44.235  33.388  0.00  0.00     0.252 S 
ATOM     95  C2  IDS d   3      18.345 -44.188  31.497  0.00  0.00     0.134 C 
ATOM     96  O2S IDS d   3      16.637 -42.788  33.096  0.00  0.00    -0.572 OA
ATOM     97  O5  IDS d   3      20.524 -43.219  32.004  0.00  0.00    -0.340 OA
ATOM     98  C6  IDS d   3      22.634 -44.324  31.675  0.00  0.00     0.206 C 
ATOM     99  C3  IDS d   3      19.032 -45.282  30.677  0.00  0.00     0.094 C 
ATOM    100  O2  IDS d   3      18.164 -44.640  32.844  0.00  0.00    -0.244 OA
ATOM    101  C4  IDS d   3      20.471 -45.491  31.157  0.00  0.00     0.103 C 
ATOM    102  O62 IDS d   3      23.456 -44.920  30.939  0.00  0.00    -0.646 OA
ATOM    103  O1S IDS d   3      15.816 -45.083  32.797  0.00  0.00    -0.572 OA
ATOM    104  H   IDS d   3      18.723 -42.232  32.194  0.00  0.00     0.133 H 
ATOM    105  H   IDS d   3      18.123 -44.790  28.990  0.00  0.00     0.210 HD
ATOM    106  H   IDS d   3      21.232 -43.787  30.144  0.00  0.00     0.104 H 
ATOM    107  H   IDS d   3      17.401 -43.972  31.043  0.00  0.00     0.097 H 
ATOM    108  H   IDS d   3      18.489 -46.196  30.807  0.00  0.00     0.091 H 
ATOM    109  H   IDS d   3      20.970 -46.168  30.496  0.00  0.00     0.092 H 
ENDROOT
TORSDOF 34
ENDMDL
MODEL 54
REMARK VINA RESULT:      -5.8      3.279     12.480
REMARK  0 active torsions:
REMARK  status: ('A' for Active; 'I' for Inactive)
REMARK       I    between atoms: C5_1  and  C6_10 
REMARK       I    between atoms: S2_2  and  O6_59 
REMARK       I    between atoms: O3_3  and  C3_61 
REMARK       I    between atoms: C5_5  and  C6_35 
REMARK       I    between atoms: C2_6  and  N_67 
REMARK       I    between atoms: C4_9  and  O4_55 
REMARK       I    between atoms: C1_11  and  O1_63 
REMARK       I    between atoms: C1_12  and  O4_30 
REMARK       I    between atoms: O1S_13  and  S1_24 
REMARK       I    between atoms: C3_14  and  O3_18 
REMARK       I    between atoms: C1_16  and  O4_29 
REMARK       I    between atoms: C2_19  and  O2_41 
REMARK       I    between atoms: C1_20  and  O4_38 
REMARK       I    between atoms: S2_21  and  O6_47 
REMARK       I    between atoms: O3_23  and  C3_58 
REMARK       I    between atoms: S1_24  and  N_33 
REMARK       I    between atoms: S1_24  and  O2S_37 
REMARK       I    between atoms: S1_24  and  O3S_34 
REMARK       I    between atoms: C4_25  and  O4_30 
REMARK       I    between atoms: C5_28  and  C6_56 
REMARK       I    between atoms: O4_29  and  C4_65 
REMARK       I    between atoms: S_31  and  O2_60 
REMARK       I    between atoms: C2_32  and  O2_60 
REMARK       I    between atoms: N_33  and  C2_46 
REMARK       I    between atoms: C6_35  and  O6_47 
REMARK       I    between atoms: C5_36  and  C6_40 
REMARK       I    between atoms: O4_38  and  C4_45 
REMARK       I    between atoms: C6_40  and  O6_59 
REMARK       I    between atoms: O2_41  and  S_54 
REMARK       I    between atoms: O1S_42  and  S1_53 
REMARK       I    between atoms: O3_43  and  C3_44 
REMARK       I    between atoms: O3S_50  and  S1_53 
REMARK       I    between atoms: O2S_52  and  S1_53 
REMARK       I    between atoms: S1_53  and  N_67 
ROOT
ATOM      1  C5  IDS d   1      17.536 -48.627  33.924  0.00  0.00     0.152 C 
ATOM      2  O2S IDS d   1      18.810 -49.529  39.093  0.00  0.00    -0.572 OA
ATOM      3  C4  IDS d   1      16.948 -48.521  35.335  0.00  0.00     0.097 C 
ATOM      4  C6  IDS d   1      16.575 -49.404  33.017  0.00  0.00     0.206 C 
ATOM      5  C2  IDS d   1      19.290 -48.572  36.220  0.00  0.00     0.134 C 
ATOM      6  C1  IDS d   1      19.775 -48.650  34.768  0.00  0.00     0.161 C 
ATOM      7  O61 IDS d   1      17.050 -50.307  32.291  0.00  0.00    -0.646 OA
ATOM      8  O3S IDS d   1      21.020 -49.273  38.080  0.00  0.00    -0.572 OA
ATOM      9  O2  IDS d   1      19.134 -49.897  36.739  0.00  0.00    -0.244 OA
ATOM     10  O3  IDS d   1      18.109 -46.472  35.960  0.00  0.00    -0.390 OA
ATOM     11  C3  IDS d   1      17.940 -47.854  36.290  0.00  0.00     0.094 C 
ATOM     12  O62 IDS d   1      15.369 -49.084  33.023  0.00  0.00    -0.646 OA
ATOM     13  S   IDS d   1      19.735 -50.042  38.030  0.00  0.00     0.252 S 
ATOM     14  O4  IDS d   1      16.594 -49.819  35.823  0.00  0.00    -0.390 OA
ATOM     15  O5  IDS d   1      18.798 -49.316  33.949  0.00  0.00    -0.340 OA
ATOM     16  O1S IDS d   1      20.020 -51.494  38.281  0.00  0.00    -0.572 OA
ATOM     17  H   IDS d   1      17.680 -47.636  33.550  0.00  0.00     0.104 H 
ATOM     18  H   IDS d   1      16.068 -47.916  35.284  0.00  0.00     0.091 H 
ATOM     19  H   IDS d   1      20.010 -48.029  36.795  0.00  0.00     0.097 H 
ATOM     20  H   IDS d   1      20.689 -49.207  34.763  0.00  0.00     0.133 H 
ATOM     21  H   IDS d   1      17.251 -46.021  36.006  0.00  0.00     0.210 HD
ATOM     22  H   IDS d   1      17.552 -47.921  37.286  0.00  0.00     0.091 H 
ATOM     23  H   IDS d   1      17.388 -50.374  35.872  0.00  0.00     0.210 HD
ATOM     24  S2  SGN d   2      23.490 -50.249  33.652  0.00  0.00     0.251 S 
ATOM     25  C2  SGN d   2      20.454 -46.168  30.716  0.00  0.00     0.081 C 
ATOM     26  O5S SGN d   2      23.104 -51.463  32.860  0.00  0.00    -0.572 OA
ATOM     27  O4S SGN d   2      23.023 -50.411  35.069  0.00  0.00    -0.572 OA
ATOM     28  C3  SGN d   2      19.772 -46.330  32.076  0.00  0.00     0.083 C 
ATOM     29  C1  SGN d   2      21.908 -45.720  30.882  0.00  0.00     0.150 C 
ATOM     30  O3  SGN d   2      18.465 -46.878  31.884  0.00  0.00    -0.391 OA
ATOM     31  C5  SGN d   2      22.053 -46.802  33.031  0.00  0.00     0.091 C 
ATOM     32  O4  SGN d   2      20.025 -47.373  34.245  0.00  0.00    -0.348 OA
ATOM     33  C6  SGN d   2      22.878 -47.846  33.791  0.00  0.00     0.067 C 
ATOM     34  O1S SGN d   2      19.252 -46.956  28.064  0.00  0.00    -0.296 OA
ATOM     35  C4  SGN d   2      20.602 -47.282  32.938  0.00  0.00     0.095 C 
ATOM     36  O6S SGN d   2      24.982 -50.099  33.630  0.00  0.00    -0.572 OA
ATOM     37  O3S SGN d   2      21.276 -45.571  27.899  0.00  0.00    -0.296 OA
ATOM     38  O2S SGN d   2      19.069 -44.589  27.493  0.00  0.00    -0.296 OA
ATOM     39  S1  SGN d   2      19.832 -45.595  28.305  0.00  0.00     0.156 S 
ATOM     40  O6  SGN d   2      22.878 -49.089  33.082  0.00  0.00    -0.254 OA
ATOM     41  N   SGN d   2      19.703 -45.214  29.885  0.00  0.00    -0.210 NA
ATOM     42  O5  SGN d   2      22.606 -46.665  31.712  0.00  0.00    -0.349 OA
ATOM     43  H   SGN d   2      20.460 -47.118  30.223  0.00  0.00     0.076 H 
ATOM     44  H   SGN d   2      19.694 -45.380  32.562  0.00  0.00     0.089 H 
ATOM     45  H   SGN d   2      22.358 -45.671  29.913  0.00  0.00     0.131 H 
ATOM     46  H   SGN d   2      18.537 -47.739  31.443  0.00  0.00     0.210 HD
ATOM     47  H   SGN d   2      22.079 -45.859  33.537  0.00  0.00     0.090 H 
ATOM     48  H   SGN d   2      22.453 -47.992  34.761  0.00  0.00     0.080 H 
ATOM     49  H   SGN d   2      23.885 -47.496  33.881  0.00  0.00     0.080 H 
ATOM     50  H   SGN d   2      19.330 -47.179  27.123  0.00  0.00     0.231 HD
ATOM     51  H   SGN d   2      20.601 -48.251  32.483  0.00  0.00     0.091 H 
ATOM     52  H   SGN d   2      21.351 -45.798  26.959  0.00  0.00     0.231 HD
ATOM     53  H   SGN d   2      19.143 -44.811  26.551  0.00  0.00     0.231 HD
ATOM     54  H   SGN d   2      20.075 -44.276  30.035  0.00  0.00     0.140 HD
ATOM     55  O3  SGN d   4      25.376 -40.561  33.774  0.00  0.00    -0.391 OA
ATOM     56  C5  SGN d   4      23.554 -37.861  31.895  0.00  0.00     0.091 C 
ATOM     57  C1  SGN d   4      25.125 -36.821  33.356  0.00  0.00     0.147 C 
ATOM     58  O1S SGN d   4      25.960 -38.401  36.914  0.00  0.00    -0.296 OA
ATOM     59  S2  SGN d   4      20.497 -36.139  30.525  0.00  0.00     0.251 S 
ATOM     60  S1  SGN d   4      26.868 -37.583  36.043  0.00  0.00     0.156 S 
ATOM     61  C4  SGN d   4      23.797 -39.241  32.509  0.00  0.00     0.095 C 
ATOM     62  O6S SGN d   4      20.504 -35.346  29.251  0.00  0.00    -0.572 OA
ATOM     63  O4  SGN d   4      23.593 -40.262  31.527  0.00  0.00    -0.348 OA
ATOM     64  N   SGN d   4      26.824 -38.168  34.522  0.00  0.00    -0.210 NA
ATOM     65  O3S SGN d   4      26.416 -36.153  36.046  0.00  0.00    -0.296 OA
ATOM     66  C6  SGN d   4      22.104 -37.786  31.418  0.00  0.00     0.067 C 
ATOM     67  O2S SGN d   4      28.273 -37.674  36.564  0.00  0.00    -0.296 OA
ATOM     68  C2  SGN d   4      25.440 -38.159  34.026  0.00  0.00     0.081 C 
ATOM     69  O6  SGN d   4      21.840 -36.499  30.858  0.00  0.00    -0.254 OA
ATOM     70  O4S SGN d   4      19.678 -37.383  30.341  0.00  0.00    -0.572 OA
ATOM     71  C3  SGN d   4      25.220 -39.329  33.064  0.00  0.00     0.083 C 
ATOM     72  O1  SGN d   4      26.014 -36.585  32.261  0.00  0.00    -0.369 OA
ATOM     73  O5  SGN d   4      23.766 -36.845  32.890  0.00  0.00    -0.350 OA
ATOM     74  O5S SGN d   4      19.901 -35.318  31.630  0.00  0.00    -0.572 OA
ATOM     75  H   SGN d   4      25.236 -41.305  33.167  0.00  0.00     0.210 HD
ATOM     76  H   SGN d   4      24.227 -37.709  31.077  0.00  0.00     0.090 H 
ATOM     77  H   SGN d   4      25.253 -36.031  34.065  0.00  0.00     0.131 H 
ATOM     78  H   SGN d   4      26.253 -39.325  36.911  0.00  0.00     0.231 HD
ATOM     79  H   SGN d   4      23.103 -39.386  33.310  0.00  0.00     0.091 H 
ATOM     80  H   SGN d   4      27.180 -39.124  34.516  0.00  0.00     0.140 HD
ATOM     81  H   SGN d   4      25.508 -36.100  35.708  0.00  0.00     0.231 HD
ATOM     82  H   SGN d   4      21.450 -37.953  32.247  0.00  0.00     0.080 H 
ATOM     83  H   SGN d   4      21.941 -38.533  30.670  0.00  0.00     0.080 H 
ATOM     84  H   SGN d   4      28.560 -38.601  36.560  0.00  0.00     0.231 HD
ATOM     85  H   SGN d   4      24.771 -38.278  34.852  0.00  0.00     0.076 H 
ATOM     86  H   SGN d   4      25.931 -39.287  32.264  0.00  0.00     0.089 H 
ATOM     87  H   SGN d   4      25.913 -37.293  31.604  0.00  0.00     0.212 HD
ATOM     88  C1  IDS d   3      22.394 -40.969  31.630  0.00  0.00     0.161 C 
ATOM     89  O61 IDS d   3      22.724 -43.687  34.576  0.00  0.00    -0.646 OA
ATOM     90  O3S IDS d   3      18.375 -41.849  30.344  0.00  0.00    -0.572 OA
ATOM     91  O3  IDS d   3      24.313 -42.247  29.702  0.00  0.00    -0.390 OA
ATOM     92  C5  IDS d   3      23.526 -42.885  32.482  0.00  0.00     0.152 C 
ATOM     93  O4  IDS d   3      21.978 -44.465  31.465  0.00  0.00    -0.348 OA
ATOM     94  S   IDS d   3      19.724 -41.410  29.856  0.00  0.00     0.252 S 
ATOM     95  C2  IDS d   3      22.039 -41.685  30.324  0.00  0.00     0.134 C 
ATOM     96  O2S IDS d   3      19.918 -39.973  30.240  0.00  0.00    -0.572 OA
ATOM     97  O5  IDS d   3      22.493 -41.914  32.708  0.00  0.00    -0.340 OA
ATOM     98  C6  IDS d   3      23.626 -43.775  33.723  0.00  0.00     0.206 C 
ATOM     99  C3  IDS d   3      23.039 -42.806  30.034  0.00  0.00     0.094 C 
ATOM    100  O2  IDS d   3      20.724 -42.238  30.458  0.00  0.00    -0.244 OA
ATOM    101  C4  IDS d   3      23.184 -43.725  31.251  0.00  0.00     0.103 C 
ATOM    102  O62 IDS d   3      24.618 -44.537  33.814  0.00  0.00    -0.646 OA
ATOM    103  O1S IDS d   3      19.796 -41.554  28.364  0.00  0.00    -0.572 OA
ATOM    104  H   IDS d   3      21.608 -40.271  31.830  0.00  0.00     0.133 H 
ATOM    105  H   IDS d   3      24.219 -41.666  28.931  0.00  0.00     0.210 HD
ATOM    106  H   IDS d   3      24.463 -42.399  32.307  0.00  0.00     0.104 H 
ATOM    107  H   IDS d   3      22.073 -40.988  29.513  0.00  0.00     0.097 H 
ATOM    108  H   IDS d   3      22.675 -43.382  29.209  0.00  0.00     0.091 H 
ATOM    109  H   IDS d   3      23.973 -44.425  31.074  0.00  0.00     0.092 H 
ENDROOT
TORSDOF 34
ENDMDL
MODEL 55
REMARK VINA RESULT:      -5.6      3.100     12.032
REMARK  0 active torsions:
REMARK  status: ('A' for Active; 'I' for Inactive)
REMARK       I    between atoms: C5_1  and  C6_10 
REMARK       I    between atoms: S2_2  and  O6_59 
REMARK       I    between atoms: O3_3  and  C3_61 
REMARK       I    between atoms: C5_5  and  C6_35 
REMARK       I    between atoms: C2_6  and  N_67 
REMARK       I    between atoms: C4_9  and  O4_55 
REMARK       I    between atoms: C1_11  and  O1_63 
REMARK       I    between atoms: C1_12  and  O4_30 
REMARK       I    between atoms: O1S_13  and  S1_24 
REMARK       I    between atoms: C3_14  and  O3_18 
REMARK       I    between atoms: C1_16  and  O4_29 
REMARK       I    between atoms: C2_19  and  O2_41 
REMARK       I    between atoms: C1_20  and  O4_38 
REMARK       I    between atoms: S2_21  and  O6_47 
REMARK       I    between atoms: O3_23  and  C3_58 
REMARK       I    between atoms: S1_24  and  N_33 
REMARK       I    between atoms: S1_24  and  O2S_37 
REMARK       I    between atoms: S1_24  and  O3S_34 
REMARK       I    between atoms: C4_25  and  O4_30 
REMARK       I    between atoms: C5_28  and  C6_56 
REMARK       I    between atoms: O4_29  and  C4_65 
REMARK       I    between atoms: S_31  and  O2_60 
REMARK       I    between atoms: C2_32  and  O2_60 
REMARK       I    between atoms: N_33  and  C2_46 
REMARK       I    between atoms: C6_35  and  O6_47 
REMARK       I    between atoms: C5_36  and  C6_40 
REMARK       I    between atoms: O4_38  and  C4_45 
REMARK       I    between atoms: C6_40  and  O6_59 
REMARK       I    between atoms: O2_41  and  S_54 
REMARK       I    between atoms: O1S_42  and  S1_53 
REMARK       I    between atoms: O3_43  and  C3_44 
REMARK       I    between atoms: O3S_50  and  S1_53 
REMARK       I    between atoms: O2S_52  and  S1_53 
REMARK       I    between atoms: S1_53  and  N_67 
ROOT
ATOM      1  C5  IDS d   1      18.049 -47.771  32.660  0.00  0.00     0.152 C 
ATOM      2  O2S IDS d   1      18.612 -49.506  37.741  0.00  0.00    -0.572 OA
ATOM      3  C4  IDS d   1      17.301 -47.816  33.996  0.00  0.00     0.097 C 
ATOM      4  C6  IDS d   1      17.155 -48.323  31.544  0.00  0.00     0.206 C 
ATOM      5  C2  IDS d   1      19.507 -48.195  35.117  0.00  0.00     0.134 C 
ATOM      6  C1  IDS d   1      20.161 -48.108  33.734  0.00  0.00     0.161 C 
ATOM      7  O61 IDS d   1      17.652 -49.152  30.747  0.00  0.00    -0.646 OA
ATOM      8  O3S IDS d   1      20.943 -49.302  37.031  0.00  0.00    -0.572 OA
ATOM      9  O2  IDS d   1      19.197 -49.563  35.409  0.00  0.00    -0.244 OA
ATOM     10  O3  IDS d   1      18.516 -45.985  35.049  0.00  0.00    -0.390 OA
ATOM     11  C3  IDS d   1      18.213 -47.380  35.145  0.00  0.00     0.094 C 
ATOM     12  O62 IDS d   1      15.983 -47.904  31.464  0.00  0.00    -0.646 OA
ATOM     13  S   IDS d   1      19.623 -49.942  36.722  0.00  0.00     0.252 S 
ATOM     14  O4  IDS d   1      16.799 -49.134  34.239  0.00  0.00    -0.390 OA
ATOM     15  O5  IDS d   1      19.247 -48.563  32.720  0.00  0.00    -0.340 OA
ATOM     16  O1S IDS d   1      19.773 -51.433  36.780  0.00  0.00    -0.572 OA
ATOM     17  H   IDS d   1      18.307 -46.752  32.458  0.00  0.00     0.104 H 
ATOM     18  H   IDS d   1      16.478 -47.135  33.940  0.00  0.00     0.091 H 
ATOM     19  H   IDS d   1      20.187 -47.805  35.845  0.00  0.00     0.097 H 
ATOM     20  H   IDS d   1      21.026 -48.736  33.746  0.00  0.00     0.133 H 
ATOM     21  H   IDS d   1      17.693 -45.472  35.068  0.00  0.00     0.210 HD
ATOM     22  H   IDS d   1      17.701 -47.554  36.070  0.00  0.00     0.091 H 
ATOM     23  H   IDS d   1      17.541 -49.757  34.291  0.00  0.00     0.210 HD
ATOM     24  S2  SGN d   2      23.864 -49.849  32.808  0.00  0.00     0.251 S 
ATOM     25  C2  SGN d   2      21.503 -45.143  30.206  0.00  0.00     0.081 C 
ATOM     26  O5S SGN d   2      23.494 -50.900  31.804  0.00  0.00    -0.572 OA
ATOM     27  O4S SGN d   2      23.216 -50.170  34.124  0.00  0.00    -0.572 OA
ATOM     28  C3  SGN d   2      20.650 -45.437  31.441  0.00  0.00     0.083 C 
ATOM     29  C1  SGN d   2      22.953 -44.851  30.599  0.00  0.00     0.150 C 
ATOM     30  O3  SGN d   2      19.342 -45.836  31.024  0.00  0.00    -0.391 OA
ATOM     31  C5  SGN d   2      22.758 -46.237  32.562  0.00  0.00     0.091 C 
ATOM     32  O4  SGN d   2      20.561 -46.796  33.441  0.00  0.00    -0.348 OA
ATOM     33  C6  SGN d   2      23.408 -47.446  33.241  0.00  0.00     0.067 C 
ATOM     34  O1S SGN d   2      20.584 -45.439  27.348  0.00  0.00    -0.296 OA
ATOM     35  C4  SGN d   2      21.300 -46.571  32.236  0.00  0.00     0.095 C 
ATOM     36  O6S SGN d   2      25.354 -49.828  32.976  0.00  0.00    -0.572 OA
ATOM     37  O3S SGN d   2      22.705 -44.226  27.621  0.00  0.00    -0.296 OA
ATOM     38  O2S SGN d   2      20.639 -43.007  27.126  0.00  0.00    -0.296 OA
ATOM     39  S1  SGN d   2      21.224 -44.180  27.856  0.00  0.00     0.156 S 
ATOM     40  O6  SGN d   2      23.408 -48.571  32.357  0.00  0.00    -0.254 OA
ATOM     41  N   SGN d   2      20.929 -44.019  29.451  0.00  0.00    -0.210 NA
ATOM     42  O5  SGN d   2      23.477 -45.962  31.348  0.00  0.00    -0.349 OA
ATOM     43  H   SGN d   2      21.504 -46.010  29.579  0.00  0.00     0.076 H 
ATOM     44  H   SGN d   2      20.579 -44.563  32.053  0.00  0.00     0.089 H 
ATOM     45  H   SGN d   2      23.522 -44.705  29.705  0.00  0.00     0.131 H 
ATOM     46  H   SGN d   2      19.407 -46.629  30.469  0.00  0.00     0.210 HD
ATOM     47  H   SGN d   2      22.787 -45.381  33.204  0.00  0.00     0.090 H 
ATOM     48  H   SGN d   2      22.858 -47.692  34.125  0.00  0.00     0.080 H 
ATOM     49  H   SGN d   2      24.418 -47.202  33.494  0.00  0.00     0.080 H 
ATOM     50  H   SGN d   2      20.762 -45.531  26.399  0.00  0.00     0.231 HD
ATOM     51  H   SGN d   2      21.286 -47.461  31.642  0.00  0.00     0.091 H 
ATOM     52  H   SGN d   2      22.879 -44.322  26.671  0.00  0.00     0.231 HD
ATOM     53  H   SGN d   2      20.812 -43.099  26.175  0.00  0.00     0.231 HD
ATOM     54  H   SGN d   2      21.343 -43.147  29.781  0.00  0.00     0.140 HD
ATOM     55  O3  SGN d   4      26.391 -40.479  34.607  0.00  0.00    -0.391 OA
ATOM     56  C5  SGN d   4      25.007 -37.391  32.968  0.00  0.00     0.091 C 
ATOM     57  C1  SGN d   4      26.455 -36.710  34.735  0.00  0.00     0.147 C 
ATOM     58  O1S SGN d   4      26.733 -38.846  38.084  0.00  0.00    -0.296 OA
ATOM     59  S2  SGN d   4      22.269 -35.231  31.543  0.00  0.00     0.251 S 
ATOM     60  S1  SGN d   4      27.797 -37.996  37.453  0.00  0.00     0.156 S 
ATOM     61  C4  SGN d   4      25.075 -38.860  33.389  0.00  0.00     0.095 C 
ATOM     62  O6S SGN d   4      22.488 -34.269  30.413  0.00  0.00    -0.572 OA
ATOM     63  O4  SGN d   4      24.922 -39.709  32.247  0.00  0.00    -0.348 OA
ATOM     64  N   SGN d   4      27.899 -38.352  35.866  0.00  0.00    -0.210 NA
ATOM     65  O3S SGN d   4      27.448 -36.547  37.622  0.00  0.00    -0.296 OA
ATOM     66  C6  SGN d   4      23.635 -37.122  32.349  0.00  0.00     0.067 C 
ATOM     67  O2S SGN d   4      29.117 -38.282  38.108  0.00  0.00    -0.296 OA
ATOM     68  C2  SGN d   4      26.591 -38.152  35.226  0.00  0.00     0.081 C 
ATOM     69  O6  SGN d   4      23.532 -35.750  31.965  0.00  0.00    -0.254 OA
ATOM     70  O4S SGN d   4      21.394 -36.360  31.083  0.00  0.00    -0.572 OA
ATOM     71  C3  SGN d   4      26.410 -39.149  34.079  0.00  0.00     0.083 C 
ATOM     72  O1  SGN d   4      27.486 -36.399  33.794  0.00  0.00    -0.369 OA
ATOM     73  O5  SGN d   4      25.165 -36.548  34.123  0.00  0.00    -0.350 OA
ATOM     74  O5S SGN d   4      21.600 -34.527  32.687  0.00  0.00    -0.572 OA
ATOM     75  H   SGN d   4      26.275 -41.113  33.882  0.00  0.00     0.210 HD
ATOM     76  H   SGN d   4      25.784 -37.183  32.263  0.00  0.00     0.090 H 
ATOM     77  H   SGN d   4      26.549 -36.043  35.566  0.00  0.00     0.131 H 
ATOM     78  H   SGN d   4      26.960 -39.783  37.974  0.00  0.00     0.231 HD
ATOM     79  H   SGN d   4      24.280 -39.057  34.077  0.00  0.00     0.091 H 
ATOM     80  H   SGN d   4      28.186 -39.324  35.754  0.00  0.00     0.140 HD
ATOM     81  H   SGN d   4      26.595 -36.367  37.197  0.00  0.00     0.231 HD
ATOM     82  H   SGN d   4      22.874 -37.348  33.066  0.00  0.00     0.080 H 
ATOM     83  H   SGN d   4      23.513 -37.739  31.484  0.00  0.00     0.080 H 
ATOM     84  H   SGN d   4      29.338 -39.220  37.995  0.00  0.00     0.231 HD
ATOM     85  H   SGN d   4      25.818 -38.329  35.944  0.00  0.00     0.076 H 
ATOM     86  H   SGN d   4      27.215 -39.056  33.379  0.00  0.00     0.089 H 
ATOM     87  H   SGN d   4      27.417 -36.994  33.031  0.00  0.00     0.212 HD
ATOM     88  C1  IDS d   3      23.674 -40.317  32.108  0.00  0.00     0.161 C 
ATOM     89  O61 IDS d   3      23.449 -43.444  34.626  0.00  0.00    -0.646 OA
ATOM     90  O3S IDS d   3      19.792 -40.650  30.264  0.00  0.00    -0.572 OA
ATOM     91  O3  IDS d   3      25.722 -41.469  30.234  0.00  0.00    -0.390 OA
ATOM     92  C5  IDS d   3      24.556 -42.425  32.780  0.00  0.00     0.152 C 
ATOM     93  O4  IDS d   3      23.039 -43.703  31.369  0.00  0.00    -0.348 OA
ATOM     94  S   IDS d   3      21.218 -40.266  30.002  0.00  0.00     0.252 S 
ATOM     95  C2  IDS d   3      23.433 -40.806  30.677  0.00  0.00     0.134 C 
ATOM     96  O2S IDS d   3      21.464 -38.921  30.618  0.00  0.00    -0.572 OA
ATOM     97  O5  IDS d   3      23.573 -41.410  33.034  0.00  0.00    -0.340 OA
ATOM     98  C6  IDS d   3      24.441 -43.488  33.875  0.00  0.00     0.206 C 
ATOM     99  C3  IDS d   3      24.380 -41.957  30.334  0.00  0.00     0.094 C 
ATOM    100  O2  IDS d   3      22.077 -41.255  30.578  0.00  0.00    -0.244 OA
ATOM    101  C4  IDS d   3      24.310 -43.049  31.406  0.00  0.00     0.103 C 
ATOM    102  O62 IDS d   3      25.358 -44.339  33.959  0.00  0.00    -0.646 OA
ATOM    103  O1S IDS d   3      21.463 -40.202  28.523  0.00  0.00    -0.572 OA
ATOM    104  H   IDS d   3      22.920 -39.588  32.323  0.00  0.00     0.133 H 
ATOM    105  H   IDS d   3      25.764 -40.778  29.554  0.00  0.00     0.210 HD
ATOM    106  H   IDS d   3      25.540 -42.003  32.786  0.00  0.00     0.104 H 
ATOM    107  H   IDS d   3      23.615 -40.006  29.990  0.00  0.00     0.097 H 
ATOM    108  H   IDS d   3      24.081 -42.375  29.395  0.00  0.00     0.091 H 
ATOM    109  H   IDS d   3      25.065 -43.782  31.213  0.00  0.00     0.092 H 
ENDROOT
TORSDOF 34
ENDMDL
MODEL 56
REMARK VINA RESULT:      -5.0      4.375      8.394
REMARK  0 active torsions:
REMARK  status: ('A' for Active; 'I' for Inactive)
REMARK       I    between atoms: C5_1  and  C6_10 
REMARK       I    between atoms: S2_2  and  O6_59 
REMARK       I    between atoms: O3_3  and  C3_61 
REMARK       I    between atoms: C5_5  and  C6_35 
REMARK       I    between atoms: C2_6  and  N_67 
REMARK       I    between atoms: C4_9  and  O4_55 
REMARK       I    between atoms: C1_11  and  O1_63 
REMARK       I    between atoms: C1_12  and  O4_30 
REMARK       I    between atoms: O1S_13  and  S1_24 
REMARK       I    between atoms: C3_14  and  O3_18 
REMARK       I    between atoms: C1_16  and  O4_29 
REMARK       I    between atoms: C2_19  and  O2_41 
REMARK       I    between atoms: C1_20  and  O4_38 
REMARK       I    between atoms: S2_21  and  O6_47 
REMARK       I    between atoms: O3_23  and  C3_58 
REMARK       I    between atoms: S1_24  and  N_33 
REMARK       I    between atoms: S1_24  and  O2S_37 
REMARK       I    between atoms: S1_24  and  O3S_34 
REMARK       I    between atoms: C4_25  and  O4_30 
REMARK       I    between atoms: C5_28  and  C6_56 
REMARK       I    between atoms: O4_29  and  C4_65 
REMARK       I    between atoms: S_31  and  O2_60 
REMARK       I    between atoms: C2_32  and  O2_60 
REMARK       I    between atoms: N_33  and  C2_46 
REMARK       I    between atoms: C6_35  and  O6_47 
REMARK       I    between atoms: C5_36  and  C6_40 
REMARK       I    between atoms: O4_38  and  C4_45 
REMARK       I    between atoms: C6_40  and  O6_59 
REMARK       I    between atoms: O2_41  and  S_54 
REMARK       I    between atoms: O1S_42  and  S1_53 
REMARK       I    between atoms: O3_43  and  C3_44 
REMARK       I    between atoms: O3S_50  and  S1_53 
REMARK       I    between atoms: O2S_52  and  S1_53 
REMARK       I    between atoms: S1_53  and  N_67 
ROOT
ATOM      1  C5  IDS d   1      17.847 -39.576  29.237  0.00  0.00     0.152 C 
ATOM      2  O2S IDS d   1      14.063 -43.003  30.994  0.00  0.00    -0.572 OA
ATOM      3  C4  IDS d   1      16.553 -39.608  30.057  0.00  0.00     0.097 C 
ATOM      4  C6  IDS d   1      17.745 -38.502  28.149  0.00  0.00     0.206 C 
ATOM      5  C2  IDS d   1      16.914 -42.066  30.366  0.00  0.00     0.134 C 
ATOM      6  C1  IDS d   1      18.206 -41.920  29.554  0.00  0.00     0.161 C 
ATOM      7  O61 IDS d   1      18.098 -38.806  26.986  0.00  0.00    -0.646 OA
ATOM      8  O3S IDS d   1      15.954 -44.508  30.625  0.00  0.00    -0.572 OA
ATOM      9  O2  IDS d   1      15.836 -42.401  29.485  0.00  0.00    -0.244 OA
ATOM     10  O3  IDS d   1      17.547 -40.494  32.098  0.00  0.00    -0.390 OA
ATOM     11  C3  IDS d   1      16.581 -40.752  31.074  0.00  0.00     0.094 C 
ATOM     12  O62 IDS d   1      17.343 -37.367  28.474  0.00  0.00    -0.646 OA
ATOM     13  S   IDS d   1      15.056 -43.494  29.983  0.00  0.00     0.252 S 
ATOM     14  O4  IDS d   1      15.421 -39.748  29.193  0.00  0.00    -0.390 OA
ATOM     15  O5  IDS d   1      18.081 -40.846  28.606  0.00  0.00    -0.340 OA
ATOM     16  O1S IDS d   1      14.324 -44.136  28.842  0.00  0.00    -0.572 OA
ATOM     17  H   IDS d   1      18.655 -39.355  29.902  0.00  0.00     0.104 H 
ATOM     18  H   IDS d   1      16.473 -38.684  30.589  0.00  0.00     0.091 H 
ATOM     19  H   IDS d   1      17.051 -42.836  31.096  0.00  0.00     0.097 H 
ATOM     20  H   IDS d   1      18.366 -42.842  29.034  0.00  0.00     0.133 H 
ATOM     21  H   IDS d   1      17.332 -39.660  32.544  0.00  0.00     0.210 HD
ATOM     22  H   IDS d   1      15.614 -40.826  31.529  0.00  0.00     0.091 H 
ATOM     23  H   IDS d   1      15.487 -40.584  28.707  0.00  0.00     0.210 HD
ATOM     24  S2  SGN d   2      20.000 -45.088  27.470  0.00  0.00     0.251 S 
ATOM     25  C2  SGN d   2      22.750 -40.378  29.648  0.00  0.00     0.081 C 
ATOM     26  O5S SGN d   2      19.870 -44.660  26.039  0.00  0.00    -0.572 OA
ATOM     27  O4S SGN d   2      18.633 -45.284  28.056  0.00  0.00    -0.572 OA
ATOM     28  C3  SGN d   2      21.329 -40.359  30.214  0.00  0.00     0.083 C 
ATOM     29  C1  SGN d   2      23.488 -41.653  30.063  0.00  0.00     0.150 C 
ATOM     30  O3  SGN d   2      20.631 -39.224  29.694  0.00  0.00    -0.391 OA
ATOM     31  C5  SGN d   2      21.415 -42.875  30.196  0.00  0.00     0.091 C 
ATOM     32  O4  SGN d   2      19.307 -41.677  30.387  0.00  0.00    -0.348 OA
ATOM     33  C6  SGN d   2      20.726 -44.126  29.642  0.00  0.00     0.067 C 
ATOM     34  O1S SGN d   2      23.866 -38.378  27.685  0.00  0.00    -0.296 OA
ATOM     35  C4  SGN d   2      20.607 -41.639  29.790  0.00  0.00     0.095 C 
ATOM     36  O6S SGN d   2      20.762 -46.380  27.532  0.00  0.00    -0.572 OA
ATOM     37  O3S SGN d   2      25.547 -39.840  28.723  0.00  0.00    -0.296 OA
ATOM     38  O2S SGN d   2      25.312 -37.515  29.454  0.00  0.00    -0.296 OA
ATOM     39  S1  SGN d   2      24.573 -38.724  28.961  0.00  0.00     0.156 S 
ATOM     40  O6  SGN d   2      20.693 -44.081  28.212  0.00  0.00    -0.254 OA
ATOM     41  N   SGN d   2      23.484 -39.181  30.086  0.00  0.00    -0.210 NA
ATOM     42  O5  SGN d   2      22.735 -42.801  29.634  0.00  0.00    -0.349 OA
ATOM     43  H   SGN d   2      22.691 -40.369  28.579  0.00  0.00     0.076 H 
ATOM     44  H   SGN d   2      21.361 -40.301  31.282  0.00  0.00     0.089 H 
ATOM     45  H   SGN d   2      24.453 -41.649  29.603  0.00  0.00     0.131 H 
ATOM     46  H   SGN d   2      20.602 -39.277  28.726  0.00  0.00     0.210 HD
ATOM     47  H   SGN d   2      21.475 -42.919  31.264  0.00  0.00     0.090 H 
ATOM     48  H   SGN d   2      19.725 -44.173  30.017  0.00  0.00     0.080 H 
ATOM     49  H   SGN d   2      21.275 -44.991  29.951  0.00  0.00     0.080 H 
ATOM     50  H   SGN d   2      24.516 -38.107  27.019  0.00  0.00     0.231 HD
ATOM     51  H   SGN d   2      20.507 -41.643  28.724  0.00  0.00     0.091 H 
ATOM     52  H   SGN d   2      26.194 -39.567  28.053  0.00  0.00     0.231 HD
ATOM     53  H   SGN d   2      25.961 -37.239  28.788  0.00  0.00     0.231 HD
ATOM     54  H   SGN d   2      23.971 -39.388  30.958  0.00  0.00     0.140 HD
ATOM     55  O3  SGN d   4      25.230 -44.908  35.839  0.00  0.00    -0.391 OA
ATOM     56  C5  SGN d   4      27.086 -41.985  37.304  0.00  0.00     0.091 C 
ATOM     57  C1  SGN d   4      27.162 -43.777  38.875  0.00  0.00     0.147 C 
ATOM     58  O1S SGN d   4      24.095 -46.287  39.257  0.00  0.00    -0.296 OA
ATOM     59  S2  SGN d   4      27.543 -38.361  38.226  0.00  0.00     0.251 S 
ATOM     60  S1  SGN d   4      25.548 -46.580  39.493  0.00  0.00     0.156 S 
ATOM     61  C4  SGN d   4      26.090 -42.725  36.408  0.00  0.00     0.095 C 
ATOM     62  O6S SGN d   4      28.884 -37.690  38.274  0.00  0.00    -0.572 OA
ATOM     63  O4  SGN d   4      26.276 -42.342  35.042  0.00  0.00    -0.348 OA
ATOM     64  N   SGN d   4      26.419 -46.033  38.228  0.00  0.00    -0.210 NA
ATOM     65  O3S SGN d   4      26.001 -45.895  40.749  0.00  0.00    -0.296 OA
ATOM     66  C6  SGN d   4      26.829 -40.483  37.186  0.00  0.00     0.067 C 
ATOM     67  O2S SGN d   4      25.744 -48.062  39.622  0.00  0.00    -0.296 OA
ATOM     68  C2  SGN d   4      26.176 -44.596  38.040  0.00  0.00     0.081 C 
ATOM     69  O6  SGN d   4      27.730 -39.764  38.030  0.00  0.00    -0.254 OA
ATOM     70  O4S SGN d   4      26.738 -37.801  37.089  0.00  0.00    -0.572 OA
ATOM     71  C3  SGN d   4      26.270 -44.236  36.556  0.00  0.00     0.083 C 
ATOM     72  O1  SGN d   4      28.509 -44.074  38.497  0.00  0.00    -0.369 OA
ATOM     73  O5  SGN d   4      26.891 -42.380  38.673  0.00  0.00    -0.350 OA
ATOM     74  O5S SGN d   4      26.808 -38.120  39.511  0.00  0.00    -0.572 OA
ATOM     75  H   SGN d   4      25.288 -44.682  34.898  0.00  0.00     0.210 HD
ATOM     76  H   SGN d   4      28.085 -42.219  37.001  0.00  0.00     0.090 H 
ATOM     77  H   SGN d   4      27.043 -44.025  39.908  0.00  0.00     0.131 H 
ATOM     78  H   SGN d   4      23.803 -46.730  38.444  0.00  0.00     0.231 HD
ATOM     79  H   SGN d   4      25.098 -42.462  36.710  0.00  0.00     0.091 H 
ATOM     80  H   SGN d   4      26.144 -46.536  37.384  0.00  0.00     0.140 HD
ATOM     81  H   SGN d   4      25.872 -44.938  40.660  0.00  0.00     0.231 HD
ATOM     82  H   SGN d   4      25.822 -40.272  37.482  0.00  0.00     0.080 H 
ATOM     83  H   SGN d   4      26.980 -40.179  36.172  0.00  0.00     0.080 H 
ATOM     84  H   SGN d   4      25.450 -48.499  38.807  0.00  0.00     0.231 HD
ATOM     85  H   SGN d   4      25.187 -44.360  38.376  0.00  0.00     0.076 H 
ATOM     86  H   SGN d   4      27.222 -44.534  36.165  0.00  0.00     0.089 H 
ATOM     87  H   SGN d   4      28.637 -43.855  37.560  0.00  0.00     0.212 HD
ATOM     88  C1  IDS d   3      25.329 -41.456  34.528  0.00  0.00     0.161 C 
ATOM     89  O61 IDS d   3      21.976 -43.490  33.638  0.00  0.00    -0.646 OA
ATOM     90  O3S IDS d   3      24.085 -37.522  33.278  0.00  0.00    -0.572 OA
ATOM     91  O3  IDS d   3      27.079 -42.628  32.384  0.00  0.00    -0.390 OA
ATOM     92  C5  IDS d   3      24.307 -43.190  33.254  0.00  0.00     0.152 C 
ATOM     93  O4  IDS d   3      23.654 -41.706  31.437  0.00  0.00    -0.348 OA
ATOM     94  S   IDS d   3      25.271 -38.437  33.361  0.00  0.00     0.252 S 
ATOM     95  C2  IDS d   3      25.834 -40.746  33.269  0.00  0.00     0.134 C 
ATOM     96  O2S IDS d   3      25.729 -38.485  34.788  0.00  0.00    -0.572 OA
ATOM     97  O5  IDS d   3      24.115 -42.171  34.246  0.00  0.00    -0.340 OA
ATOM     98  C6  IDS d   3      22.995 -43.963  33.101  0.00  0.00     0.206 C 
ATOM     99  C3  IDS d   3      25.991 -41.739  32.116  0.00  0.00     0.094 C 
ATOM    100  O2  IDS d   3      24.882 -39.738  32.908  0.00  0.00    -0.244 OA
ATOM    101  C4  IDS d   3      24.704 -42.547  31.924  0.00  0.00     0.103 C 
ATOM    102  O62 IDS d   3      23.022 -45.033  32.449  0.00  0.00    -0.646 OA
ATOM    103  O1S IDS d   3      26.375 -37.920  32.487  0.00  0.00    -0.572 OA
ATOM    104  H   IDS d   3      25.143 -40.700  35.262  0.00  0.00     0.133 H 
ATOM    105  H   IDS d   3      27.894 -42.115  32.505  0.00  0.00     0.210 HD
ATOM    106  H   IDS d   3      25.089 -43.858  33.550  0.00  0.00     0.104 H 
ATOM    107  H   IDS d   3      26.790 -40.307  33.464  0.00  0.00     0.097 H 
ATOM    108  H   IDS d   3      26.190 -41.191  31.219  0.00  0.00     0.091 H 
ATOM    109  H   IDS d   3      24.874 -43.316  31.200  0.00  0.00     0.092 H 
ENDROOT
TORSDOF 34
ENDMDL
MODEL 57
REMARK VINA RESULT:      -5.0      4.145     11.037
REMARK  0 active torsions:
REMARK  status: ('A' for Active; 'I' for Inactive)
REMARK       I    between atoms: C5_1  and  C6_10 
REMARK       I    between atoms: S2_2  and  O6_59 
REMARK       I    between atoms: O3_3  and  C3_61 
REMARK       I    between atoms: C5_5  and  C6_35 
REMARK       I    between atoms: C2_6  and  N_67 
REMARK       I    between atoms: C4_9  and  O4_55 
REMARK       I    between atoms: C1_11  and  O1_63 
REMARK       I    between atoms: C1_12  and  O4_30 
REMARK       I    between atoms: O1S_13  and  S1_24 
REMARK       I    between atoms: C3_14  and  O3_18 
REMARK       I    between atoms: C1_16  and  O4_29 
REMARK       I    between atoms: C2_19  and  O2_41 
REMARK       I    between atoms: C1_20  and  O4_38 
REMARK       I    between atoms: S2_21  and  O6_47 
REMARK       I    between atoms: O3_23  and  C3_58 
REMARK       I    between atoms: S1_24  and  N_33 
REMARK       I    between atoms: S1_24  and  O2S_37 
REMARK       I    between atoms: S1_24  and  O3S_34 
REMARK       I    between atoms: C4_25  and  O4_30 
REMARK       I    between atoms: C5_28  and  C6_56 
REMARK       I    between atoms: O4_29  and  C4_65 
REMARK       I    between atoms: S_31  and  O2_60 
REMARK       I    between atoms: C2_32  and  O2_60 
REMARK       I    between atoms: N_33  and  C2_46 
REMARK       I    between atoms: C6_35  and  O6_47 
REMARK       I    between atoms: C5_36  and  C6_40 
REMARK       I    between atoms: O4_38  and  C4_45 
REMARK       I    between atoms: C6_40  and  O6_59 
REMARK       I    between atoms: O2_41  and  S_54 
REMARK       I    between atoms: O1S_42  and  S1_53 
REMARK       I    between atoms: O3_43  and  C3_44 
REMARK       I    between atoms: O3S_50  and  S1_53 
REMARK       I    between atoms: O2S_52  and  S1_53 
REMARK       I    between atoms: S1_53  and  N_67 
ROOT
ATOM      1  C5  IDS d   1      16.045 -45.946  31.034  0.00  0.00     0.152 C 
ATOM      2  O2S IDS d   1      14.673 -50.199  34.063  0.00  0.00    -0.572 OA
ATOM      3  C4  IDS d   1      15.169 -46.326  32.232  0.00  0.00     0.097 C 
ATOM      4  C6  IDS d   1      15.208 -45.189  29.997  0.00  0.00     0.206 C 
ATOM      5  C2  IDS d   1      16.580 -48.375  32.503  0.00  0.00     0.134 C 
ATOM      6  C1  IDS d   1      17.410 -47.892  31.309  0.00  0.00     0.161 C 
ATOM      7  O61 IDS d   1      15.311 -45.529  28.796  0.00  0.00    -0.646 OA
ATOM      8  O3S IDS d   1      16.826 -50.917  33.156  0.00  0.00    -0.572 OA
ATOM      9  O2  IDS d   1      15.536 -49.236  32.036  0.00  0.00    -0.244 OA
ATOM     10  O3  IDS d   1      16.971 -46.413  33.870  0.00  0.00    -0.390 OA
ATOM     11  C3  IDS d   1      15.950 -47.185  33.229  0.00  0.00     0.094 C 
ATOM     12  O62 IDS d   1      14.484 -44.253  30.391  0.00  0.00    -0.646 OA
ATOM     13  S   IDS d   1      15.449 -50.442  32.804  0.00  0.00     0.252 S 
ATOM     14  O4  IDS d   1      14.001 -47.026  31.790  0.00  0.00    -0.390 OA
ATOM     15  O5  IDS d   1      16.593 -47.120  30.411  0.00  0.00    -0.340 OA
ATOM     16  O1S IDS d   1      14.757 -51.495  31.990  0.00  0.00    -0.572 OA
ATOM     17  H   IDS d   1      16.843 -45.328  31.389  0.00  0.00     0.104 H 
ATOM     18  H   IDS d   1      14.869 -45.425  32.725  0.00  0.00     0.091 H 
ATOM     19  H   IDS d   1      17.222 -48.902  33.178  0.00  0.00     0.097 H 
ATOM     20  H   IDS d   1      17.782 -48.758  30.802  0.00  0.00     0.133 H 
ATOM     21  H   IDS d   1      16.567 -45.660  34.329  0.00  0.00     0.210 HD
ATOM     22  H   IDS d   1      15.272 -47.541  33.976  0.00  0.00     0.091 H 
ATOM     23  H   IDS d   1      14.266 -47.844  31.343  0.00  0.00     0.210 HD
ATOM     24  S2  SGN d   2      19.681 -50.450  28.879  0.00  0.00     0.251 S 
ATOM     25  C2  SGN d   2      20.740 -44.756  29.853  0.00  0.00     0.081 C 
ATOM     26  O5S SGN d   2      18.988 -50.351  27.554  0.00  0.00    -0.572 OA
ATOM     27  O4S SGN d   2      18.743 -51.046  29.887  0.00  0.00    -0.572 OA
ATOM     28  C3  SGN d   2      19.661 -45.180  30.851  0.00  0.00     0.083 C 
ATOM     29  C1  SGN d   2      22.022 -45.569  30.055  0.00  0.00     0.150 C 
ATOM     30  O3  SGN d   2      18.442 -44.497  30.543  0.00  0.00    -0.391 OA
ATOM     31  C5  SGN d   2      20.766 -47.442  30.906  0.00  0.00     0.091 C 
ATOM     32  O4  SGN d   2      18.500 -47.114  31.726  0.00  0.00    -0.348 OA
ATOM     33  C6  SGN d   2      20.527 -48.934  30.656  0.00  0.00     0.067 C 
ATOM     34  O1S SGN d   2      20.330 -42.844  27.557  0.00  0.00    -0.296 OA
ATOM     35  C4  SGN d   2      19.442 -46.690  30.737  0.00  0.00     0.095 C 
ATOM     36  O6S SGN d   2      20.890 -51.328  28.741  0.00  0.00    -0.572 OA
ATOM     37  O3S SGN d   2      22.682 -43.366  28.046  0.00  0.00    -0.296 OA
ATOM     38  O2S SGN d   2      21.727 -41.214  28.722  0.00  0.00    -0.296 OA
ATOM     39  S1  SGN d   2      21.446 -42.678  28.545  0.00  0.00     0.156 S 
ATOM     40  O6  SGN d   2      20.077 -49.147  29.315  0.00  0.00    -0.254 OA
ATOM     41  N   SGN d   2      21.008 -43.316  29.981  0.00  0.00    -0.210 NA
ATOM     42  O5  SGN d   2      21.721 -46.970  29.941  0.00  0.00    -0.349 OA
ATOM     43  H   SGN d   2      20.384 -44.951  28.864  0.00  0.00     0.076 H 
ATOM     44  H   SGN d   2      19.966 -44.935  31.847  0.00  0.00     0.089 H 
ATOM     45  H   SGN d   2      22.727 -45.278  29.305  0.00  0.00     0.131 H 
ATOM     46  H   SGN d   2      18.166 -44.720  29.640  0.00  0.00     0.210 HD
ATOM     47  H   SGN d   2      21.138 -47.279  31.896  0.00  0.00     0.090 H 
ATOM     48  H   SGN d   2      19.785 -49.292  31.339  0.00  0.00     0.080 H 
ATOM     49  H   SGN d   2      21.446 -49.463  30.803  0.00  0.00     0.080 H 
ATOM     50  H   SGN d   2      20.594 -42.464  26.705  0.00  0.00     0.231 HD
ATOM     51  H   SGN d   2      19.056 -46.910  29.763  0.00  0.00     0.091 H 
ATOM     52  H   SGN d   2      22.941 -42.987  27.192  0.00  0.00     0.231 HD
ATOM     53  H   SGN d   2      21.989 -40.831  27.870  0.00  0.00     0.231 HD
ATOM     54  H   SGN d   2      21.761 -43.173  30.654  0.00  0.00     0.140 HD
ATOM     55  O3  SGN d   4      26.502 -46.902  35.070  0.00  0.00    -0.391 OA
ATOM     56  C5  SGN d   4      27.320 -43.293  35.733  0.00  0.00     0.091 C 
ATOM     57  C1  SGN d   4      28.567 -44.631  37.262  0.00  0.00     0.147 C 
ATOM     58  O1S SGN d   4      27.050 -48.011  38.723  0.00  0.00    -0.296 OA
ATOM     59  S2  SGN d   4      26.485 -39.666  36.311  0.00  0.00     0.251 S 
ATOM     60  S1  SGN d   4      28.496 -47.689  38.483  0.00  0.00     0.156 S 
ATOM     61  C4  SGN d   4      26.509 -44.493  35.241  0.00  0.00     0.095 C 
ATOM     62  O6S SGN d   4      27.385 -38.540  35.893  0.00  0.00    -0.572 OA
ATOM     63  O4  SGN d   4      26.127 -44.305  33.875  0.00  0.00    -0.348 OA
ATOM     64  N   SGN d   4      28.669 -47.075  36.982  0.00  0.00    -0.210 NA
ATOM     65  O3S SGN d   4      28.961 -46.683  39.494  0.00  0.00    -0.296 OA
ATOM     66  C6  SGN d   4      26.446 -42.042  35.647  0.00  0.00     0.067 C 
ATOM     67  O2S SGN d   4      29.312 -48.943  38.599  0.00  0.00    -0.296 OA
ATOM     68  C2  SGN d   4      27.813 -45.890  36.828  0.00  0.00     0.081 C 
ATOM     69  O6  SGN d   4      27.170 -40.906  36.121  0.00  0.00    -0.254 OA
ATOM     70  O4S SGN d   4      25.237 -39.651  35.479  0.00  0.00    -0.572 OA
ATOM     71  C3  SGN d   4      27.329 -45.777  35.381  0.00  0.00     0.083 C 
ATOM     72  O1  SGN d   4      29.750 -44.458  36.477  0.00  0.00    -0.369 OA
ATOM     73  O5  SGN d   4      27.701 -43.495  37.105  0.00  0.00    -0.350 OA
ATOM     74  O5S SGN d   4      26.112 -39.507  37.756  0.00  0.00    -0.572 OA
ATOM     75  H   SGN d   4      26.192 -46.833  34.153  0.00  0.00     0.210 HD
ATOM     76  H   SGN d   4      28.197 -43.180  35.130  0.00  0.00     0.090 H 
ATOM     77  H   SGN d   4      28.858 -44.728  38.287  0.00  0.00     0.131 H 
ATOM     78  H   SGN d   4      26.750 -48.661  38.068  0.00  0.00     0.231 HD
ATOM     79  H   SGN d   4      25.626 -44.578  35.840  0.00  0.00     0.091 H 
ATOM     80  H   SGN d   4      28.399 -47.779  36.296  0.00  0.00     0.140 HD
ATOM     81  H   SGN d   4      28.431 -45.875  39.415  0.00  0.00     0.231 HD
ATOM     82  H   SGN d   4      25.571 -42.180  36.246  0.00  0.00     0.080 H 
ATOM     83  H   SGN d   4      26.166 -41.879  34.627  0.00  0.00     0.080 H 
ATOM     84  H   SGN d   4      29.007 -49.589  37.943  0.00  0.00     0.231 HD
ATOM     85  H   SGN d   4      26.955 -45.992  37.459  0.00  0.00     0.076 H 
ATOM     86  H   SGN d   4      28.165 -45.755  34.713  0.00  0.00     0.089 H 
ATOM     87  H   SGN d   4      29.507 -44.367  35.542  0.00  0.00     0.212 HD
ATOM     88  C1  IDS d   3      24.796 -43.942  33.663  0.00  0.00     0.161 C 
ATOM     89  O61 IDS d   3      22.477 -47.210  33.997  0.00  0.00    -0.646 OA
ATOM     90  O3S IDS d   3      21.747 -41.040  32.734  0.00  0.00    -0.572 OA
ATOM     91  O3  IDS d   3      26.191 -44.710  31.114  0.00  0.00    -0.390 OA
ATOM     92  C5  IDS d   3      24.265 -46.122  32.862  0.00  0.00     0.152 C 
ATOM     93  O4  IDS d   3      22.575 -45.323  31.301  0.00  0.00    -0.348 OA
ATOM     94  S   IDS d   3      23.175 -41.412  32.462  0.00  0.00     0.252 S 
ATOM     95  C2  IDS d   3      24.587 -43.317  32.281  0.00  0.00     0.134 C 
ATOM     96  O2S IDS d   3      23.994 -41.042  33.662  0.00  0.00    -0.572 OA
ATOM     97  O5  IDS d   3      23.959 -45.099  33.822  0.00  0.00    -0.340 OA
ATOM     98  C6  IDS d   3      23.402 -47.347  33.176  0.00  0.00     0.206 C 
ATOM     99  C3  IDS d   3      24.806 -44.357  31.180  0.00  0.00     0.094 C 
ATOM    100  O2  IDS d   3      23.245 -42.820  32.212  0.00  0.00    -0.244 OA
ATOM    101  C4  IDS d   3      23.969 -45.610  31.451  0.00  0.00     0.103 C 
ATOM    102  O62 IDS d   3      23.683 -48.421  32.594  0.00  0.00    -0.646 OA
ATOM    103  O1S IDS d   3      23.672 -40.671  31.256  0.00  0.00    -0.572 OA
ATOM    104  H   IDS d   3      24.531 -43.200  34.388  0.00  0.00     0.133 H 
ATOM    105  H   IDS d   3      26.719 -43.915  30.942  0.00  0.00     0.210 HD
ATOM    106  H   IDS d   3      25.301 -46.385  32.913  0.00  0.00     0.104 H 
ATOM    107  H   IDS d   3      25.290 -42.523  32.137  0.00  0.00     0.097 H 
ATOM    108  H   IDS d   3      24.500 -43.933  30.246  0.00  0.00     0.091 H 
ATOM    109  H   IDS d   3      24.228 -46.368  30.742  0.00  0.00     0.092 H 
ENDROOT
TORSDOF 34
ENDMDL
MODEL 58
REMARK VINA RESULT:      -4.1      4.089     11.824
REMARK  0 active torsions:
REMARK  status: ('A' for Active; 'I' for Inactive)
REMARK       I    between atoms: C5_1  and  C6_10 
REMARK       I    between atoms: S2_2  and  O6_59 
REMARK       I    between atoms: O3_3  and  C3_61 
REMARK       I    between atoms: C5_5  and  C6_35 
REMARK       I    between atoms: C2_6  and  N_67 
REMARK       I    between atoms: C4_9  and  O4_55 
REMARK       I    between atoms: C1_11  and  O1_63 
REMARK       I    between atoms: C1_12  and  O4_30 
REMARK       I    between atoms: O1S_13  and  S1_24 
REMARK       I    between atoms: C3_14  and  O3_18 
REMARK       I    between atoms: C1_16  and  O4_29 
REMARK       I    between atoms: C2_19  and  O2_41 
REMARK       I    between atoms: C1_20  and  O4_38 
REMARK       I    between atoms: S2_21  and  O6_47 
REMARK       I    between atoms: O3_23  and  C3_58 
REMARK       I    between atoms: S1_24  and  N_33 
REMARK       I    between atoms: S1_24  and  O2S_37 
REMARK       I    between atoms: S1_24  and  O3S_34 
REMARK       I    between atoms: C4_25  and  O4_30 
REMARK       I    between atoms: C5_28  and  C6_56 
REMARK       I    between atoms: O4_29  and  C4_65 
REMARK       I    between atoms: S_31  and  O2_60 
REMARK       I    between atoms: C2_32  and  O2_60 
REMARK       I    between atoms: N_33  and  C2_46 
REMARK       I    between atoms: C6_35  and  O6_47 
REMARK       I    between atoms: C5_36  and  C6_40 
REMARK       I    between atoms: O4_38  and  C4_45 
REMARK       I    between atoms: C6_40  and  O6_59 
REMARK       I    between atoms: O2_41  and  S_54 
REMARK       I    between atoms: O1S_42  and  S1_53 
REMARK       I    between atoms: O3_43  and  C3_44 
REMARK       I    between atoms: O3S_50  and  S1_53 
REMARK       I    between atoms: O2S_52  and  S1_53 
REMARK       I    between atoms: S1_53  and  N_67 
ROOT
ATOM      1  C5  IDS d   1      23.461 -46.732  32.431  0.00  0.00     0.152 C 
ATOM      2  O2S IDS d   1      20.646 -48.939  28.388  0.00  0.00    -0.572 OA
ATOM      3  C4  IDS d   1      23.657 -47.495  31.117  0.00  0.00     0.097 C 
ATOM      4  C6  IDS d   1      24.241 -47.424  33.555  0.00  0.00     0.206 C 
ATOM      5  C2  IDS d   1      21.341 -46.799  30.471  0.00  0.00     0.134 C 
ATOM      6  C1  IDS d   1      21.257 -46.046  31.803  0.00  0.00     0.161 C 
ATOM      7  O61 IDS d   1      23.656 -47.618  34.645  0.00  0.00    -0.646 OA
ATOM      8  O3S IDS d   1      19.056 -47.296  29.252  0.00  0.00    -0.572 OA
ATOM      9  O2  IDS d   1      20.825 -48.124  30.643  0.00  0.00    -0.244 OA
ATOM     10  O3  IDS d   1      23.272 -45.595  29.641  0.00  0.00    -0.390 OA
ATOM     11  C3  IDS d   1      22.795 -46.894  30.005  0.00  0.00     0.094 C 
ATOM     12  O62 IDS d   1      25.430 -47.739  33.342  0.00  0.00    -0.646 OA
ATOM     13  S   IDS d   1      19.903 -48.481  29.607  0.00  0.00     0.252 S 
ATOM     14  O4  IDS d   1      23.336 -48.878  31.294  0.00  0.00    -0.390 OA
ATOM     15  O5  IDS d   1      22.071 -46.694  32.796  0.00  0.00    -0.340 OA
ATOM     16  O1S IDS d   1      19.019 -49.590  30.094  0.00  0.00    -0.572 OA
ATOM     17  H   IDS d   1      23.819 -45.734  32.292  0.00  0.00     0.104 H 
ATOM     18  H   IDS d   1      24.684 -47.409  30.832  0.00  0.00     0.091 H 
ATOM     19  H   IDS d   1      20.768 -46.270  29.739  0.00  0.00     0.097 H 
ATOM     20  H   IDS d   1      20.234 -46.055  32.115  0.00  0.00     0.133 H 
ATOM     21  H   IDS d   1      24.194 -45.659  29.346  0.00  0.00     0.210 HD
ATOM     22  H   IDS d   1      22.854 -47.531  29.146  0.00  0.00     0.091 H 
ATOM     23  H   IDS d   1      22.405 -48.963  31.552  0.00  0.00     0.210 HD
ATOM     24  S2  SGN d   2      17.640 -45.117  33.714  0.00  0.00     0.251 S 
ATOM     25  C2  SGN d   2      22.677 -42.137  34.200  0.00  0.00     0.081 C 
ATOM     26  O5S SGN d   2      17.710 -45.930  34.972  0.00  0.00    -0.572 OA
ATOM     27  O4S SGN d   2      17.621 -46.036  32.528  0.00  0.00    -0.572 OA
ATOM     28  C3  SGN d   2      22.864 -43.134  33.054  0.00  0.00     0.083 C 
ATOM     29  C1  SGN d   2      21.526 -41.173  33.904  0.00  0.00     0.150 C 
ATOM     30  O3  SGN d   2      23.854 -44.097  33.426  0.00  0.00    -0.391 OA
ATOM     31  C5  SGN d   2      20.418 -42.826  32.544  0.00  0.00     0.091 C 
ATOM     32  O4  SGN d   2      21.671 -44.714  31.662  0.00  0.00    -0.348 OA
ATOM     33  C6  SGN d   2      19.085 -43.570  32.415  0.00  0.00     0.067 C 
ATOM     34  O1S SGN d   2      24.117 -42.245  36.848  0.00  0.00    -0.296 OA
ATOM     35  C4  SGN d   2      21.535 -43.844  32.790  0.00  0.00     0.095 C 
ATOM     36  O6S SGN d   2      16.386 -44.293  33.728  0.00  0.00    -0.572 OA
ATOM     37  O3S SGN d   2      22.914 -40.144  36.421  0.00  0.00    -0.296 OA
ATOM     38  O2S SGN d   2      25.352 -40.237  36.208  0.00  0.00    -0.296 OA
ATOM     39  S1  SGN d   2      24.075 -41.001  36.011  0.00  0.00     0.156 S 
ATOM     40  O6  SGN d   2      18.781 -44.260  33.631  0.00  0.00    -0.254 OA
ATOM     41  N   SGN d   2      23.929 -41.402  34.438  0.00  0.00    -0.210 NA
ATOM     42  O5  SGN d   2      20.324 -41.926  33.661  0.00  0.00    -0.349 OA
ATOM     43  H   SGN d   2      22.427 -42.682  35.086  0.00  0.00     0.076 H 
ATOM     44  H   SGN d   2      23.179 -42.620  32.170  0.00  0.00     0.089 H 
ATOM     45  H   SGN d   2      21.397 -40.533  34.751  0.00  0.00     0.131 H 
ATOM     46  H   SGN d   2      23.567 -44.562  34.227  0.00  0.00     0.210 HD
ATOM     47  H   SGN d   2      20.633 -42.278  31.651  0.00  0.00     0.090 H 
ATOM     48  H   SGN d   2      19.151 -44.276  31.615  0.00  0.00     0.080 H 
ATOM     49  H   SGN d   2      18.309 -42.861  32.214  0.00  0.00     0.080 H 
ATOM     50  H   SGN d   2      24.204 -42.002  37.783  0.00  0.00     0.231 HD
ATOM     51  H   SGN d   2      21.275 -44.422  33.653  0.00  0.00     0.091 H 
ATOM     52  H   SGN d   2      23.002 -39.906  37.358  0.00  0.00     0.231 HD
ATOM     53  H   SGN d   2      25.443 -39.996  37.143  0.00  0.00     0.231 HD
ATOM     54  H   SGN d   2      23.929 -40.551  33.874  0.00  0.00     0.140 HD
ATOM     55  O3  SGN d   4      19.733 -36.670  29.056  0.00  0.00    -0.391 OA
ATOM     56  C5  SGN d   4      22.884 -34.637  29.330  0.00  0.00     0.091 C 
ATOM     57  C1  SGN d   4      21.526 -33.677  27.622  0.00  0.00     0.147 C 
ATOM     58  O1S SGN d   4      19.250 -35.971  25.295  0.00  0.00    -0.296 OA
ATOM     59  S2  SGN d   4      26.613 -34.156  29.570  0.00  0.00     0.251 S 
ATOM     60  S1  SGN d   4      18.993 -34.551  25.709  0.00  0.00     0.156 S 
ATOM     61  C4  SGN d   4      21.971 -35.858  29.463  0.00  0.00     0.095 C 
ATOM     62  O6S SGN d   4      27.246 -33.013  30.308  0.00  0.00    -0.572 OA
ATOM     63  O4  SGN d   4      22.006 -36.358  30.803  0.00  0.00    -0.348 OA
ATOM     64  N   SGN d   4      19.197 -34.416  27.320  0.00  0.00    -0.210 NA
ATOM     65  O3S SGN d   4      19.951 -33.639  25.002  0.00  0.00    -0.296 OA
ATOM     66  C6  SGN d   4      24.318 -35.061  29.647  0.00  0.00     0.067 C 
ATOM     67  O2S SGN d   4      17.582 -34.178  25.358  0.00  0.00    -0.296 OA
ATOM     68  C2  SGN d   4      20.551 -34.854  27.689  0.00  0.00     0.081 C 
ATOM     69  O6  SGN d   4      25.200 -33.947  29.511  0.00  0.00    -0.254 OA
ATOM     70  O4S SGN d   4      26.897 -35.442  30.290  0.00  0.00    -0.572 OA
ATOM     71  C3  SGN d   4      20.536 -35.486  29.082  0.00  0.00     0.083 C 
ATOM     72  O1  SGN d   4      21.117 -32.634  28.510  0.00  0.00    -0.369 OA
ATOM     73  O5  SGN d   4      22.838 -34.142  27.981  0.00  0.00    -0.350 OA
ATOM     74  O5S SGN d   4      27.175 -34.237  28.181  0.00  0.00    -0.572 OA
ATOM     75  H   SGN d   4      19.723 -37.074  29.938  0.00  0.00     0.210 HD
ATOM     76  H   SGN d   4      22.562 -33.872  30.005  0.00  0.00     0.090 H 
ATOM     77  H   SGN d   4      21.539 -33.284  26.628  0.00  0.00     0.131 H 
ATOM     78  H   SGN d   4      18.630 -36.559  25.753  0.00  0.00     0.231 HD
ATOM     79  H   SGN d   4      22.320 -36.620  28.799  0.00  0.00     0.091 H 
ATOM     80  H   SGN d   4      18.510 -34.998  27.799  0.00  0.00     0.140 HD
ATOM     81  H   SGN d   4      20.861 -33.885  25.232  0.00  0.00     0.231 HD
ATOM     82  H   SGN d   4      24.616 -35.834  28.970  0.00  0.00     0.080 H 
ATOM     83  H   SGN d   4      24.363 -35.423  30.654  0.00  0.00     0.080 H 
ATOM     84  H   SGN d   4      16.967 -34.770  25.818  0.00  0.00     0.231 HD
ATOM     85  H   SGN d   4      20.882 -35.594  26.991  0.00  0.00     0.076 H 
ATOM     86  H   SGN d   4      20.132 -34.798  29.796  0.00  0.00     0.089 H 
ATOM     87  H   SGN d   4      21.099 -32.971  29.419  0.00  0.00     0.212 HD
ATOM     88  C1  IDS d   3      22.761 -37.515  30.997  0.00  0.00     0.161 C 
ATOM     89  O61 IDS d   3      20.645 -40.690  29.729  0.00  0.00    -0.646 OA
ATOM     90  O3S IDS d   3      26.300 -39.562  32.365  0.00  0.00    -0.572 OA
ATOM     91  O3  IDS d   3      21.066 -36.842  33.386  0.00  0.00    -0.390 OA
ATOM     92  C5  IDS d   3      20.792 -38.837  31.218  0.00  0.00     0.152 C 
ATOM     93  O4  IDS d   3      21.804 -40.390  32.797  0.00  0.00    -0.348 OA
ATOM     94  S   IDS d   3      25.406 -38.390  32.644  0.00  0.00     0.252 S 
ATOM     95  C2  IDS d   3      23.133 -37.715  32.469  0.00  0.00     0.134 C 
ATOM     96  O2S IDS d   3      25.697 -37.325  31.629  0.00  0.00    -0.572 OA
ATOM     97  O5  IDS d   3      22.026 -38.648  30.508  0.00  0.00    -0.340 OA
ATOM     98  C6  IDS d   3      20.034 -39.993  30.560  0.00  0.00     0.206 C 
ATOM     99  C3  IDS d   3      21.886 -38.012  33.305  0.00  0.00     0.094 C 
ATOM    100  O2  IDS d   3      24.043 -38.817  32.557  0.00  0.00    -0.244 OA
ATOM    101  C4  IDS d   3      21.084 -39.159  32.684  0.00  0.00     0.103 C 
ATOM    102  O62 IDS d   3      18.836 -40.166  30.890  0.00  0.00    -0.646 OA
ATOM    103  O1S IDS d   3      25.672 -37.866  34.024  0.00  0.00    -0.572 OA
ATOM    104  H   IDS d   3      23.677 -37.414  30.452  0.00  0.00     0.133 H 
ATOM    105  H   IDS d   3      21.575 -36.117  33.780  0.00  0.00     0.210 HD
ATOM    106  H   IDS d   3      20.199 -37.947  31.181  0.00  0.00     0.104 H 
ATOM    107  H   IDS d   3      23.586 -36.823  32.849  0.00  0.00     0.097 H 
ATOM    108  H   IDS d   3      22.196 -38.300  34.288  0.00  0.00     0.091 H 
ATOM    109  H   IDS d   3      20.159 -39.269  33.210  0.00  0.00     0.092 H 
ENDROOT
TORSDOF 34
ENDMDL
MODEL 59
REMARK VINA RESULT:      -4.0      4.762     11.437
REMARK  0 active torsions:
REMARK  status: ('A' for Active; 'I' for Inactive)
REMARK       I    between atoms: C5_1  and  C6_10 
REMARK       I    between atoms: S2_2  and  O6_59 
REMARK       I    between atoms: O3_3  and  C3_61 
REMARK       I    between atoms: C5_5  and  C6_35 
REMARK       I    between atoms: C2_6  and  N_67 
REMARK       I    between atoms: C4_9  and  O4_55 
REMARK       I    between atoms: C1_11  and  O1_63 
REMARK       I    between atoms: C1_12  and  O4_30 
REMARK       I    between atoms: O1S_13  and  S1_24 
REMARK       I    between atoms: C3_14  and  O3_18 
REMARK       I    between atoms: C1_16  and  O4_29 
REMARK       I    between atoms: C2_19  and  O2_41 
REMARK       I    between atoms: C1_20  and  O4_38 
REMARK       I    between atoms: S2_21  and  O6_47 
REMARK       I    between atoms: O3_23  and  C3_58 
REMARK       I    between atoms: S1_24  and  N_33 
REMARK       I    between atoms: S1_24  and  O2S_37 
REMARK       I    between atoms: S1_24  and  O3S_34 
REMARK       I    between atoms: C4_25  and  O4_30 
REMARK       I    between atoms: C5_28  and  C6_56 
REMARK       I    between atoms: O4_29  and  C4_65 
REMARK       I    between atoms: S_31  and  O2_60 
REMARK       I    between atoms: C2_32  and  O2_60 
REMARK       I    between atoms: N_33  and  C2_46 
REMARK       I    between atoms: C6_35  and  O6_47 
REMARK       I    between atoms: C5_36  and  C6_40 
REMARK       I    between atoms: O4_38  and  C4_45 
REMARK       I    between atoms: C6_40  and  O6_59 
REMARK       I    between atoms: O2_41  and  S_54 
REMARK       I    between atoms: O1S_42  and  S1_53 
REMARK       I    between atoms: O3_43  and  C3_44 
REMARK       I    between atoms: O3S_50  and  S1_53 
REMARK       I    between atoms: O2S_52  and  S1_53 
REMARK       I    between atoms: S1_53  and  N_67 
ROOT
ATOM      1  C5  IDS d   1      25.029 -41.607  36.120  0.00  0.00     0.152 C 
ATOM      2  O2S IDS d   1      29.200 -38.290  36.985  0.00  0.00    -0.572 OA
ATOM      3  C4  IDS d   1      25.552 -40.586  37.135  0.00  0.00     0.097 C 
ATOM      4  C6  IDS d   1      24.672 -42.915  36.834  0.00  0.00     0.206 C 
ATOM      5  C2  IDS d   1      27.022 -39.672  35.327  0.00  0.00     0.134 C 
ATOM      6  C1  IDS d   1      26.416 -40.717  34.384  0.00  0.00     0.161 C 
ATOM      7  O61 IDS d   1      25.071 -43.989  36.331  0.00  0.00    -0.646 OA
ATOM      8  O3S IDS d   1      29.288 -38.566  34.558  0.00  0.00    -0.572 OA
ATOM      9  O2  IDS d   1      28.206 -40.208  35.929  0.00  0.00    -0.244 OA
ATOM     10  O3  IDS d   1      24.920 -38.599  35.874  0.00  0.00    -0.390 OA
ATOM     11  C3  IDS d   1      26.028 -39.313  36.432  0.00  0.00     0.094 C 
ATOM     12  O62 IDS d   1      23.977 -42.852  37.869  0.00  0.00    -0.646 OA
ATOM     13  S   IDS d   1      29.302 -39.288  35.871  0.00  0.00     0.252 S 
ATOM     14  O4  IDS d   1      26.620 -41.152  37.902  0.00  0.00    -0.390 OA
ATOM     15  O5  IDS d   1      26.025 -41.889  35.122  0.00  0.00    -0.340 OA
ATOM     16  O1S IDS d   1      30.590 -40.047  36.002  0.00  0.00    -0.572 OA
ATOM     17  H   IDS d   1      24.163 -41.193  35.649  0.00  0.00     0.104 H 
ATOM     18  H   IDS d   1      24.749 -40.329  37.793  0.00  0.00     0.091 H 
ATOM     19  H   IDS d   1      27.257 -38.794  34.763  0.00  0.00     0.097 H 
ATOM     20  H   IDS d   1      27.164 -40.977  33.666  0.00  0.00     0.133 H 
ATOM     21  H   IDS d   1      24.292 -38.374  36.578  0.00  0.00     0.210 HD
ATOM     22  H   IDS d   1      26.508 -38.685  37.154  0.00  0.00     0.091 H 
ATOM     23  H   IDS d   1      27.352 -41.387  37.311  0.00  0.00     0.210 HD
ATOM     24  S2  SGN d   2      28.346 -42.123  30.935  0.00  0.00     0.251 S 
ATOM     25  C2  SGN d   2      22.543 -41.903  31.809  0.00  0.00     0.081 C 
ATOM     26  O5S SGN d   2      28.591 -43.566  31.257  0.00  0.00    -0.572 OA
ATOM     27  O4S SGN d   2      29.111 -41.262  31.898  0.00  0.00    -0.572 OA
ATOM     28  C3  SGN d   2      23.190 -41.112  32.947  0.00  0.00     0.083 C 
ATOM     29  C1  SGN d   2      22.891 -41.290  30.450  0.00  0.00     0.150 C 
ATOM     30  O3  SGN d   2      22.954 -41.791  34.184  0.00  0.00    -0.391 OA
ATOM     31  C5  SGN d   2      24.976 -40.438  31.307  0.00  0.00     0.091 C 
ATOM     32  O4  SGN d   2      25.301 -40.205  33.705  0.00  0.00    -0.348 OA
ATOM     33  C6  SGN d   2      26.484 -40.482  31.043  0.00  0.00     0.067 C 
ATOM     34  O1S SGN d   2      21.075 -44.519  32.124  0.00  0.00    -0.296 OA
ATOM     35  C4  SGN d   2      24.696 -41.018  32.696  0.00  0.00     0.095 C 
ATOM     36  O6S SGN d   2      28.810 -41.842  29.536  0.00  0.00    -0.572 OA
ATOM     37  O3S SGN d   2      20.788 -43.442  29.933  0.00  0.00    -0.296 OA
ATOM     38  O2S SGN d   2      18.990 -43.363  31.595  0.00  0.00    -0.296 OA
ATOM     39  S1  SGN d   2      20.478 -43.351  31.398  0.00  0.00     0.156 S 
ATOM     40  O6  SGN d   2      26.950 -41.835  31.049  0.00  0.00    -0.254 OA
ATOM     41  N   SGN d   2      21.086 -41.962  31.999  0.00  0.00    -0.210 NA
ATOM     42  O5  SGN d   2      24.321 -41.233  30.305  0.00  0.00    -0.349 OA
ATOM     43  H   SGN d   2      22.930 -42.900  31.825  0.00  0.00     0.076 H 
ATOM     44  H   SGN d   2      22.771 -40.129  32.994  0.00  0.00     0.089 H 
ATOM     45  H   SGN d   2      22.464 -41.904  29.685  0.00  0.00     0.131 H 
ATOM     46  H   SGN d   2      23.334 -42.682  34.141  0.00  0.00     0.210 HD
ATOM     47  H   SGN d   2      24.615 -39.432  31.267  0.00  0.00     0.090 H 
ATOM     48  H   SGN d   2      26.992 -39.930  31.806  0.00  0.00     0.080 H 
ATOM     49  H   SGN d   2      26.683 -40.050  30.084  0.00  0.00     0.080 H 
ATOM     50  H   SGN d   2      20.712 -45.343  31.764  0.00  0.00     0.231 HD
ATOM     51  H   SGN d   2      25.115 -42.002  32.736  0.00  0.00     0.091 H 
ATOM     52  H   SGN d   2      20.426 -44.269  29.577  0.00  0.00     0.231 HD
ATOM     53  H   SGN d   2      18.624 -44.188  31.239  0.00  0.00     0.231 HD
ATOM     54  H   SGN d   2      20.653 -41.172  31.519  0.00  0.00     0.140 HD
ATOM     55  O3  SGN d   4      22.287 -35.259  27.247  0.00  0.00    -0.391 OA
ATOM     56  C5  SGN d   4      18.558 -35.043  27.677  0.00  0.00     0.091 C 
ATOM     57  C1  SGN d   4      19.292 -33.075  26.549  0.00  0.00     0.147 C 
ATOM     58  O1S SGN d   4      22.827 -31.443  27.383  0.00  0.00    -0.296 OA
ATOM     59  S2  SGN d   4      15.337 -35.277  29.617  0.00  0.00     0.251 S 
ATOM     60  S1  SGN d   4      22.091 -31.408  26.075  0.00  0.00     0.156 S 
ATOM     61  C4  SGN d   4      19.992 -35.495  27.961  0.00  0.00     0.095 C 
ATOM     62  O6S SGN d   4      14.030 -35.668  28.992  0.00  0.00    -0.572 OA
ATOM     63  O4  SGN d   4      20.059 -36.924  28.010  0.00  0.00    -0.348 OA
ATOM     64  N   SGN d   4      21.596 -32.914  25.696  0.00  0.00    -0.210 NA
ATOM     65  O3S SGN d   4      20.902 -30.501  26.192  0.00  0.00    -0.296 OA
ATOM     66  C6  SGN d   4      17.657 -35.528  28.812  0.00  0.00     0.067 C 
ATOM     67  O2S SGN d   4      23.010 -30.907  25.000  0.00  0.00    -0.296 OA
ATOM     68  C2  SGN d   4      20.757 -33.449  26.778  0.00  0.00     0.081 C 
ATOM     69  O6  SGN d   4      16.313 -35.102  28.587  0.00  0.00    -0.254 OA
ATOM     70  O4S SGN d   4      15.791 -36.356  30.556  0.00  0.00    -0.572 OA
ATOM     71  C3  SGN d   4      20.936 -34.965  26.880  0.00  0.00     0.083 C 
ATOM     72  O1  SGN d   4      18.829 -33.597  25.301  0.00  0.00    -0.369 OA
ATOM     73  O5  SGN d   4      18.504 -33.607  27.627  0.00  0.00    -0.350 OA
ATOM     74  O5S SGN d   4      15.171 -33.998  30.383  0.00  0.00    -0.572 OA
ATOM     75  H   SGN d   4      22.403 -36.220  27.313  0.00  0.00     0.210 HD
ATOM     76  H   SGN d   4      18.233 -35.448  26.741  0.00  0.00     0.090 H 
ATOM     77  H   SGN d   4      19.198 -32.010  26.520  0.00  0.00     0.131 H 
ATOM     78  H   SGN d   4      23.595 -32.030  27.307  0.00  0.00     0.231 HD
ATOM     79  H   SGN d   4      20.294 -35.101  28.909  0.00  0.00     0.091 H 
ATOM     80  H   SGN d   4      22.409 -33.516  25.569  0.00  0.00     0.140 HD
ATOM     81  H   SGN d   4      20.311 -30.829  26.888  0.00  0.00     0.231 HD
ATOM     82  H   SGN d   4      18.007 -35.123  29.739  0.00  0.00     0.080 H 
ATOM     83  H   SGN d   4      17.685 -36.597  28.851  0.00  0.00     0.080 H 
ATOM     84  H   SGN d   4      23.777 -31.497  24.929  0.00  0.00     0.231 HD
ATOM     85  H   SGN d   4      21.065 -33.015  27.707  0.00  0.00     0.076 H 
ATOM     86  H   SGN d   4      20.715 -35.426  25.939  0.00  0.00     0.089 H 
ATOM     87  H   SGN d   4      18.906 -34.564  25.306  0.00  0.00     0.212 HD
ATOM     88  C1  IDS d   3      20.152 -37.481  29.286  0.00  0.00     0.161 C 
ATOM     89  O61 IDS d   3      23.937 -37.128  30.598  0.00  0.00    -0.646 OA
ATOM     90  O3S IDS d   3      18.450 -39.533  32.673  0.00  0.00    -0.572 OA
ATOM     91  O3  IDS d   3      20.676 -39.495  27.117  0.00  0.00    -0.390 OA
ATOM     92  C5  IDS d   3      22.453 -38.006  28.956  0.00  0.00     0.152 C 
ATOM     93  O4  IDS d   3      22.371 -40.012  30.332  0.00  0.00    -0.348 OA
ATOM     94  S   IDS d   3      18.379 -39.416  31.179  0.00  0.00     0.252 S 
ATOM     95  C2  IDS d   3      19.754 -38.960  29.294  0.00  0.00     0.134 C 
ATOM     96  O2S IDS d   3      17.662 -38.144  30.840  0.00  0.00    -0.572 OA
ATOM     97  O5  IDS d   3      21.494 -37.321  29.776  0.00  0.00    -0.340 OA
ATOM     98  C6  IDS d   3      23.852 -37.690  29.491  0.00  0.00     0.206 C 
ATOM     99  C3  IDS d   3      20.770 -39.796  28.512  0.00  0.00     0.094 C 
ATOM    100  O2  IDS d   3      19.711 -39.406  30.654  0.00  0.00    -0.244 OA
ATOM    101  C4  IDS d   3      22.192 -39.512  29.004  0.00  0.00     0.103 C 
ATOM    102  O62 IDS d   3      24.833 -38.008  28.778  0.00  0.00    -0.646 OA
ATOM    103  O1S IDS d   3      17.634 -40.589  30.613  0.00  0.00    -0.572 OA
ATOM    104  H   IDS d   3      19.467 -36.967  29.928  0.00  0.00     0.133 H 
ATOM    105  H   IDS d   3      19.775 -39.676  26.807  0.00  0.00     0.210 HD
ATOM    106  H   IDS d   3      22.373 -37.683  27.938  0.00  0.00     0.104 H 
ATOM    107  H   IDS d   3      18.797 -39.076  28.829  0.00  0.00     0.097 H 
ATOM    108  H   IDS d   3      20.551 -40.832  28.670  0.00  0.00     0.091 H 
ATOM    109  H   IDS d   3      22.893 -40.009  28.367  0.00  0.00     0.092 H 
ENDROOT
TORSDOF 34
ENDMDL
MODEL 60
REMARK VINA RESULT:      -3.7      3.933      7.090
REMARK  0 active torsions:
REMARK  status: ('A' for Active; 'I' for Inactive)
REMARK       I    between atoms: C5_1  and  C6_10 
REMARK       I    between atoms: S2_2  and  O6_59 
REMARK       I    between atoms: O3_3  and  C3_61 
REMARK       I    between atoms: C5_5  and  C6_35 
REMARK       I    between atoms: C2_6  and  N_67 
REMARK       I    between atoms: C4_9  and  O4_55 
REMARK       I    between atoms: C1_11  and  O1_63 
REMARK       I    between atoms: C1_12  and  O4_30 
REMARK       I    between atoms: O1S_13  and  S1_24 
REMARK       I    between atoms: C3_14  and  O3_18 
REMARK       I    between atoms: C1_16  and  O4_29 
REMARK       I    between atoms: C2_19  and  O2_41 
REMARK       I    between atoms: C1_20  and  O4_38 
REMARK       I    between atoms: S2_21  and  O6_47 
REMARK       I    between atoms: O3_23  and  C3_58 
REMARK       I    between atoms: S1_24  and  N_33 
REMARK       I    between atoms: S1_24  and  O2S_37 
REMARK       I    between atoms: S1_24  and  O3S_34 
REMARK       I    between atoms: C4_25  and  O4_30 
REMARK       I    between atoms: C5_28  and  C6_56 
REMARK       I    between atoms: O4_29  and  C4_65 
REMARK       I    between atoms: S_31  and  O2_60 
REMARK       I    between atoms: C2_32  and  O2_60 
REMARK       I    between atoms: N_33  and  C2_46 
REMARK       I    between atoms: C6_35  and  O6_47 
REMARK       I    between atoms: C5_36  and  C6_40 
REMARK       I    between atoms: O4_38  and  C4_45 
REMARK       I    between atoms: C6_40  and  O6_59 
REMARK       I    between atoms: O2_41  and  S_54 
REMARK       I    between atoms: O1S_42  and  S1_53 
REMARK       I    between atoms: O3_43  and  C3_44 
REMARK       I    between atoms: O3S_50  and  S1_53 
REMARK       I    between atoms: O2S_52  and  S1_53 
REMARK       I    between atoms: S1_53  and  N_67 
ROOT
ATOM      1  C5  IDS d   1      19.114 -37.428  31.043  0.00  0.00     0.152 C 
ATOM      2  O2S IDS d   1      14.666 -39.095  33.608  0.00  0.00    -0.572 OA
ATOM      3  C4  IDS d   1      18.115 -36.979  32.113  0.00  0.00     0.097 C 
ATOM      4  C6  IDS d   1      19.263 -36.335  29.980  0.00  0.00     0.206 C 
ATOM      5  C2  IDS d   1      17.463 -39.381  32.387  0.00  0.00     0.134 C 
ATOM      6  C1  IDS d   1      18.510 -39.727  31.322  0.00  0.00     0.161 C 
ATOM      7  O61 IDS d   1      19.221 -36.675  28.775  0.00  0.00    -0.646 OA
ATOM      8  O3S IDS d   1      15.638 -41.217  32.882  0.00  0.00    -0.572 OA
ATOM      9  O2  IDS d   1      16.195 -39.177  31.754  0.00  0.00    -0.244 OA
ATOM     10  O3  IDS d   1      19.023 -38.339  33.921  0.00  0.00    -0.390 OA
ATOM     11  C3  IDS d   1      17.858 -38.100  33.124  0.00  0.00     0.094 C 
ATOM     12  O62 IDS d   1      19.446 -35.161  30.361  0.00  0.00    -0.646 OA
ATOM     13  S   IDS d   1      15.142 -39.880  32.422  0.00  0.00     0.252 S 
ATOM     14  O4  IDS d   1      16.884 -36.576  31.505  0.00  0.00    -0.390 OA
ATOM     15  O5  IDS d   1      18.666 -38.633  30.401  0.00  0.00    -0.340 OA
ATOM     16  O1S IDS d   1      14.000 -40.079  31.470  0.00  0.00    -0.572 OA
ATOM     17  H   IDS d   1      20.054 -37.610  31.522  0.00  0.00     0.104 H 
ATOM     18  H   IDS d   1      18.535 -36.145  32.634  0.00  0.00     0.091 H 
ATOM     19  H   IDS d   1      17.404 -40.188  33.086  0.00  0.00     0.097 H 
ATOM     20  H   IDS d   1      18.164 -40.593  30.798  0.00  0.00     0.133 H 
ATOM     21  H   IDS d   1      19.269 -37.525  34.386  0.00  0.00     0.210 HD
ATOM     22  H   IDS d   1      17.059 -37.800  33.770  0.00  0.00     0.091 H 
ATOM     23  H   IDS d   1      16.496 -37.329  31.031  0.00  0.00     0.210 HD
ATOM     24  S2  SGN d   2      18.364 -43.198  28.970  0.00  0.00     0.251 S 
ATOM     25  C2  SGN d   2      23.204 -40.216  30.445  0.00  0.00     0.081 C 
ATOM     26  O5S SGN d   2      18.148 -42.654  27.590  0.00  0.00    -0.572 OA
ATOM     27  O4S SGN d   2      17.184 -42.851  29.830  0.00  0.00    -0.572 OA
ATOM     28  C3  SGN d   2      22.063 -39.650  31.293  0.00  0.00     0.083 C 
ATOM     29  C1  SGN d   2      23.404 -41.708  30.722  0.00  0.00     0.150 C 
ATOM     30  O3  SGN d   2      21.820 -38.295  30.907  0.00  0.00    -0.391 OA
ATOM     31  C5  SGN d   2      21.079 -41.968  31.304  0.00  0.00     0.091 C 
ATOM     32  O4  SGN d   2      19.751 -40.021  31.905  0.00  0.00    -0.348 OA
ATOM     33  C6  SGN d   2      19.836 -42.779  30.927  0.00  0.00     0.067 C 
ATOM     34  O1S SGN d   2      24.649 -38.725  28.258  0.00  0.00    -0.296 OA
ATOM     35  C4  SGN d   2      20.803 -40.483  31.051  0.00  0.00     0.095 C 
ATOM     36  O6S SGN d   2      18.509 -44.689  28.897  0.00  0.00    -0.572 OA
ATOM     37  O3S SGN d   2      25.728 -40.822  28.952  0.00  0.00    -0.296 OA
ATOM     38  O2S SGN d   2      26.639 -38.666  29.673  0.00  0.00    -0.296 OA
ATOM     39  S1  SGN d   2      25.380 -39.423  29.366  0.00  0.00     0.156 S 
ATOM     40  O6  SGN d   2      19.546 -42.624  29.534  0.00  0.00    -0.254 OA
ATOM     41  N   SGN d   2      24.443 -39.465  30.700  0.00  0.00    -0.210 NA
ATOM     42  O5  SGN d   2      22.171 -42.408  30.479  0.00  0.00    -0.349 OA
ATOM     43  H   SGN d   2      22.946 -40.109  29.412  0.00  0.00     0.076 H 
ATOM     44  H   SGN d   2      22.325 -39.686  32.329  0.00  0.00     0.089 H 
ATOM     45  H   SGN d   2      24.171 -42.072  30.072  0.00  0.00     0.131 H 
ATOM     46  H   SGN d   2      21.583 -38.263  29.967  0.00  0.00     0.210 HD
ATOM     47  H   SGN d   2      21.323 -42.108  32.336  0.00  0.00     0.090 H 
ATOM     48  H   SGN d   2      19.002 -42.434  31.502  0.00  0.00     0.080 H 
ATOM     49  H   SGN d   2      20.019 -43.813  31.131  0.00  0.00     0.080 H 
ATOM     50  H   SGN d   2      25.210 -38.701  27.466  0.00  0.00     0.231 HD
ATOM     51  H   SGN d   2      20.504 -40.369  30.029  0.00  0.00     0.091 H 
ATOM     52  H   SGN d   2      26.285 -40.795  28.158  0.00  0.00     0.231 HD
ATOM     53  H   SGN d   2      27.200 -38.637  28.882  0.00  0.00     0.231 HD
ATOM     54  H   SGN d   2      24.958 -39.917  31.456  0.00  0.00     0.140 HD
ATOM     55  O3  SGN d   4      24.710 -45.792  36.072  0.00  0.00    -0.391 OA
ATOM     56  C5  SGN d   4      27.868 -44.011  37.067  0.00  0.00     0.091 C 
ATOM     57  C1  SGN d   4      27.490 -45.779  38.621  0.00  0.00     0.147 C 
ATOM     58  O1S SGN d   4      23.792 -46.814  39.675  0.00  0.00    -0.296 OA
ATOM     59  S2  SGN d   4      29.974 -40.977  37.807  0.00  0.00     0.251 S 
ATOM     60  S1  SGN d   4      25.004 -47.698  39.610  0.00  0.00     0.156 S 
ATOM     61  C4  SGN d   4      26.500 -44.207  36.410  0.00  0.00     0.095 C 
ATOM     62  O6S SGN d   4      31.455 -40.927  37.565  0.00  0.00    -0.572 OA
ATOM     63  O4  SGN d   4      26.558 -43.840  35.028  0.00  0.00    -0.348 OA
ATOM     64  N   SGN d   4      25.758 -47.473  38.183  0.00  0.00    -0.210 NA
ATOM     65  O3S SGN d   4      25.938 -47.353  40.733  0.00  0.00    -0.296 OA
ATOM     66  C6  SGN d   4      28.248 -42.533  36.977  0.00  0.00     0.067 C 
ATOM     67  O2S SGN d   4      24.580 -49.133  39.723  0.00  0.00    -0.296 OA
ATOM     68  C2  SGN d   4      26.109 -46.055  38.023  0.00  0.00     0.081 C 
ATOM     69  O6  SGN d   4      29.513 -42.314  37.603  0.00  0.00    -0.254 OA
ATOM     70  O4S SGN d   4      29.274 -40.056  36.852  0.00  0.00    -0.572 OA
ATOM     71  C3  SGN d   4      26.054 -45.664  36.545  0.00  0.00     0.083 C 
ATOM     72  O1  SGN d   4      28.485 -46.581  37.978  0.00  0.00    -0.369 OA
ATOM     73  O5  SGN d   4      27.797 -44.386  38.454  0.00  0.00    -0.350 OA
ATOM     74  O5S SGN d   4      29.676 -40.545  39.213  0.00  0.00    -0.572 OA
ATOM     75  H   SGN d   4      24.672 -45.544  35.134  0.00  0.00     0.210 HD
ATOM     76  H   SGN d   4      28.596 -44.616  36.568  0.00  0.00     0.090 H 
ATOM     77  H   SGN d   4      27.483 -46.029  39.660  0.00  0.00     0.131 H 
ATOM     78  H   SGN d   4      23.189 -47.038  38.949  0.00  0.00     0.231 HD
ATOM     79  H   SGN d   4      25.790 -43.579  36.906  0.00  0.00     0.091 H 
ATOM     80  H   SGN d   4      25.138 -47.756  37.424  0.00  0.00     0.140 HD
ATOM     81  H   SGN d   4      26.208 -46.425  40.655  0.00  0.00     0.231 HD
ATOM     82  H   SGN d   4      27.502 -41.946  37.471  0.00  0.00     0.080 H 
ATOM     83  H   SGN d   4      28.312 -42.249  35.948  0.00  0.00     0.080 H 
ATOM     84  H   SGN d   4      23.977 -49.351  38.995  0.00  0.00     0.231 HD
ATOM     85  H   SGN d   4      25.398 -45.456  38.552  0.00  0.00     0.076 H 
ATOM     86  H   SGN d   4      26.695 -46.300  35.971  0.00  0.00     0.089 H 
ATOM     87  H   SGN d   4      28.508 -46.369  37.031  0.00  0.00     0.212 HD
ATOM     88  C1  IDS d   3      25.991 -42.607  34.705  0.00  0.00     0.161 C 
ATOM     89  O61 IDS d   3      21.991 -43.002  34.566  0.00  0.00    -0.646 OA
ATOM     90  O3S IDS d   3      26.296 -38.434  33.667  0.00  0.00    -0.572 OA
ATOM     91  O3  IDS d   3      26.631 -44.245  32.267  0.00  0.00    -0.390 OA
ATOM     92  C5  IDS d   3      24.108 -43.668  33.702  0.00  0.00     0.152 C 
ATOM     93  O4  IDS d   3      23.797 -41.923  32.033  0.00  0.00    -0.348 OA
ATOM     94  S   IDS d   3      26.979 -39.762  33.521  0.00  0.00     0.252 S 
ATOM     95  C2  IDS d   3      26.491 -42.083  33.356  0.00  0.00     0.134 C 
ATOM     96  O2S IDS d   3      27.644 -40.096  34.823  0.00  0.00    -0.572 OA
ATOM     97  O5  IDS d   3      24.559 -42.733  34.694  0.00  0.00    -0.340 OA
ATOM     98  C6  IDS d   3      22.590 -43.815  33.838  0.00  0.00     0.206 C 
ATOM     99  C3  IDS d   3      25.987 -42.968  32.214  0.00  0.00     0.094 C 
ATOM    100  O2  IDS d   3      26.000 -40.749  33.181  0.00  0.00    -0.244 OA
ATOM    101  C4  IDS d   3      24.470 -43.155  32.307  0.00  0.00     0.103 C 
ATOM    102  O62 IDS d   3      22.038 -44.751  33.214  0.00  0.00    -0.646 OA
ATOM    103  O1S IDS d   3      28.004 -39.688  32.428  0.00  0.00    -0.572 OA
ATOM    104  H   IDS d   3      26.287 -41.896  35.448  0.00  0.00     0.133 H 
ATOM    105  H   IDS d   3      27.592 -44.125  32.208  0.00  0.00     0.210 HD
ATOM    106  H   IDS d   3      24.578 -44.619  33.842  0.00  0.00     0.104 H 
ATOM    107  H   IDS d   3      27.560 -42.095  33.341  0.00  0.00     0.097 H 
ATOM    108  H   IDS d   3      26.219 -42.490  31.285  0.00  0.00     0.091 H 
ATOM    109  H   IDS d   3      24.156 -43.872  31.578  0.00  0.00     0.092 H 
ENDROOT
TORSDOF 34
ENDMDL
MODEL 61
REMARK VINA RESULT:      -3.6      3.274     11.549
REMARK  0 active torsions:
REMARK  status: ('A' for Active; 'I' for Inactive)
REMARK       I    between atoms: C5_1  and  C6_10 
REMARK       I    between atoms: S2_2  and  O6_59 
REMARK       I    between atoms: O3_3  and  C3_61 
REMARK       I    between atoms: C5_5  and  C6_35 
REMARK       I    between atoms: C2_6  and  N_67 
REMARK       I    between atoms: C4_9  and  O4_55 
REMARK       I    between atoms: C1_11  and  O1_63 
REMARK       I    between atoms: C1_12  and  O4_30 
REMARK       I    between atoms: O1S_13  and  S1_24 
REMARK       I    between atoms: C3_14  and  O3_18 
REMARK       I    between atoms: C1_16  and  O4_29 
REMARK       I    between atoms: C2_19  and  O2_41 
REMARK       I    between atoms: C1_20  and  O4_38 
REMARK       I    between atoms: S2_21  and  O6_47 
REMARK       I    between atoms: O3_23  and  C3_58 
REMARK       I    between atoms: S1_24  and  N_33 
REMARK       I    between atoms: S1_24  and  O2S_37 
REMARK       I    between atoms: S1_24  and  O3S_34 
REMARK       I    between atoms: C4_25  and  O4_30 
REMARK       I    between atoms: C5_28  and  C6_56 
REMARK       I    between atoms: O4_29  and  C4_65 
REMARK       I    between atoms: S_31  and  O2_60 
REMARK       I    between atoms: C2_32  and  O2_60 
REMARK       I    between atoms: N_33  and  C2_46 
REMARK       I    between atoms: C6_35  and  O6_47 
REMARK       I    between atoms: C5_36  and  C6_40 
REMARK       I    between atoms: O4_38  and  C4_45 
REMARK       I    between atoms: C6_40  and  O6_59 
REMARK       I    between atoms: O2_41  and  S_54 
REMARK       I    between atoms: O1S_42  and  S1_53 
REMARK       I    between atoms: O3_43  and  C3_44 
REMARK       I    between atoms: O3S_50  and  S1_53 
REMARK       I    between atoms: O2S_52  and  S1_53 
REMARK       I    between atoms: S1_53  and  N_67 
ROOT
ATOM      1  C5  IDS d   1      24.616 -47.674  31.287  0.00  0.00     0.152 C 
ATOM      2  O2S IDS d   1      19.728 -49.230  32.968  0.00  0.00    -0.572 OA
ATOM      3  C4  IDS d   1      23.352 -48.382  30.790  0.00  0.00     0.097 C 
ATOM      4  C6  IDS d   1      25.848 -48.531  30.977  0.00  0.00     0.206 C 
ATOM      5  C2  IDS d   1      22.119 -47.330  32.697  0.00  0.00     0.134 C 
ATOM      6  C1  IDS d   1      23.432 -46.648  33.096  0.00  0.00     0.161 C 
ATOM      7  O61 IDS d   1      26.692 -48.700  31.886  0.00  0.00    -0.646 OA
ATOM      8  O3S IDS d   1      20.236 -47.429  34.541  0.00  0.00    -0.572 OA
ATOM      9  O2  IDS d   1      22.002 -48.576  33.394  0.00  0.00    -0.244 OA
ATOM     10  O3  IDS d   1      22.018 -46.367  30.476  0.00  0.00    -0.390 OA
ATOM     11  C3  IDS d   1      22.097 -47.604  31.193  0.00  0.00     0.094 C 
ATOM     12  O62 IDS d   1      25.968 -48.998  29.826  0.00  0.00    -0.646 OA
ATOM     13  S   IDS d   1      20.710 -48.740  33.989  0.00  0.00     0.252 S 
ATOM     14  O4  IDS d   1      23.292 -49.714  31.310  0.00  0.00    -0.390 OA
ATOM     15  O5  IDS d   1      24.554 -47.459  32.707  0.00  0.00    -0.340 OA
ATOM     16  O1S IDS d   1      20.805 -49.738  35.105  0.00  0.00    -0.572 OA
ATOM     17  H   IDS d   1      24.686 -46.730  30.789  0.00  0.00     0.104 H 
ATOM     18  H   IDS d   1      23.394 -48.427  29.722  0.00  0.00     0.091 H 
ATOM     19  H   IDS d   1      21.304 -46.685  32.951  0.00  0.00     0.097 H 
ATOM     20  H   IDS d   1      23.425 -46.530  34.159  0.00  0.00     0.133 H 
ATOM     21  H   IDS d   1      22.004 -46.545  29.523  0.00  0.00     0.210 HD
ATOM     22  H   IDS d   1      21.238 -48.194  30.949  0.00  0.00     0.091 H 
ATOM     23  H   IDS d   1      23.254 -49.680  32.279  0.00  0.00     0.210 HD
ATOM     24  S2  SGN d   2      24.266 -45.324  36.988  0.00  0.00     0.251 S 
ATOM     25  C2  SGN d   2      26.506 -43.120  32.027  0.00  0.00     0.081 C 
ATOM     26  O5S SGN d   2      25.404 -46.208  37.403  0.00  0.00    -0.572 OA
ATOM     27  O4S SGN d   2      23.045 -46.163  36.751  0.00  0.00    -0.572 OA
ATOM     28  C3  SGN d   2      25.376 -44.068  31.617  0.00  0.00     0.083 C 
ATOM     29  C1  SGN d   2      25.977 -41.988  32.910  0.00  0.00     0.150 C 
ATOM     30  O3  SGN d   2      25.931 -45.180  30.910  0.00  0.00    -0.391 OA
ATOM     31  C5  SGN d   2      24.198 -43.388  33.735  0.00  0.00     0.091 C 
ATOM     32  O4  SGN d   2      23.549 -45.382  32.504  0.00  0.00    -0.348 OA
ATOM     33  C6  SGN d   2      23.608 -43.927  35.042  0.00  0.00     0.067 C 
ATOM     34  O1S SGN d   2      29.439 -43.578  31.491  0.00  0.00    -0.296 OA
ATOM     35  C4  SGN d   2      24.664 -44.566  32.875  0.00  0.00     0.095 C 
ATOM     36  O6S SGN d   2      23.987 -44.332  38.079  0.00  0.00    -0.572 OA
ATOM     37  O3S SGN d   2      28.879 -41.307  32.248  0.00  0.00    -0.296 OA
ATOM     38  O2S SGN d   2      29.389 -41.733  29.891  0.00  0.00    -0.296 OA
ATOM     39  S1  SGN d   2      28.751 -42.296  31.127  0.00  0.00     0.156 S 
ATOM     40  O6  SGN d   2      24.607 -44.634  35.783  0.00  0.00    -0.254 OA
ATOM     41  N   SGN d   2      27.174 -42.584  30.831  0.00  0.00    -0.210 NA
ATOM     42  O5  SGN d   2      25.317 -42.547  34.059  0.00  0.00    -0.349 OA
ATOM     43  H   SGN d   2      27.222 -43.672  32.598  0.00  0.00     0.076 H 
ATOM     44  H   SGN d   2      24.679 -43.555  30.988  0.00  0.00     0.089 H 
ATOM     45  H   SGN d   2      26.805 -41.383  33.215  0.00  0.00     0.131 H 
ATOM     46  H   SGN d   2      26.563 -45.644  31.481  0.00  0.00     0.210 HD
ATOM     47  H   SGN d   2      23.465 -42.827  33.193  0.00  0.00     0.090 H 
ATOM     48  H   SGN d   2      22.800 -44.590  34.818  0.00  0.00     0.080 H 
ATOM     49  H   SGN d   2      23.256 -43.105  35.630  0.00  0.00     0.080 H 
ATOM     50  H   SGN d   2      30.376 -43.403  31.667  0.00  0.00     0.231 HD
ATOM     51  H   SGN d   2      25.351 -45.149  33.453  0.00  0.00     0.091 H 
ATOM     52  H   SGN d   2      29.818 -41.137  32.424  0.00  0.00     0.231 HD
ATOM     53  H   SGN d   2      30.329 -41.560  30.063  0.00  0.00     0.231 HD
ATOM     54  H   SGN d   2      26.720 -41.712  30.557  0.00  0.00     0.140 HD
ATOM     55  O3  SGN d   4      21.272 -37.012  32.586  0.00  0.00    -0.391 OA
ATOM     56  C5  SGN d   4      22.661 -35.465  29.453  0.00  0.00     0.091 C 
ATOM     57  C1  SGN d   4      20.728 -34.229  30.099  0.00  0.00     0.147 C 
ATOM     58  O1S SGN d   4      17.622 -36.043  31.807  0.00  0.00    -0.296 OA
ATOM     59  S2  SGN d   4      24.040 -35.531  25.948  0.00  0.00     0.251 S 
ATOM     60  S1  SGN d   4      18.075 -34.626  32.009  0.00  0.00     0.156 S 
ATOM     61  C4  SGN d   4      22.399 -36.549  30.501  0.00  0.00     0.095 C 
ATOM     62  O6S SGN d   4      25.038 -34.533  25.440  0.00  0.00    -0.572 OA
ATOM     63  O4  SGN d   4      23.635 -37.123  30.937  0.00  0.00    -0.348 OA
ATOM     64  N   SGN d   4      19.680 -34.611  32.294  0.00  0.00    -0.210 NA
ATOM     65  O3S SGN d   4      17.775 -33.822  30.779  0.00  0.00    -0.296 OA
ATOM     66  C6  SGN d   4      23.346 -36.105  28.246  0.00  0.00     0.067 C 
ATOM     67  O2S SGN d   4      17.360 -34.038  33.190  0.00  0.00    -0.296 OA
ATOM     68  C2  SGN d   4      20.390 -35.257  31.180  0.00  0.00     0.081 C 
ATOM     69  O6  SGN d   4      23.585 -35.121  27.239  0.00  0.00    -0.254 OA
ATOM     70  O4S SGN d   4      24.684 -36.882  26.052  0.00  0.00    -0.572 OA
ATOM     71  C3  SGN d   4      21.649 -35.958  31.695  0.00  0.00     0.083 C 
ATOM     72  O1  SGN d   4      21.550 -33.188  30.634  0.00  0.00    -0.369 OA
ATOM     73  O5  SGN d   4      21.413 -34.894  29.025  0.00  0.00    -0.350 OA
ATOM     74  O5S SGN d   4      22.879 -35.613  25.001  0.00  0.00    -0.572 OA
ATOM     75  H   SGN d   4      22.068 -37.459  32.913  0.00  0.00     0.210 HD
ATOM     76  H   SGN d   4      23.280 -34.701  29.874  0.00  0.00     0.090 H 
ATOM     77  H   SGN d   4      19.825 -33.786  29.736  0.00  0.00     0.131 H 
ATOM     78  H   SGN d   4      17.817 -36.562  32.603  0.00  0.00     0.231 HD
ATOM     79  H   SGN d   4      21.798 -37.315  30.058  0.00  0.00     0.091 H 
ATOM     80  H   SGN d   4      19.876 -35.116  33.158  0.00  0.00     0.140 HD
ATOM     81  H   SGN d   4      18.240 -34.206  30.019  0.00  0.00     0.231 HD
ATOM     82  H   SGN d   4      22.717 -36.874  27.848  0.00  0.00     0.080 H 
ATOM     83  H   SGN d   4      24.281 -36.525  28.555  0.00  0.00     0.080 H 
ATOM     84  H   SGN d   4      17.558 -34.561  33.982  0.00  0.00     0.231 HD
ATOM     85  H   SGN d   4      19.753 -35.997  30.741  0.00  0.00     0.076 H 
ATOM     86  H   SGN d   4      22.273 -35.260  32.214  0.00  0.00     0.089 H 
ATOM     87  H   SGN d   4      22.377 -33.570  30.970  0.00  0.00     0.212 HD
ATOM     88  C1  IDS d   3      23.932 -38.385  30.420  0.00  0.00     0.161 C 
ATOM     89  O61 IDS d   3      21.795 -41.152  32.406  0.00  0.00    -0.646 OA
ATOM     90  O3S IDS d   3      26.083 -40.986  27.739  0.00  0.00    -0.572 OA
ATOM     91  O3  IDS d   3      25.765 -37.613  32.674  0.00  0.00    -0.390 OA
ATOM     92  C5  IDS d   3      23.431 -39.425  32.504  0.00  0.00     0.152 C 
ATOM     93  O4  IDS d   3      25.082 -41.191  32.215  0.00  0.00    -0.348 OA
ATOM     94  S   IDS d   3      26.196 -39.716  28.529  0.00  0.00     0.252 S 
ATOM     95  C2  IDS d   3      25.422 -38.717  30.543  0.00  0.00     0.134 C 
ATOM     96  O2S IDS d   3      25.420 -38.648  27.818  0.00  0.00    -0.572 OA
ATOM     97  O5  IDS d   3      23.141 -39.373  31.099  0.00  0.00    -0.340 OA
ATOM     98  C6  IDS d   3      22.470 -40.423  33.155  0.00  0.00     0.206 C 
ATOM     99  C3  IDS d   3      25.818 -38.880  32.012  0.00  0.00     0.094 C 
ATOM    100  O2  IDS d   3      25.669 -39.940  29.841  0.00  0.00    -0.244 OA
ATOM    101  C4  IDS d   3      24.880 -39.866  32.715  0.00  0.00     0.103 C 
ATOM    102  O62 IDS d   3      22.412 -40.442  34.407  0.00  0.00    -0.646 OA
ATOM    103  O1S IDS d   3      27.637 -39.313  28.639  0.00  0.00    -0.572 OA
ATOM    104  H   IDS d   3      23.695 -38.384  29.376  0.00  0.00     0.133 H 
ATOM    105  H   IDS d   3      26.360 -36.990  32.227  0.00  0.00     0.210 HD
ATOM    106  H   IDS d   3      23.306 -38.459  32.947  0.00  0.00     0.104 H 
ATOM    107  H   IDS d   3      26.002 -37.921  30.127  0.00  0.00     0.097 H 
ATOM    108  H   IDS d   3      26.816 -39.264  32.055  0.00  0.00     0.091 H 
ATOM    109  H   IDS d   3      25.095 -39.873  33.763  0.00  0.00     0.092 H 
ENDROOT
TORSDOF 34
ENDMDL
MODEL 62
REMARK VINA RESULT:      -3.5      3.080     10.919
REMARK  0 active torsions:
REMARK  status: ('A' for Active; 'I' for Inactive)
REMARK       I    between atoms: C5_1  and  C6_10 
REMARK       I    between atoms: S2_2  and  O6_59 
REMARK       I    between atoms: O3_3  and  C3_61 
REMARK       I    between atoms: C5_5  and  C6_35 
REMARK       I    between atoms: C2_6  and  N_67 
REMARK       I    between atoms: C4_9  and  O4_55 
REMARK       I    between atoms: C1_11  and  O1_63 
REMARK       I    between atoms: C1_12  and  O4_30 
REMARK       I    between atoms: O1S_13  and  S1_24 
REMARK       I    between atoms: C3_14  and  O3_18 
REMARK       I    between atoms: C1_16  and  O4_29 
REMARK       I    between atoms: C2_19  and  O2_41 
REMARK       I    between atoms: C1_20  and  O4_38 
REMARK       I    between atoms: S2_21  and  O6_47 
REMARK       I    between atoms: O3_23  and  C3_58 
REMARK       I    between atoms: S1_24  and  N_33 
REMARK       I    between atoms: S1_24  and  O2S_37 
REMARK       I    between atoms: S1_24  and  O3S_34 
REMARK       I    between atoms: C4_25  and  O4_30 
REMARK       I    between atoms: C5_28  and  C6_56 
REMARK       I    between atoms: O4_29  and  C4_65 
REMARK       I    between atoms: S_31  and  O2_60 
REMARK       I    between atoms: C2_32  and  O2_60 
REMARK       I    between atoms: N_33  and  C2_46 
REMARK       I    between atoms: C6_35  and  O6_47 
REMARK       I    between atoms: C5_36  and  C6_40 
REMARK       I    between atoms: O4_38  and  C4_45 
REMARK       I    between atoms: C6_40  and  O6_59 
REMARK       I    between atoms: O2_41  and  S_54 
REMARK       I    between atoms: O1S_42  and  S1_53 
REMARK       I    between atoms: O3_43  and  C3_44 
REMARK       I    between atoms: O3S_50  and  S1_53 
REMARK       I    between atoms: O2S_52  and  S1_53 
REMARK       I    between atoms: S1_53  and  N_67 
ROOT
ATOM      1  C5  IDS d   1      27.088 -48.431  36.255  0.00  0.00     0.152 C 
ATOM      2  O2S IDS d   1      22.392 -51.086  36.450  0.00  0.00    -0.572 OA
ATOM      3  C4  IDS d   1      26.303 -49.523  35.522  0.00  0.00     0.097 C 
ATOM      4  C6  IDS d   1      28.497 -48.936  36.584  0.00  0.00     0.206 C 
ATOM      5  C2  IDS d   1      24.228 -48.636  36.606  0.00  0.00     0.134 C 
ATOM      6  C1  IDS d   1      25.102 -47.567  37.272  0.00  0.00     0.161 C 
ATOM      7  O61 IDS d   1      28.935 -48.746  37.742  0.00  0.00    -0.646 OA
ATOM      8  O3S IDS d   1      21.846 -49.035  37.663  0.00  0.00    -0.572 OA
ATOM      9  O2  IDS d   1      24.121 -49.768  37.477  0.00  0.00    -0.244 OA
ATOM     10  O3  IDS d   1      24.796 -48.022  34.332  0.00  0.00    -0.390 OA
ATOM     11  C3  IDS d   1      24.855 -49.088  35.286  0.00  0.00     0.094 C 
ATOM     12  O62 IDS d   1      29.154 -49.488  35.679  0.00  0.00    -0.646 OA
ATOM     13  S   IDS d   1      22.768 -50.216  37.612  0.00  0.00     0.252 S 
ATOM     14  O4  IDS d   1      26.333 -50.743  36.270  0.00  0.00    -0.390 OA
ATOM     15  O5  IDS d   1      26.433 -48.069  37.482  0.00  0.00    -0.340 OA
ATOM     16  O1S IDS d   1      22.633 -51.001  38.883  0.00  0.00    -0.572 OA
ATOM     17  H   IDS d   1      27.141 -47.575  35.615  0.00  0.00     0.104 H 
ATOM     18  H   IDS d   1      26.766 -49.686  34.572  0.00  0.00     0.091 H 
ATOM     19  H   IDS d   1      23.261 -48.221  36.416  0.00  0.00     0.097 H 
ATOM     20  H   IDS d   1      24.656 -47.325  38.213  0.00  0.00     0.133 H 
ATOM     21  H   IDS d   1      25.194 -48.313  33.497  0.00  0.00     0.210 HD
ATOM     22  H   IDS d   1      24.307 -49.922  34.899  0.00  0.00     0.091 H 
ATOM     23  H   IDS d   1      25.914 -50.602  37.134  0.00  0.00     0.210 HD
ATOM     24  S2  SGN d   2      24.046 -45.591  40.819  0.00  0.00     0.251 S 
ATOM     25  C2  SGN d   2      27.510 -43.474  36.575  0.00  0.00     0.081 C 
ATOM     26  O5S SGN d   2      25.094 -46.059  41.784  0.00  0.00    -0.572 OA
ATOM     27  O4S SGN d   2      23.227 -46.764  40.367  0.00  0.00    -0.572 OA
ATOM     28  C3  SGN d   2      26.863 -44.745  36.021  0.00  0.00     0.083 C 
ATOM     29  C1  SGN d   2      26.448 -42.437  36.949  0.00  0.00     0.150 C 
ATOM     30  O3  SGN d   2      27.875 -45.734  35.812  0.00  0.00    -0.391 OA
ATOM     31  C5  SGN d   2      24.835 -44.171  37.399  0.00  0.00     0.091 C 
ATOM     32  O4  SGN d   2      25.165 -46.403  36.492  0.00  0.00    -0.348 OA
ATOM     33  C6  SGN d   2      23.914 -44.688  38.508  0.00  0.00     0.067 C 
ATOM     34  O1S SGN d   2      30.444 -43.146  37.196  0.00  0.00    -0.296 OA
ATOM     35  C4  SGN d   2      25.842 -45.265  37.035  0.00  0.00     0.095 C 
ATOM     36  O6S SGN d   2      23.158 -44.592  41.499  0.00  0.00    -0.572 OA
ATOM     37  O3S SGN d   2      29.158 -41.051  37.194  0.00  0.00    -0.296 OA
ATOM     38  O2S SGN d   2      30.625 -41.603  35.312  0.00  0.00    -0.296 OA
ATOM     39  S1  SGN d   2      29.693 -42.166  36.344  0.00  0.00     0.156 S 
ATOM     40  O6  SGN d   2      24.673 -44.987  39.684  0.00  0.00    -0.254 OA
ATOM     41  N   SGN d   2      28.458 -42.922  35.595  0.00  0.00    -0.210 NA
ATOM     42  O5  SGN d   2      25.531 -43.014  37.894  0.00  0.00    -0.349 OA
ATOM     43  H   SGN d   2      28.048 -43.725  37.465  0.00  0.00     0.076 H 
ATOM     44  H   SGN d   2      26.373 -44.532  35.094  0.00  0.00     0.089 H 
ATOM     45  H   SGN d   2      26.941 -41.590  37.379  0.00  0.00     0.131 H 
ATOM     46  H   SGN d   2      28.318 -45.926  36.653  0.00  0.00     0.210 HD
ATOM     47  H   SGN d   2      24.270 -43.911  36.529  0.00  0.00     0.090 H 
ATOM     48  H   SGN d   2      23.421 -45.576  38.171  0.00  0.00     0.080 H 
ATOM     49  H   SGN d   2      23.193 -43.934  38.742  0.00  0.00     0.080 H 
ATOM     50  H   SGN d   2      31.177 -42.692  37.641  0.00  0.00     0.231 HD
ATOM     51  H   SGN d   2      26.358 -45.554  37.927  0.00  0.00     0.091 H 
ATOM     52  H   SGN d   2      29.893 -40.602  37.640  0.00  0.00     0.231 HD
ATOM     53  H   SGN d   2      31.362 -41.151  35.754  0.00  0.00     0.231 HD
ATOM     54  H   SGN d   2      27.971 -42.255  34.997  0.00  0.00     0.140 HD
ATOM     55  O3  SGN d   4      21.289 -39.075  33.936  0.00  0.00    -0.391 OA
ATOM     56  C5  SGN d   4      23.420 -37.597  31.214  0.00  0.00     0.091 C 
ATOM     57  C1  SGN d   4      21.171 -36.888  30.865  0.00  0.00     0.147 C 
ATOM     58  O1S SGN d   4      18.116 -39.281  31.755  0.00  0.00    -0.296 OA
ATOM     59  S2  SGN d   4      26.035 -37.702  28.504  0.00  0.00     0.251 S 
ATOM     60  S1  SGN d   4      18.138 -37.780  31.783  0.00  0.00     0.156 S 
ATOM     61  C4  SGN d   4      23.011 -38.573  32.319  0.00  0.00     0.095 C 
ATOM     62  O6S SGN d   4      26.912 -36.533  28.164  0.00  0.00    -0.572 OA
ATOM     63  O4  SGN d   4      24.072 -38.716  33.269  0.00  0.00    -0.348 OA
ATOM     64  N   SGN d   4      19.460 -37.277  32.592  0.00  0.00    -0.210 NA
ATOM     65  O3S SGN d   4      18.174 -37.252  30.380  0.00  0.00    -0.296 OA
ATOM     66  C6  SGN d   4      24.642 -38.161  30.489  0.00  0.00     0.067 C 
ATOM     67  O2S SGN d   4      16.910 -37.277  32.485  0.00  0.00    -0.296 OA
ATOM     68  C2  SGN d   4      20.669 -37.828  31.962  0.00  0.00     0.081 C 
ATOM     69  O6  SGN d   4      25.036 -37.281  29.435  0.00  0.00    -0.254 OA
ATOM     70  O4S SGN d   4      26.862 -38.793  29.119  0.00  0.00    -0.572 OA
ATOM     71  C3  SGN d   4      21.746 -38.075  33.020  0.00  0.00     0.083 C 
ATOM     72  O1  SGN d   4      21.475 -35.599  31.407  0.00  0.00    -0.369 OA
ATOM     73  O5  SGN d   4      22.346 -37.459  30.268  0.00  0.00    -0.350 OA
ATOM     74  O5S SGN d   4      25.382 -38.226  27.258  0.00  0.00    -0.572 OA
ATOM     75  H   SGN d   4      21.971 -39.234  34.608  0.00  0.00     0.210 HD
ATOM     76  H   SGN d   4      23.646 -36.643  31.642  0.00  0.00     0.090 H 
ATOM     77  H   SGN d   4      20.408 -36.766  30.126  0.00  0.00     0.131 H 
ATOM     78  H   SGN d   4      18.092 -39.621  32.663  0.00  0.00     0.231 HD
ATOM     79  H   SGN d   4      22.811 -39.526  31.877  0.00  0.00     0.091 H 
ATOM     80  H   SGN d   4      19.408 -37.596  33.560  0.00  0.00     0.140 HD
ATOM     81  H   SGN d   4      18.969 -37.580  29.931  0.00  0.00     0.231 HD
ATOM     82  H   SGN d   4      24.399 -39.119  30.079  0.00  0.00     0.080 H 
ATOM     83  H   SGN d   4      25.449 -38.258  31.185  0.00  0.00     0.080 H 
ATOM     84  H   SGN d   4      16.892 -37.621  33.392  0.00  0.00     0.231 HD
ATOM     85  H   SGN d   4      20.430 -38.766  31.506  0.00  0.00     0.076 H 
ATOM     86  H   SGN d   4      21.952 -37.170  33.555  0.00  0.00     0.089 H 
ATOM     87  H   SGN d   4      22.166 -35.687  32.082  0.00  0.00     0.212 HD
ATOM     88  C1  IDS d   3      24.811 -39.895  33.178  0.00  0.00     0.161 C 
ATOM     89  O61 IDS d   3      22.720 -42.887  34.866  0.00  0.00    -0.646 OA
ATOM     90  O3S IDS d   3      28.343 -42.093  32.045  0.00  0.00    -0.572 OA
ATOM     91  O3  IDS d   3      25.407 -38.365  35.695  0.00  0.00    -0.390 OA
ATOM     92  C5  IDS d   3      23.775 -40.769  35.137  0.00  0.00     0.152 C 
ATOM     93  O4  IDS d   3      25.746 -42.018  35.831  0.00  0.00    -0.348 OA
ATOM     94  S   IDS d   3      27.862 -40.755  32.525  0.00  0.00     0.252 S 
ATOM     95  C2  IDS d   3      26.169 -39.775  33.877  0.00  0.00     0.134 C 
ATOM     96  O2S IDS d   3      27.214 -40.046  31.373  0.00  0.00    -0.572 OA
ATOM     97  O5  IDS d   3      24.051 -40.976  33.743  0.00  0.00    -0.340 OA
ATOM     98  C6  IDS d   3      22.876 -41.910  35.621  0.00  0.00     0.206 C 
ATOM     99  C3  IDS d   3      25.986 -39.637  35.389  0.00  0.00     0.094 C 
ATOM    100  O2  IDS d   3      26.927 -40.955  33.590  0.00  0.00    -0.244 OA
ATOM    101  C4  IDS d   3      25.085 -40.753  35.926  0.00  0.00     0.103 C 
ATOM    102  O62 IDS d   3      22.340 -41.790  36.748  0.00  0.00    -0.646 OA
ATOM    103  O1S IDS d   3      29.022 -39.950  33.032  0.00  0.00    -0.572 OA
ATOM    104  H   IDS d   3      25.006 -40.090  32.144  0.00  0.00     0.133 H 
ATOM    105  H   IDS d   3      25.979 -37.659  35.355  0.00  0.00     0.210 HD
ATOM    106  H   IDS d   3      23.282 -39.831  35.286  0.00  0.00     0.104 H 
ATOM    107  H   IDS d   3      26.679 -38.905  33.520  0.00  0.00     0.097 H 
ATOM    108  H   IDS d   3      26.946 -39.715  35.856  0.00  0.00     0.091 H 
ATOM    109  H   IDS d   3      24.870 -40.569  36.958  0.00  0.00     0.092 H 
ENDROOT
TORSDOF 34
ENDMDL
MODEL 63
REMARK VINA RESULT:      -3.0      4.610      9.201
REMARK  0 active torsions:
REMARK  status: ('A' for Active; 'I' for Inactive)
REMARK       I    between atoms: C5_1  and  C6_10 
REMARK       I    between atoms: S2_2  and  O6_59 
REMARK       I    between atoms: O3_3  and  C3_61 
REMARK       I    between atoms: C5_5  and  C6_35 
REMARK       I    between atoms: C2_6  and  N_67 
REMARK       I    between atoms: C4_9  and  O4_55 
REMARK       I    between atoms: C1_11  and  O1_63 
REMARK       I    between atoms: C1_12  and  O4_30 
REMARK       I    between atoms: O1S_13  and  S1_24 
REMARK       I    between atoms: C3_14  and  O3_18 
REMARK       I    between atoms: C1_16  and  O4_29 
REMARK       I    between atoms: C2_19  and  O2_41 
REMARK       I    between atoms: C1_20  and  O4_38 
REMARK       I    between atoms: S2_21  and  O6_47 
REMARK       I    between atoms: O3_23  and  C3_58 
REMARK       I    between atoms: S1_24  and  N_33 
REMARK       I    between atoms: S1_24  and  O2S_37 
REMARK       I    between atoms: S1_24  and  O3S_34 
REMARK       I    between atoms: C4_25  and  O4_30 
REMARK       I    between atoms: C5_28  and  C6_56 
REMARK       I    between atoms: O4_29  and  C4_65 
REMARK       I    between atoms: S_31  and  O2_60 
REMARK       I    between atoms: C2_32  and  O2_60 
REMARK       I    between atoms: N_33  and  C2_46 
REMARK       I    between atoms: C6_35  and  O6_47 
REMARK       I    between atoms: C5_36  and  C6_40 
REMARK       I    between atoms: O4_38  and  C4_45 
REMARK       I    between atoms: C6_40  and  O6_59 
REMARK       I    between atoms: O2_41  and  S_54 
REMARK       I    between atoms: O1S_42  and  S1_53 
REMARK       I    between atoms: O3_43  and  C3_44 
REMARK       I    between atoms: O3S_50  and  S1_53 
REMARK       I    between atoms: O2S_52  and  S1_53 
REMARK       I    between atoms: S1_53  and  N_67 
ROOT
ATOM      1  C5  IDS d   1      27.079 -46.132  36.865  0.00  0.00     0.152 C 
ATOM      2  O2S IDS d   1      27.465 -41.522  39.647  0.00  0.00    -0.572 OA
ATOM      3  C4  IDS d   1      26.850 -45.562  38.269  0.00  0.00     0.097 C 
ATOM      4  C6  IDS d   1      27.954 -47.387  36.950  0.00  0.00     0.206 C 
ATOM      5  C2  IDS d   1      26.775 -43.283  37.234  0.00  0.00     0.134 C 
ATOM      6  C1  IDS d   1      26.982 -43.957  35.873  0.00  0.00     0.161 C 
ATOM      7  O61 IDS d   1      28.913 -47.492  36.152  0.00  0.00    -0.646 OA
ATOM      8  O3S IDS d   1      27.267 -40.696  37.355  0.00  0.00    -0.572 OA
ATOM      9  O2  IDS d   1      28.049 -42.922  37.782  0.00  0.00    -0.244 OA
ATOM     10  O3  IDS d   1      24.730 -44.466  37.774  0.00  0.00    -0.390 OA
ATOM     11  C3  IDS d   1      26.078 -44.242  38.201  0.00  0.00     0.094 C 
ATOM     12  O62 IDS d   1      27.657 -48.259  37.792  0.00  0.00    -0.646 OA
ATOM     13  S   IDS d   1      28.060 -41.577  38.272  0.00  0.00     0.252 S 
ATOM     14  O4  IDS d   1      28.102 -45.365  38.934  0.00  0.00    -0.390 OA
ATOM     15  O5  IDS d   1      27.739 -45.170  36.026  0.00  0.00    -0.340 OA
ATOM     16  O1S IDS d   1      29.476 -41.084  38.325  0.00  0.00    -0.572 OA
ATOM     17  H   IDS d   1      26.125 -46.373  36.446  0.00  0.00     0.104 H 
ATOM     18  H   IDS d   1      26.268 -46.266  38.824  0.00  0.00     0.091 H 
ATOM     19  H   IDS d   1      26.168 -42.413  37.100  0.00  0.00     0.097 H 
ATOM     20  H   IDS d   1      27.521 -43.272  35.253  0.00  0.00     0.133 H 
ATOM     21  H   IDS d   1      24.292 -45.074  38.390  0.00  0.00     0.210 HD
ATOM     22  H   IDS d   1      26.058 -43.809  39.180  0.00  0.00     0.091 H 
ATOM     23  H   IDS d   1      28.635 -44.727  38.435  0.00  0.00     0.210 HD
ATOM     24  S2  SGN d   2      28.614 -41.996  32.543  0.00  0.00     0.251 S 
ATOM     25  C2  SGN d   2      24.883 -46.530  32.407  0.00  0.00     0.081 C 
ATOM     26  O5S SGN d   2      29.903 -42.729  32.325  0.00  0.00    -0.572 OA
ATOM     27  O4S SGN d   2      28.649 -41.314  33.879  0.00  0.00    -0.572 OA
ATOM     28  C3  SGN d   2      24.928 -46.039  33.856  0.00  0.00     0.083 C 
ATOM     29  C1  SGN d   2      24.395 -45.422  31.470  0.00  0.00     0.150 C 
ATOM     30  O3  SGN d   2      25.514 -47.053  34.676  0.00  0.00    -0.391 OA
ATOM     31  C5  SGN d   2      25.266 -43.720  32.937  0.00  0.00     0.091 C 
ATOM     32  O4  SGN d   2      25.756 -44.251  35.259  0.00  0.00    -0.348 OA
ATOM     33  C6  SGN d   2      26.219 -42.521  32.944  0.00  0.00     0.067 C 
ATOM     34  O1S SGN d   2      25.939 -49.183  31.436  0.00  0.00    -0.296 OA
ATOM     35  C4  SGN d   2      25.779 -44.771  33.926  0.00  0.00     0.095 C 
ATOM     36  O6S SGN d   2      28.440 -40.970  31.462  0.00  0.00    -0.572 OA
ATOM     37  O3S SGN d   2      24.541 -47.981  29.810  0.00  0.00    -0.296 OA
ATOM     38  O2S SGN d   2      23.640 -49.902  31.035  0.00  0.00    -0.296 OA
ATOM     39  S1  SGN d   2      24.551 -48.712  31.121  0.00  0.00     0.156 S 
ATOM     40  O6  SGN d   2      27.524 -42.921  32.513  0.00  0.00    -0.254 OA
ATOM     41  N   SGN d   2      24.025 -47.720  32.303  0.00  0.00    -0.210 NA
ATOM     42  O5  SGN d   2      25.245 -44.270  31.609  0.00  0.00    -0.349 OA
ATOM     43  H   SGN d   2      25.874 -46.796  32.108  0.00  0.00     0.076 H 
ATOM     44  H   SGN d   2      23.937 -45.828  34.201  0.00  0.00     0.089 H 
ATOM     45  H   SGN d   2      24.431 -45.791  30.466  0.00  0.00     0.131 H 
ATOM     46  H   SGN d   2      26.412 -47.245  34.363  0.00  0.00     0.210 HD
ATOM     47  H   SGN d   2      24.280 -43.421  33.223  0.00  0.00     0.090 H 
ATOM     48  H   SGN d   2      26.281 -42.125  33.936  0.00  0.00     0.080 H 
ATOM     49  H   SGN d   2      25.845 -41.775  32.274  0.00  0.00     0.080 H 
ATOM     50  H   SGN d   2      26.249 -49.772  30.731  0.00  0.00     0.231 HD
ATOM     51  H   SGN d   2      26.786 -45.015  33.659  0.00  0.00     0.091 H 
ATOM     52  H   SGN d   2      24.854 -48.572  29.108  0.00  0.00     0.231 HD
ATOM     53  H   SGN d   2      23.949 -50.495  30.333  0.00  0.00     0.231 HD
ATOM     54  H   SGN d   2      23.070 -47.427  32.094  0.00  0.00     0.140 HD
ATOM     55  O3  SGN d   4      18.926 -41.349  30.767  0.00  0.00    -0.391 OA
ATOM     56  C5  SGN d   4      16.448 -44.172  30.589  0.00  0.00     0.091 C 
ATOM     57  C1  SGN d   4      15.247 -42.118  30.447  0.00  0.00     0.147 C 
ATOM     58  O1S SGN d   4      16.468 -38.897  32.445  0.00  0.00    -0.296 OA
ATOM     59  S2  SGN d   4      14.918 -47.430  31.698  0.00  0.00     0.251 S 
ATOM     60  S1  SGN d   4      15.721 -38.934  31.143  0.00  0.00     0.156 S 
ATOM     61  C4  SGN d   4      17.760 -43.458  30.924  0.00  0.00     0.095 C 
ATOM     62  O6S SGN d   4      14.248 -48.385  30.754  0.00  0.00    -0.572 OA
ATOM     63  O4  SGN d   4      18.872 -44.213  30.433  0.00  0.00    -0.348 OA
ATOM     64  N   SGN d   4      16.448 -39.991  30.137  0.00  0.00    -0.210 NA
ATOM     65  O3S SGN d   4      14.305 -39.365  31.389  0.00  0.00    -0.296 OA
ATOM     66  C6  SGN d   4      16.444 -45.537  31.276  0.00  0.00     0.067 C 
ATOM     67  O2S SGN d   4      15.737 -37.569  30.520  0.00  0.00    -0.296 OA
ATOM     68  C2  SGN d   4      16.510 -41.317  30.768  0.00  0.00     0.081 C 
ATOM     69  O6  SGN d   4      15.220 -46.220  31.000  0.00  0.00    -0.254 OA
ATOM     70  O4S SGN d   4      16.187 -48.038  32.216  0.00  0.00    -0.572 OA
ATOM     71  C3  SGN d   4      17.769 -42.057  30.310  0.00  0.00     0.083 C 
ATOM     72  O1  SGN d   4      15.100 -42.281  29.034  0.00  0.00    -0.369 OA
ATOM     73  O5  SGN d   4      15.338 -43.402  31.083  0.00  0.00    -0.350 OA
ATOM     74  O5S SGN d   4      14.006 -47.138  32.853  0.00  0.00    -0.572 OA
ATOM     75  H   SGN d   4      19.726 -41.816  30.479  0.00  0.00     0.210 HD
ATOM     76  H   SGN d   4      16.362 -44.286  29.529  0.00  0.00     0.090 H 
ATOM     77  H   SGN d   4      14.391 -41.590  30.812  0.00  0.00     0.131 H 
ATOM     78  H   SGN d   4      17.383 -38.618  32.285  0.00  0.00     0.231 HD
ATOM     79  H   SGN d   4      17.841 -43.372  31.987  0.00  0.00     0.091 H 
ATOM     80  H   SGN d   4      17.393 -39.668  29.932  0.00  0.00     0.140 HD
ATOM     81  H   SGN d   4      14.301 -40.248  31.791  0.00  0.00     0.231 HD
ATOM     82  H   SGN d   4      16.543 -45.401  32.333  0.00  0.00     0.080 H 
ATOM     83  H   SGN d   4      17.262 -46.119  30.907  0.00  0.00     0.080 H 
ATOM     84  H   SGN d   4      16.655 -37.296  30.363  0.00  0.00     0.231 HD
ATOM     85  H   SGN d   4      16.562 -41.198  31.830  0.00  0.00     0.076 H 
ATOM     86  H   SGN d   4      17.791 -42.122  29.242  0.00  0.00     0.089 H 
ATOM     87  H   SGN d   4      15.868 -42.758  28.682  0.00  0.00     0.212 HD
ATOM     88  C1  IDS d   3      19.587 -44.930  31.393  0.00  0.00     0.161 C 
ATOM     89  O61 IDS d   3      22.008 -42.407  33.380  0.00  0.00    -0.646 OA
ATOM     90  O3S IDS d   3      20.655 -48.601  33.385  0.00  0.00    -0.572 OA
ATOM     91  O3  IDS d   3      21.008 -44.833  28.746  0.00  0.00    -0.390 OA
ATOM     92  C5  IDS d   3      21.394 -43.379  31.295  0.00  0.00     0.152 C 
ATOM     93  O4  IDS d   3      23.090 -45.062  31.761  0.00  0.00    -0.348 OA
ATOM     94  S   IDS d   3      20.241 -48.028  32.062  0.00  0.00     0.252 S 
ATOM     95  C2  IDS d   3      20.430 -46.044  30.765  0.00  0.00     0.134 C 
ATOM     96  O2S IDS d   3      18.771 -47.734  32.115  0.00  0.00    -0.572 OA
ATOM     97  O5  IDS d   3      20.424 -44.026  32.133  0.00  0.00    -0.340 OA
ATOM     98  C6  IDS d   3      22.161 -42.363  32.145  0.00  0.00     0.206 C 
ATOM     99  C3  IDS d   3      21.555 -45.453  29.914  0.00  0.00     0.094 C 
ATOM    100  O2  IDS d   3      20.990 -46.833  31.821  0.00  0.00    -0.244 OA
ATOM    101  C4  IDS d   3      22.352 -44.421  30.717  0.00  0.00     0.103 C 
ATOM    102  O62 IDS d   3      22.893 -41.540  31.548  0.00  0.00    -0.646 OA
ATOM    103  O1S IDS d   3      20.524 -49.016  30.969  0.00  0.00    -0.572 OA
ATOM    104  H   IDS d   3      18.887 -45.399  32.053  0.00  0.00     0.133 H 
ATOM    105  H   IDS d   3      20.504 -45.488  28.239  0.00  0.00     0.210 HD
ATOM    106  H   IDS d   3      20.910 -42.880  30.481  0.00  0.00     0.104 H 
ATOM    107  H   IDS d   3      19.812 -46.646  30.133  0.00  0.00     0.097 H 
ATOM    108  H   IDS d   3      22.213 -46.246  29.622  0.00  0.00     0.091 H 
ATOM    109  H   IDS d   3      23.052 -43.933  30.071  0.00  0.00     0.092 H 
ENDROOT
TORSDOF 34
ENDMDL
