MODEL 1
REMARK VINA RESULT:      -7.2      0.000      0.000
REMARK  0 active torsions:
REMARK  status: ('A' for Active; 'I' for Inactive)
REMARK       I    between atoms: O15_1  and  C10_31 
REMARK       I    between atoms: C17_4  and  O25_18 
REMARK       I    between atoms: O28_6  and  S20_15 
REMARK       I    between atoms: O3_7  and  C1_22 
REMARK       I    between atoms: O3_7  and  C7_24 
REMARK       I    between atoms: O30_8  and  S20_15 
REMARK       I    between atoms: C2_10  and  C6_27 
REMARK       I    between atoms: O18_13  and  C12_30 
REMARK       I    between atoms: O18_13  and  S26_34 
REMARK       I    between atoms: S20_15  and  N14_20 
REMARK       I    between atoms: S20_15  and  O29_29 
REMARK       I    between atoms: C4_16  and  O9_17 
REMARK       I    between atoms: N14_20  and  C8_26 
REMARK       I    between atoms: C6_27  and  O11_28 
REMARK       I    between atoms: O11_28  and  S16_32 
REMARK       I    between atoms: C19_33  and  C27_35 
ROOT
ATOM      1  O15 H1S d  69       4.757   3.240  12.880  0.00  0.00    -0.369 OA
ATOM      2  O22 H1S d  69       6.181  -0.151  16.405  0.00  0.00    -0.572 OA
ATOM      3  O31 H1S d  69       5.620  -3.066   5.862  0.00  0.00    -0.572 OA
ATOM      4  C17 H1S d  69       6.602  -4.076   9.453  0.00  0.00     0.086 C 
ATOM      5  O5  H1S d  69       4.728   0.695  13.520  0.00  0.00    -0.350 OA
ATOM      6  O28 H1S d  69       1.257   0.741   9.512  0.00  0.00    -0.296 OA
ATOM      7  O3  H1S d  69       5.929  -1.997  11.081  0.00  0.00    -0.348 OA
ATOM      8  O30 H1S d  69       3.066   1.992   8.684  0.00  0.00    -0.296 OA
ATOM      9  O32 H1S d  69       5.620  -5.361   6.647  0.00  0.00    -0.572 OA
ATOM     10  C2  H1S d  69       4.903  -0.686  12.991  0.00  0.00     0.091 C 
ATOM     11  O35 H1S d  69       3.117  -5.018  12.913  0.00  0.00    -0.642 OA
ATOM     12  O13 H1S d  69       4.117  -3.365  10.945  0.00  0.00    -0.311 OA
ATOM     13  O18 H1S d  69       4.634  -3.612   8.047  0.00  0.00    -0.244 OA
ATOM     14  O21 H1S d  69       3.849   0.439  16.801  0.00  0.00    -0.572 OA
ATOM     15  S20 H1S d  69       2.733   0.802   9.468  0.00  0.00     0.156 S 
ATOM     16  C4  H1S d  69       5.726   0.274  10.647  0.00  0.00     0.083 C 
ATOM     17  O9  H1S d  69       7.011   0.805  10.188  0.00  0.00    -0.391 OA
ATOM     18  O25 H1S d  69       7.802  -3.404   9.852  0.00  0.00    -0.389 OA
ATOM     19  O34 H1S d  69       4.736  -6.508  12.605  0.00  0.00    -0.642 OA
ATOM     20  N14 H1S d  69       3.366   0.780  10.981  0.00  0.00    -0.210 NA
ATOM     21  O33 H1S d  69       3.482  -4.165   6.205  0.00  0.00    -0.572 OA
ATOM     22  C1  H1S d  69       5.905  -0.750  11.783  0.00  0.00     0.095 C 
ATOM     23  C24 H1S d  69       5.967  -4.942  10.590  0.00  0.00    -0.034 C 
ATOM     24  C7  H1S d  69       4.883  -2.395  10.154  0.00  0.00     0.167 C 
ATOM     25  O23 H1S d  69       4.659  -1.638  17.722  0.00  0.00    -0.572 OA
ATOM     26  C8  H1S d  69       4.733   1.345  11.088  0.00  0.00     0.081 C 
ATOM     27  C6  H1S d  69       5.297  -1.635  14.132  0.00  0.00     0.067 C 
ATOM     28  O11 H1S d  69       4.413  -1.422  15.296  0.00  0.00    -0.254 OA
ATOM     29  O29 H1S d  69       3.227  -0.382   8.700  0.00  0.00    -0.296 OA
ATOM     30  C12 H1S d  69       5.598  -3.011   8.939  0.00  0.00     0.135 C 
ATOM     31  C10 H1S d  69       5.095   1.778  12.547  0.00  0.00     0.147 C 
ATOM     32  S16 H1S d  69       4.773  -0.712  16.538  0.00  0.00     0.251 S 
ATOM     33  C19 H1S d  69       4.778  -4.539  11.249  0.00  0.00     0.147 C 
ATOM     34  S26 H1S d  69       4.865  -4.067   6.683  0.00  0.00     0.252 S 
ATOM     35  C27 H1S d  69       4.163  -5.426  12.342  0.00  0.00     0.233 C 
ATOM     36  H   H1S d  69       5.010   3.430  13.797  0.00  0.00     0.212 HD
ATOM     37  H   H1S d  69       6.850  -4.769   8.677  0.00  0.00     0.093 H 
ATOM     38  H   H1S d  69       0.917   1.502  10.008  0.00  0.00     0.231 HD
ATOM     39  H   H1S d  69       2.760   2.784   9.153  0.00  0.00     0.231 HD
ATOM     40  H   H1S d  69       3.964  -1.010  12.593  0.00  0.00     0.090 H 
ATOM     41  H   H1S d  69       5.311  -0.208   9.787  0.00  0.00     0.089 H 
ATOM     42  H   H1S d  69       7.452   1.262  10.920  0.00  0.00     0.210 HD
ATOM     43  H   H1S d  69       7.598  -2.770  10.557  0.00  0.00     0.210 HD
ATOM     44  H   H1S d  69       3.398  -0.189  11.299  0.00  0.00     0.140 HD
ATOM     45  H   H1S d  69       6.798  -0.550  12.338  0.00  0.00     0.091 H 
ATOM     46  H   H1S d  69       6.423  -5.826  10.866  0.00  0.00     0.085 H 
ATOM     47  H   H1S d  69       4.238  -1.628   9.778  0.00  0.00     0.134 H 
ATOM     48  H   H1S d  69       4.776   2.218  10.470  0.00  0.00     0.076 H 
ATOM     49  H   H1S d  69       6.310  -1.444  14.418  0.00  0.00     0.080 H 
ATOM     50  H   H1S d  69       5.199  -2.647  13.798  0.00  0.00     0.080 H 
ATOM     51  H   H1S d  69       2.851  -0.366   7.805  0.00  0.00     0.231 HD
ATOM     52  H   H1S d  69       6.122  -2.252   8.395  0.00  0.00     0.097 H 
ATOM     53  H   H1S d  69       6.157   1.851  12.652  0.00  0.00     0.131 H 
ENDROOT
TORSDOF 16
ENDMDL
MODEL 2
REMARK VINA RESULT:      -6.5      2.287      7.687
REMARK  0 active torsions:
REMARK  status: ('A' for Active; 'I' for Inactive)
REMARK       I    between atoms: O15_1  and  C10_31 
REMARK       I    between atoms: C17_4  and  O25_18 
REMARK       I    between atoms: O28_6  and  S20_15 
REMARK       I    between atoms: O3_7  and  C1_22 
REMARK       I    between atoms: O3_7  and  C7_24 
REMARK       I    between atoms: O30_8  and  S20_15 
REMARK       I    between atoms: C2_10  and  C6_27 
REMARK       I    between atoms: O18_13  and  C12_30 
REMARK       I    between atoms: O18_13  and  S26_34 
REMARK       I    between atoms: S20_15  and  N14_20 
REMARK       I    between atoms: S20_15  and  O29_29 
REMARK       I    between atoms: C4_16  and  O9_17 
REMARK       I    between atoms: N14_20  and  C8_26 
REMARK       I    between atoms: C6_27  and  O11_28 
REMARK       I    between atoms: O11_28  and  S16_32 
REMARK       I    between atoms: C19_33  and  C27_35 
ROOT
ATOM      1  O15 H1S d  69       8.014  -5.256   9.097  0.00  0.00    -0.369 OA
ATOM      2  O22 H1S d  69       7.993  -0.710   6.799  0.00  0.00    -0.572 OA
ATOM      3  O31 H1S d  69       4.748  -1.636  17.220  0.00  0.00    -0.572 OA
ATOM      4  C17 H1S d  69       5.538   0.723  14.272  0.00  0.00     0.086 C 
ATOM      5  O5  H1S d  69       6.806  -2.930   8.994  0.00  0.00    -0.350 OA
ATOM      6  O28 H1S d  69       3.347  -5.706  11.899  0.00  0.00    -0.296 OA
ATOM      7  O3  H1S d  69       6.196  -0.847  12.145  0.00  0.00    -0.348 OA
ATOM      8  O30 H1S d  69       5.418  -6.204  12.890  0.00  0.00    -0.296 OA
ATOM      9  O32 H1S d  69       3.706   0.536  16.936  0.00  0.00    -0.572 OA
ATOM     10  C2  H1S d  69       6.203  -1.843   9.815  0.00  0.00     0.091 C 
ATOM     11  O35 H1S d  69       2.508   0.998  10.303  0.00  0.00    -0.642 OA
ATOM     12  O13 H1S d  69       3.942  -0.539  12.088  0.00  0.00    -0.311 OA
ATOM     13  O18 H1S d  69       3.902  -0.963  15.011  0.00  0.00    -0.244 OA
ATOM     14  O21 H1S d  69       6.333  -2.129   5.716  0.00  0.00    -0.572 OA
ATOM     15  S20 H1S d  69       4.639  -5.114  12.302  0.00  0.00     0.156 S 
ATOM     16  C4  H1S d  69       7.095  -2.985  12.049  0.00  0.00     0.083 C 
ATOM     17  O9  H1S d  69       8.405  -2.998  12.703  0.00  0.00    -0.391 OA
ATOM     18  O25 H1S d  69       6.952   0.809  14.063  0.00  0.00    -0.389 OA
ATOM     19  O34 H1S d  69       3.120   2.884  11.303  0.00  0.00    -0.642 OA
ATOM     20  N14 H1S d  69       5.361  -4.363  11.035  0.00  0.00    -0.210 NA
ATOM     21  O33 H1S d  69       2.408  -1.557  16.574  0.00  0.00    -0.572 OA
ATOM     22  C1  H1S d  69       6.882  -1.702  11.225  0.00  0.00     0.095 C 
ATOM     23  C24 H1S d  69       4.704   1.511  13.208  0.00  0.00    -0.034 C 
ATOM     24  C7  H1S d  69       4.984  -1.253  12.837  0.00  0.00     0.167 C 
ATOM     25  O23 H1S d  69       6.111   0.261   5.465  0.00  0.00    -0.572 OA
ATOM     26  C8  H1S d  69       6.829  -4.201  11.166  0.00  0.00     0.081 C 
ATOM     27  C6  H1S d  69       6.213  -0.526   9.024  0.00  0.00     0.067 C 
ATOM     28  O11 H1S d  69       5.705  -0.753   7.657  0.00  0.00    -0.254 OA
ATOM     29  O29 H1S d  69       4.380  -4.123  13.391  0.00  0.00    -0.296 OA
ATOM     30  C12 H1S d  69       5.140  -0.776  14.291  0.00  0.00     0.135 C 
ATOM     31  C10 H1S d  69       7.537  -3.971   9.790  0.00  0.00     0.147 C 
ATOM     32  S16 H1S d  69       6.522  -0.823   6.430  0.00  0.00     0.251 S 
ATOM     33  C19 H1S d  69       3.965   0.837  12.203  0.00  0.00     0.147 C 
ATOM     34  S26 H1S d  69       3.705  -0.881  16.452  0.00  0.00     0.252 S 
ATOM     35  C27 H1S d  69       3.133   1.638  11.190  0.00  0.00     0.233 C 
ATOM     36  H   H1S d  69       8.440  -5.031   8.255  0.00  0.00     0.212 HD
ATOM     37  H   H1S d  69       5.310   1.188  15.208  0.00  0.00     0.093 H 
ATOM     38  H   H1S d  69       3.494  -6.353  11.191  0.00  0.00     0.231 HD
ATOM     39  H   H1S d  69       5.607  -6.870  12.211  0.00  0.00     0.231 HD
ATOM     40  H   H1S d  69       5.186  -2.106  10.019  0.00  0.00     0.090 H 
ATOM     41  H   H1S d  69       6.392  -3.018  12.855  0.00  0.00     0.089 H 
ATOM     42  H   H1S d  69       9.102  -2.969  12.030  0.00  0.00     0.210 HD
ATOM     43  H   H1S d  69       7.180   0.393  13.217  0.00  0.00     0.210 HD
ATOM     44  H   H1S d  69       4.947  -3.437  10.936  0.00  0.00     0.140 HD
ATOM     45  H   H1S d  69       7.817  -1.309  10.885  0.00  0.00     0.091 H 
ATOM     46  H   H1S d  69       4.691   2.542  13.239  0.00  0.00     0.085 H 
ATOM     47  H   H1S d  69       4.764  -2.299  12.876  0.00  0.00     0.134 H 
ATOM     48  H   H1S d  69       7.222  -5.102  11.588  0.00  0.00     0.076 H 
ATOM     49  H   H1S d  69       7.214  -0.151   8.972  0.00  0.00     0.080 H 
ATOM     50  H   H1S d  69       5.584   0.185   9.519  0.00  0.00     0.080 H 
ATOM     51  H   H1S d  69       3.953  -4.569  14.140  0.00  0.00     0.231 HD
ATOM     52  H   H1S d  69       5.899  -1.345  14.786  0.00  0.00     0.097 H 
ATOM     53  H   H1S d  69       8.499  -3.528   9.946  0.00  0.00     0.131 H 
ENDROOT
TORSDOF 16
ENDMDL
MODEL 3
REMARK VINA RESULT:      -6.3      2.605      4.465
REMARK  0 active torsions:
REMARK  status: ('A' for Active; 'I' for Inactive)
REMARK       I    between atoms: O15_1  and  C10_31 
REMARK       I    between atoms: C17_4  and  O25_18 
REMARK       I    between atoms: O28_6  and  S20_15 
REMARK       I    between atoms: O3_7  and  C1_22 
REMARK       I    between atoms: O3_7  and  C7_24 
REMARK       I    between atoms: O30_8  and  S20_15 
REMARK       I    between atoms: C2_10  and  C6_27 
REMARK       I    between atoms: O18_13  and  C12_30 
REMARK       I    between atoms: O18_13  and  S26_34 
REMARK       I    between atoms: S20_15  and  N14_20 
REMARK       I    between atoms: S20_15  and  O29_29 
REMARK       I    between atoms: C4_16  and  O9_17 
REMARK       I    between atoms: N14_20  and  C8_26 
REMARK       I    between atoms: C6_27  and  O11_28 
REMARK       I    between atoms: O11_28  and  S16_32 
REMARK       I    between atoms: C19_33  and  C27_35 
ROOT
ATOM      1  O15 H1S d  69       4.195   0.020  14.517  0.00  0.00    -0.369 OA
ATOM      2  O22 H1S d  69       6.081  -4.591  13.450  0.00  0.00    -0.572 OA
ATOM      3  O31 H1S d  69       6.249   3.322   5.877  0.00  0.00    -0.572 OA
ATOM      4  C17 H1S d  69       7.303  -0.262   6.840  0.00  0.00     0.086 C 
ATOM      5  O5  H1S d  69       4.574  -1.734  12.602  0.00  0.00    -0.350 OA
ATOM      6  O28 H1S d  69       1.235   1.623  10.216  0.00  0.00    -0.296 OA
ATOM      7  O3  H1S d  69       6.259  -0.767   9.305  0.00  0.00    -0.348 OA
ATOM      8  O30 H1S d  69       2.830   3.043  11.197  0.00  0.00    -0.296 OA
ATOM      9  O32 H1S d  69       6.611   1.558   4.252  0.00  0.00    -0.572 OA
ATOM     10  C2  H1S d  69       4.986  -1.901  11.181  0.00  0.00     0.091 C 
ATOM     11  O35 H1S d  69       3.944  -3.957   7.101  0.00  0.00    -0.642 OA
ATOM     12  O13 H1S d  69       4.701  -1.391   7.769  0.00  0.00    -0.311 OA
ATOM     13  O18 H1S d  69       5.318   1.081   6.275  0.00  0.00    -0.244 OA
ATOM     14  O21 H1S d  69       3.675  -4.800  13.783  0.00  0.00    -0.572 OA
ATOM     15  S20 H1S d  69       2.681   1.777  10.479  0.00  0.00     0.156 S 
ATOM     16  C4  H1S d  69       5.692   0.663  11.043  0.00  0.00     0.083 C 
ATOM     17  O9  H1S d  69       6.882   1.391  11.490  0.00  0.00    -0.391 OA
ATOM     18  O25 H1S d  69       8.366  -0.231   7.799  0.00  0.00    -0.389 OA
ATOM     19  O34 H1S d  69       5.794  -4.286   5.915  0.00  0.00    -0.642 OA
ATOM     20  N14 H1S d  69       3.275   0.468  11.270  0.00  0.00    -0.210 NA
ATOM     21  O33 H1S d  69       4.315   2.382   4.748  0.00  0.00    -0.572 OA
ATOM     22  C1  H1S d  69       6.012  -0.807  10.715  0.00  0.00     0.095 C 
ATOM     23  C24 H1S d  69       6.795  -1.706   6.522  0.00  0.00    -0.034 C 
ATOM     24  C7  H1S d  69       5.314  -0.196   8.361  0.00  0.00     0.167 C 
ATOM     25  O23 H1S d  69       4.796  -6.535  12.537  0.00  0.00    -0.572 OA
ATOM     26  C8  H1S d  69       4.526   0.717  12.026  0.00  0.00     0.081 C 
ATOM     27  C6  H1S d  69       5.506  -3.329  10.954  0.00  0.00     0.067 C 
ATOM     28  O11 H1S d  69       4.573  -4.307  11.547  0.00  0.00    -0.254 OA
ATOM     29  O29 H1S d  69       3.381   1.931   9.168  0.00  0.00    -0.296 OA
ATOM     30  C12 H1S d  69       6.148   0.631   7.367  0.00  0.00     0.135 C 
ATOM     31  C10 H1S d  69       4.778  -0.348  13.144  0.00  0.00     0.147 C 
ATOM     32  S16 H1S d  69       4.782  -5.051  12.804  0.00  0.00     0.251 S 
ATOM     33  C19 H1S d  69       5.540  -2.169   6.995  0.00  0.00     0.147 C 
ATOM     34  S26 H1S d  69       5.652   2.086   5.275  0.00  0.00     0.252 S 
ATOM     35  C27 H1S d  69       5.056  -3.583   6.642  0.00  0.00     0.233 C 
ATOM     36  H   H1S d  69       4.393  -0.686  15.152  0.00  0.00     0.212 HD
ATOM     37  H   H1S d  69       7.679   0.114   5.912  0.00  0.00     0.093 H 
ATOM     38  H   H1S d  69       0.762   1.522  11.057  0.00  0.00     0.231 HD
ATOM     39  H   H1S d  69       2.386   2.981  12.058  0.00  0.00     0.231 HD
ATOM     40  H   H1S d  69       4.123  -1.755  10.565  0.00  0.00     0.090 H 
ATOM     41  H   H1S d  69       5.383   1.174  10.155  0.00  0.00     0.089 H 
ATOM     42  H   H1S d  69       7.224   0.983  12.300  0.00  0.00     0.210 HD
ATOM     43  H   H1S d  69       8.044  -0.569   8.649  0.00  0.00     0.210 HD
ATOM     44  H   H1S d  69       3.459  -0.263  10.583  0.00  0.00     0.140 HD
ATOM     45  H   H1S d  69       6.847  -1.151  11.289  0.00  0.00     0.091 H 
ATOM     46  H   H1S d  69       7.384  -2.336   5.955  0.00  0.00     0.085 H 
ATOM     47  H   H1S d  69       4.560   0.457   8.749  0.00  0.00     0.134 H 
ATOM     48  H   H1S d  69       4.438   1.672  12.500  0.00  0.00     0.076 H 
ATOM     49  H   H1S d  69       6.467  -3.433  11.413  0.00  0.00     0.080 H 
ATOM     50  H   H1S d  69       5.584  -3.511   9.902  0.00  0.00     0.080 H 
ATOM     51  H   H1S d  69       3.028   2.706   8.702  0.00  0.00     0.231 HD
ATOM     52  H   H1S d  69       6.551   1.495   7.853  0.00  0.00     0.097 H 
ATOM     53  H   H1S d  69       5.811  -0.345  13.422  0.00  0.00     0.131 H 
ENDROOT
TORSDOF 16
ENDMDL
MODEL 4
REMARK VINA RESULT:      -6.3      2.337      7.943
REMARK  0 active torsions:
REMARK  status: ('A' for Active; 'I' for Inactive)
REMARK       I    between atoms: O15_1  and  C10_31 
REMARK       I    between atoms: C17_4  and  O25_18 
REMARK       I    between atoms: O28_6  and  S20_15 
REMARK       I    between atoms: O3_7  and  C1_22 
REMARK       I    between atoms: O3_7  and  C7_24 
REMARK       I    between atoms: O30_8  and  S20_15 
REMARK       I    between atoms: C2_10  and  C6_27 
REMARK       I    between atoms: O18_13  and  C12_30 
REMARK       I    between atoms: O18_13  and  S26_34 
REMARK       I    between atoms: S20_15  and  N14_20 
REMARK       I    between atoms: S20_15  and  O29_29 
REMARK       I    between atoms: C4_16  and  O9_17 
REMARK       I    between atoms: N14_20  and  C8_26 
REMARK       I    between atoms: C6_27  and  O11_28 
REMARK       I    between atoms: O11_28  and  S16_32 
REMARK       I    between atoms: C19_33  and  C27_35 
ROOT
ATOM      1  O15 H1S d  69       6.392  -5.993  13.353  0.00  0.00    -0.369 OA
ATOM      2  O22 H1S d  69       6.228  -4.006   8.665  0.00  0.00    -0.572 OA
ATOM      3  O31 H1S d  69       6.495   2.559  17.429  0.00  0.00    -0.572 OA
ATOM      4  C17 H1S d  69       6.581   2.289  13.581  0.00  0.00     0.086 C 
ATOM      5  O5  H1S d  69       5.541  -3.957  11.933  0.00  0.00    -0.350 OA
ATOM      6  O28 H1S d  69       2.889  -3.177  16.457  0.00  0.00    -0.296 OA
ATOM      7  O3  H1S d  69       6.286  -0.347  12.958  0.00  0.00    -0.348 OA
ATOM      8  O30 H1S d  69       5.085  -3.606  17.177  0.00  0.00    -0.296 OA
ATOM      9  O32 H1S d  69       5.719   4.320  15.952  0.00  0.00    -0.572 OA
ATOM     10  C2  H1S d  69       5.394  -2.476  11.912  0.00  0.00     0.091 C 
ATOM     11  O35 H1S d  69       2.481   1.078  10.988  0.00  0.00    -0.642 OA
ATOM     12  O13 H1S d  69       4.202   0.557  13.078  0.00  0.00    -0.311 OA
ATOM     13  O18 H1S d  69       5.069   2.004  15.504  0.00  0.00    -0.244 OA
ATOM     14  O21 H1S d  69       4.129  -5.174   9.081  0.00  0.00    -0.572 OA
ATOM     15  S20 H1S d  69       4.310  -2.908  16.151  0.00  0.00     0.156 S 
ATOM     16  C4  H1S d  69       6.808  -2.265  14.158  0.00  0.00     0.083 C 
ATOM     17  O9  H1S d  69       8.246  -2.297  14.433  0.00  0.00    -0.391 OA
ATOM     18  O25 H1S d  69       7.845   1.781  13.143  0.00  0.00    -0.389 OA
ATOM     19  O34 H1S d  69       3.635   2.872  10.370  0.00  0.00    -0.642 OA
ATOM     20  N14 H1S d  69       4.669  -3.339  14.609  0.00  0.00    -0.210 NA
ATOM     21  O33 H1S d  69       4.106   2.971  17.283  0.00  0.00    -0.572 OA
ATOM     22  C1  H1S d  69       6.510  -1.744  12.740  0.00  0.00     0.095 C 
ATOM     23  C24 H1S d  69       5.557   2.498  12.417  0.00  0.00    -0.034 C 
ATOM     24  C7  H1S d  69       5.326   0.149  13.930  0.00  0.00     0.167 C 
ATOM     25  O23 H1S d  69       4.160  -3.493   7.351  0.00  0.00    -0.572 OA
ATOM     26  C8  H1S d  69       6.106  -3.604  14.360  0.00  0.00     0.081 C 
ATOM     27  C6  H1S d  69       5.319  -1.980  10.459  0.00  0.00     0.067 C 
ATOM     28  O11 H1S d  69       4.364  -2.803   9.692  0.00  0.00    -0.254 OA
ATOM     29  O29 H1S d  69       4.558  -1.445  16.334  0.00  0.00    -0.296 OA
ATOM     30  C12 H1S d  69       6.014   1.320  14.653  0.00  0.00     0.135 C 
ATOM     31  C10 H1S d  69       6.347  -4.480  13.086  0.00  0.00     0.147 C 
ATOM     32  S16 H1S d  69       4.715  -3.845   8.708  0.00  0.00     0.251 S 
ATOM     33  C19 H1S d  69       4.445   1.634  12.247  0.00  0.00     0.147 C 
ATOM     34  S26 H1S d  69       5.368   2.986  16.537  0.00  0.00     0.252 S 
ATOM     35  C27 H1S d  69       3.442   1.882  11.111  0.00  0.00     0.233 C 
ATOM     36  H   H1S d  69       6.544  -6.464  12.519  0.00  0.00     0.212 HD
ATOM     37  H   H1S d  69       6.737   3.262  13.996  0.00  0.00     0.093 H 
ATOM     38  H   H1S d  69       2.708  -4.124  16.344  0.00  0.00     0.231 HD
ATOM     39  H   H1S d  69       4.949  -4.563  17.090  0.00  0.00     0.231 HD
ATOM     40  H   H1S d  69       4.474  -2.226  12.400  0.00  0.00     0.090 H 
ATOM     41  H   H1S d  69       6.411  -1.586  14.884  0.00  0.00     0.089 H 
ATOM     42  H   H1S d  69       8.680  -2.898  13.808  0.00  0.00     0.210 HD
ATOM     43  H   H1S d  69       7.725   0.897  12.763  0.00  0.00     0.210 HD
ATOM     44  H   H1S d  69       4.373  -2.584  13.991  0.00  0.00     0.140 HD
ATOM     45  H   H1S d  69       7.326  -1.952  12.079  0.00  0.00     0.091 H 
ATOM     46  H   H1S d  69       5.694   3.281  11.759  0.00  0.00     0.085 H 
ATOM     47  H   H1S d  69       4.993  -0.529  14.687  0.00  0.00     0.134 H 
ATOM     48  H   H1S d  69       6.491  -4.142  15.202  0.00  0.00     0.076 H 
ATOM     49  H   H1S d  69       6.288  -2.050  10.011  0.00  0.00     0.080 H 
ATOM     50  H   H1S d  69       4.990  -0.961  10.452  0.00  0.00     0.080 H 
ATOM     51  H   H1S d  69       4.346  -1.192  17.246  0.00  0.00     0.231 HD
ATOM     52  H   H1S d  69       6.810   0.957  15.269  0.00  0.00     0.097 H 
ATOM     53  H   H1S d  69       7.356  -4.364  12.751  0.00  0.00     0.131 H 
ENDROOT
TORSDOF 16
ENDMDL
MODEL 5
REMARK VINA RESULT:      -6.3      2.787      5.844
REMARK  0 active torsions:
REMARK  status: ('A' for Active; 'I' for Inactive)
REMARK       I    between atoms: O15_1  and  C10_31 
REMARK       I    between atoms: C17_4  and  O25_18 
REMARK       I    between atoms: O28_6  and  S20_15 
REMARK       I    between atoms: O3_7  and  C1_22 
REMARK       I    between atoms: O3_7  and  C7_24 
REMARK       I    between atoms: O30_8  and  S20_15 
REMARK       I    between atoms: C2_10  and  C6_27 
REMARK       I    between atoms: O18_13  and  C12_30 
REMARK       I    between atoms: O18_13  and  S26_34 
REMARK       I    between atoms: S20_15  and  N14_20 
REMARK       I    between atoms: S20_15  and  O29_29 
REMARK       I    between atoms: C4_16  and  O9_17 
REMARK       I    between atoms: N14_20  and  C8_26 
REMARK       I    between atoms: C6_27  and  O11_28 
REMARK       I    between atoms: O11_28  and  S16_32 
REMARK       I    between atoms: C19_33  and  C27_35 
ROOT
ATOM      1  O15 H1S d  69       7.447  -2.808  18.186  0.00  0.00    -0.369 OA
ATOM      2  O22 H1S d  69       9.625  -5.756  14.647  0.00  0.00    -0.572 OA
ATOM      3  O31 H1S d  69       3.577   2.878  11.670  0.00  0.00    -0.572 OA
ATOM      4  C17 H1S d  69       5.900   0.009  10.548  0.00  0.00     0.086 C 
ATOM      5  O5  H1S d  69       7.196  -3.745  15.748  0.00  0.00    -0.350 OA
ATOM      6  O28 H1S d  69       2.343  -1.765  16.546  0.00  0.00    -0.296 OA
ATOM      7  O3  H1S d  69       6.520  -1.435  12.774  0.00  0.00    -0.348 OA
ATOM      8  O30 H1S d  69       3.764  -0.044  17.282  0.00  0.00    -0.296 OA
ATOM      9  O32 H1S d  69       3.470   1.861   9.471  0.00  0.00    -0.572 OA
ATOM     10  C2  H1S d  69       6.810  -3.395  14.353  0.00  0.00     0.091 C 
ATOM     11  O35 H1S d  69       4.343  -4.743  10.603  0.00  0.00    -0.642 OA
ATOM     12  O13 H1S d  69       4.618  -2.324  11.898  0.00  0.00    -0.311 OA
ATOM     13  O18 H1S d  69       3.646   0.430  11.449  0.00  0.00    -0.244 OA
ATOM     14  O21 H1S d  69       7.933  -7.070  15.812  0.00  0.00    -0.572 OA
ATOM     15  S20 H1S d  69       3.600  -1.053  16.236  0.00  0.00     0.156 S 
ATOM     16  C4  H1S d  69       6.613  -0.822  15.011  0.00  0.00     0.083 C 
ATOM     17  O9  H1S d  69       7.609   0.236  15.191  0.00  0.00    -0.391 OA
ATOM     18  O25 H1S d  69       7.256   0.292  10.910  0.00  0.00    -0.389 OA
ATOM     19  O34 H1S d  69       5.277  -3.954   8.748  0.00  0.00    -0.642 OA
ATOM     20  N14 H1S d  69       4.851  -2.106  16.099  0.00  0.00    -0.210 NA
ATOM     21  O33 H1S d  69       1.677   1.458  11.149  0.00  0.00    -0.572 OA
ATOM     22  C1  H1S d  69       7.088  -1.888  14.006  0.00  0.00     0.095 C 
ATOM     23  C24 H1S d  69       5.710  -1.402   9.899  0.00  0.00    -0.034 C 
ATOM     24  C7  H1S d  69       5.104  -1.144  12.624  0.00  0.00     0.167 C 
ATOM     25  O23 H1S d  69       8.630  -7.812  13.624  0.00  0.00    -0.572 OA
ATOM     26  C8  H1S d  69       6.191  -1.506  16.308  0.00  0.00     0.081 C 
ATOM     27  C6  H1S d  69       7.489  -4.359  13.367  0.00  0.00     0.067 C 
ATOM     28  O11 H1S d  69       7.322  -5.752  13.827  0.00  0.00    -0.254 OA
ATOM     29  O29 H1S d  69       3.417  -0.322  14.945  0.00  0.00    -0.296 OA
ATOM     30  C12 H1S d  69       5.017   0.162  11.815  0.00  0.00     0.135 C 
ATOM     31  C10 H1S d  69       7.278  -2.569  16.677  0.00  0.00     0.147 C 
ATOM     32  S16 H1S d  69       8.363  -6.585  14.459  0.00  0.00     0.251 S 
ATOM     33  C19 H1S d  69       5.084  -2.461  10.605  0.00  0.00     0.147 C 
ATOM     34  S26 H1S d  69       3.108   1.672  10.912  0.00  0.00     0.252 S 
ATOM     35  C27 H1S d  69       4.887  -3.826   9.931  0.00  0.00     0.233 C 
ATOM     36  H   H1S d  69       8.136  -3.475  18.332  0.00  0.00     0.212 HD
ATOM     37  H   H1S d  69       5.603   0.707   9.794  0.00  0.00     0.093 H 
ATOM     38  H   H1S d  69       2.442  -2.247  17.382  0.00  0.00     0.231 HD
ATOM     39  H   H1S d  69       3.886  -0.483  18.139  0.00  0.00     0.231 HD
ATOM     40  H   H1S d  69       5.750  -3.512  14.262  0.00  0.00     0.090 H 
ATOM     41  H   H1S d  69       5.752  -0.318  14.623  0.00  0.00     0.089 H 
ATOM     42  H   H1S d  69       8.427  -0.147  15.543  0.00  0.00     0.210 HD
ATOM     43  H   H1S d  69       7.544  -0.332  11.594  0.00  0.00     0.210 HD
ATOM     44  H   H1S d  69       4.827  -2.509  15.162  0.00  0.00     0.140 HD
ATOM     45  H   H1S d  69       8.156  -1.948  13.993  0.00  0.00     0.091 H 
ATOM     46  H   H1S d  69       6.048  -1.565   8.938  0.00  0.00     0.085 H 
ATOM     47  H   H1S d  69       4.533  -0.994  13.516  0.00  0.00     0.134 H 
ATOM     48  H   H1S d  69       6.118  -0.818  17.124  0.00  0.00     0.076 H 
ATOM     49  H   H1S d  69       8.532  -4.129  13.307  0.00  0.00     0.080 H 
ATOM     50  H   H1S d  69       7.037  -4.251  12.403  0.00  0.00     0.080 H 
ATOM     51  H   H1S d  69       2.677   0.301  15.028  0.00  0.00     0.231 HD
ATOM     52  H   H1S d  69       5.368   0.984  12.403  0.00  0.00     0.097 H 
ATOM     53  H   H1S d  69       8.253  -2.173  16.485  0.00  0.00     0.131 H 
ENDROOT
TORSDOF 16
ENDMDL
MODEL 6
REMARK VINA RESULT:      -6.2      2.333      7.634
REMARK  0 active torsions:
REMARK  status: ('A' for Active; 'I' for Inactive)
REMARK       I    between atoms: O15_1  and  C10_31 
REMARK       I    between atoms: C17_4  and  O25_18 
REMARK       I    between atoms: O28_6  and  S20_15 
REMARK       I    between atoms: O3_7  and  C1_22 
REMARK       I    between atoms: O3_7  and  C7_24 
REMARK       I    between atoms: O30_8  and  S20_15 
REMARK       I    between atoms: C2_10  and  C6_27 
REMARK       I    between atoms: O18_13  and  C12_30 
REMARK       I    between atoms: O18_13  and  S26_34 
REMARK       I    between atoms: S20_15  and  N14_20 
REMARK       I    between atoms: S20_15  and  O29_29 
REMARK       I    between atoms: C4_16  and  O9_17 
REMARK       I    between atoms: N14_20  and  C8_26 
REMARK       I    between atoms: C6_27  and  O11_28 
REMARK       I    between atoms: O11_28  and  S16_32 
REMARK       I    between atoms: C19_33  and  C27_35 
ROOT
ATOM      1  O15 H1S d  69       6.220  -4.660  15.080  0.00  0.00    -0.369 OA
ATOM      2  O22 H1S d  69       6.396  -4.541   9.990  0.00  0.00    -0.572 OA
ATOM      3  O31 H1S d  69       6.101   4.792  15.716  0.00  0.00    -0.572 OA
ATOM      4  C17 H1S d  69       6.452   3.126  12.254  0.00  0.00     0.086 C 
ATOM      5  O5  H1S d  69       5.484  -3.307  12.956  0.00  0.00    -0.350 OA
ATOM      6  O28 H1S d  69       2.530  -0.967  16.686  0.00  0.00    -0.296 OA
ATOM      7  O3  H1S d  69       6.182   0.441  12.628  0.00  0.00    -0.348 OA
ATOM      8  O30 H1S d  69       4.668  -1.059  17.659  0.00  0.00    -0.296 OA
ATOM      9  O32 H1S d  69       5.443   5.871  13.646  0.00  0.00    -0.572 OA
ATOM     10  C2  H1S d  69       5.350  -1.940  12.381  0.00  0.00     0.091 C 
ATOM     11  O35 H1S d  69       2.534   0.969  10.020  0.00  0.00    -0.642 OA
ATOM     12  O13 H1S d  69       4.102   1.287  12.266  0.00  0.00    -0.311 OA
ATOM     13  O18 H1S d  69       4.808   3.540  14.041  0.00  0.00    -0.244 OA
ATOM     14  O21 H1S d  69       4.265  -5.514  10.666  0.00  0.00    -0.572 OA
ATOM     15  S20 H1S d  69       3.971  -0.802  16.399  0.00  0.00     0.156 S 
ATOM     16  C4  H1S d  69       6.606  -0.890  14.482  0.00  0.00     0.083 C 
ATOM     17  O9  H1S d  69       8.021  -0.793  14.845  0.00  0.00    -0.391 OA
ATOM     18  O25 H1S d  69       7.741   2.517  12.120  0.00  0.00    -0.389 OA
ATOM     19  O34 H1S d  69       3.741   2.432   8.864  0.00  0.00    -0.642 OA
ATOM     20  N14 H1S d  69       4.433  -1.764  15.152  0.00  0.00    -0.210 NA
ATOM     21  O33 H1S d  69       3.731   5.076  15.269  0.00  0.00    -0.572 OA
ATOM     22  C1  H1S d  69       6.411  -0.934  12.955  0.00  0.00     0.095 C 
ATOM     23  C24 H1S d  69       5.514   2.873  11.029  0.00  0.00    -0.034 C 
ATOM     24  C7  H1S d  69       5.161   1.242  13.281  0.00  0.00     0.167 C 
ATOM     25  O23 H1S d  69       4.429  -4.586   8.444  0.00  0.00    -0.572 OA
ATOM     26  C8  H1S d  69       5.882  -2.075  15.115  0.00  0.00     0.081 C 
ATOM     27  C6  H1S d  69       5.380  -2.014  10.847  0.00  0.00     0.067 C 
ATOM     28  O11 H1S d  69       4.475  -3.081  10.375  0.00  0.00    -0.254 OA
ATOM     29  O29 H1S d  69       4.216   0.630  16.046  0.00  0.00    -0.296 OA
ATOM     30  C12 H1S d  69       5.805   2.609  13.566  0.00  0.00     0.135 C 
ATOM     31  C10 H1S d  69       6.204  -3.353  14.273  0.00  0.00     0.147 C 
ATOM     32  S16 H1S d  69       4.886  -4.404   9.869  0.00  0.00     0.251 S 
ATOM     33  C19 H1S d  69       4.410   1.986  11.115  0.00  0.00     0.147 C 
ATOM     34  S26 H1S d  69       5.042   4.839  14.656  0.00  0.00     0.252 S 
ATOM     35  C27 H1S d  69       3.490   1.780   9.903  0.00  0.00     0.233 C 
ATOM     36  H   H1S d  69       6.426  -5.402  14.491  0.00  0.00     0.212 HD
ATOM     37  H   H1S d  69       6.587   4.187  12.291  0.00  0.00     0.093 H 
ATOM     38  H   H1S d  69       2.350  -1.891  16.918  0.00  0.00     0.231 HD
ATOM     39  H   H1S d  69       4.531  -1.984  17.922  0.00  0.00     0.231 HD
ATOM     40  H   H1S d  69       4.400  -1.546  12.680  0.00  0.00     0.090 H 
ATOM     41  H   H1S d  69       6.165   0.000  14.878  0.00  0.00     0.089 H 
ATOM     42  H   H1S d  69       8.493  -1.573  14.517  0.00  0.00     0.210 HD
ATOM     43  H   H1S d  69       7.640   1.552  12.085  0.00  0.00     0.210 HD
ATOM     44  H   H1S d  69       4.187  -1.295  14.280  0.00  0.00     0.140 HD
ATOM     45  H   H1S d  69       7.269  -1.355  12.474  0.00  0.00     0.091 H 
ATOM     46  H   H1S d  69       5.701   3.361  10.139  0.00  0.00     0.085 H 
ATOM     47  H   H1S d  69       4.771   0.884  14.211  0.00  0.00     0.134 H 
ATOM     48  H   H1S d  69       6.204  -2.257  16.119  0.00  0.00     0.076 H 
ATOM     49  H   H1S d  69       6.377  -2.227  10.522  0.00  0.00     0.080 H 
ATOM     50  H   H1S d  69       5.059  -1.077  10.443  0.00  0.00     0.080 H 
ATOM     51  H   H1S d  69       3.943   1.196  16.784  0.00  0.00     0.231 HD
ATOM     52  H   H1S d  69       6.554   2.513  14.325  0.00  0.00     0.097 H 
ATOM     53  H   H1S d  69       7.235  -3.350  13.987  0.00  0.00     0.131 H 
ENDROOT
TORSDOF 16
ENDMDL
MODEL 7
REMARK VINA RESULT:      -6.0      3.011      7.828
REMARK  0 active torsions:
REMARK  status: ('A' for Active; 'I' for Inactive)
REMARK       I    between atoms: O15_1  and  C10_31 
REMARK       I    between atoms: C17_4  and  O25_18 
REMARK       I    between atoms: O28_6  and  S20_15 
REMARK       I    between atoms: O3_7  and  C1_22 
REMARK       I    between atoms: O3_7  and  C7_24 
REMARK       I    between atoms: O30_8  and  S20_15 
REMARK       I    between atoms: C2_10  and  C6_27 
REMARK       I    between atoms: O18_13  and  C12_30 
REMARK       I    between atoms: O18_13  and  S26_34 
REMARK       I    between atoms: S20_15  and  N14_20 
REMARK       I    between atoms: S20_15  and  O29_29 
REMARK       I    between atoms: C4_16  and  O9_17 
REMARK       I    between atoms: N14_20  and  C8_26 
REMARK       I    between atoms: C6_27  and  O11_28 
REMARK       I    between atoms: O11_28  and  S16_32 
REMARK       I    between atoms: C19_33  and  C27_35 
ROOT
ATOM      1  O15 H1S d  69       5.877  -4.373  17.186  0.00  0.00    -0.369 OA
ATOM      2  O22 H1S d  69       6.396  -5.066  12.166  0.00  0.00    -0.572 OA
ATOM      3  O31 H1S d  69       6.444   5.049  16.369  0.00  0.00    -0.572 OA
ATOM      4  C17 H1S d  69       6.893   2.841  13.238  0.00  0.00     0.086 C 
ATOM      5  O5  H1S d  69       5.389  -3.324  14.831  0.00  0.00    -0.350 OA
ATOM      6  O28 H1S d  69       2.385  -0.238  17.925  0.00  0.00    -0.296 OA
ATOM      7  O3  H1S d  69       6.393   0.271  13.993  0.00  0.00    -0.348 OA
ATOM      8  O30 H1S d  69       4.440  -0.318  19.062  0.00  0.00    -0.296 OA
ATOM      9  O32 H1S d  69       6.009   5.831  14.115  0.00  0.00    -0.572 OA
ATOM     10  C2  H1S d  69       5.398  -2.058  14.047  0.00  0.00     0.091 C 
ATOM     11  O35 H1S d  69       2.975   0.622  11.062  0.00  0.00    -0.642 OA
ATOM     12  O13 H1S d  69       4.412   1.185  13.347  0.00  0.00    -0.311 OA
ATOM     13  O18 H1S d  69       5.172   3.637  14.809  0.00  0.00    -0.244 OA
ATOM     14  O21 H1S d  69       4.156  -5.778  12.815  0.00  0.00    -0.572 OA
ATOM     15  S20 H1S d  69       3.849  -0.216  17.727  0.00  0.00     0.156 S 
ATOM     16  C4  H1S d  69       6.590  -0.778  16.054  0.00  0.00     0.083 C 
ATOM     17  O9  H1S d  69       7.982  -0.717  16.506  0.00  0.00    -0.391 OA
ATOM     18  O25 H1S d  69       8.137   2.134  13.297  0.00  0.00    -0.389 OA
ATOM     19  O34 H1S d  69       4.365   1.803   9.794  0.00  0.00    -0.642 OA
ATOM     20  N14 H1S d  69       4.317  -1.390  16.680  0.00  0.00    -0.210 NA
ATOM     21  O33 H1S d  69       4.138   5.414  15.703  0.00  0.00    -0.572 OA
ATOM     22  C1  H1S d  69       6.493  -1.047  14.541  0.00  0.00     0.095 C 
ATOM     23  C24 H1S d  69       6.021   2.461  11.996  0.00  0.00    -0.034 C 
ATOM     24  C7  H1S d  69       5.395   1.230  14.436  0.00  0.00     0.167 C 
ATOM     25  O23 H1S d  69       4.537  -5.224  10.498  0.00  0.00    -0.572 OA
ATOM     26  C8  H1S d  69       5.738  -1.797  16.802  0.00  0.00     0.081 C 
ATOM     27  C6  H1S d  69       5.523  -2.375  12.549  0.00  0.00     0.067 C 
ATOM     28  O11 H1S d  69       4.571  -3.440  12.175  0.00  0.00    -0.254 OA
ATOM     29  O29 H1S d  69       4.227   1.123  17.181  0.00  0.00    -0.296 OA
ATOM     30  C12 H1S d  69       6.124   2.580  14.559  0.00  0.00     0.135 C 
ATOM     31  C10 H1S d  69       6.015  -3.211  16.191  0.00  0.00     0.147 C 
ATOM     32  S16 H1S d  69       4.912  -4.851  11.910  0.00  0.00     0.251 S 
ATOM     33  C19 H1S d  69       4.849   1.673  12.131  0.00  0.00     0.147 C 
ATOM     34  S26 H1S d  69       5.464   4.999  15.236  0.00  0.00     0.252 S 
ATOM     35  C27 H1S d  69       3.997   1.341  10.897  0.00  0.00     0.233 C 
ATOM     36  H   H1S d  69       6.064  -5.210  16.734  0.00  0.00     0.212 HD
ATOM     37  H   H1S d  69       7.106   3.883  13.123  0.00  0.00     0.093 H 
ATOM     38  H   H1S d  69       2.120  -1.101  18.279  0.00  0.00     0.231 HD
ATOM     39  H   H1S d  69       4.216  -1.178  19.450  0.00  0.00     0.231 HD
ATOM     40  H   H1S d  69       4.464  -1.561  14.208  0.00  0.00     0.090 H 
ATOM     41  H   H1S d  69       6.194   0.191  16.275  0.00  0.00     0.089 H 
ATOM     42  H   H1S d  69       8.413  -1.569  16.337  0.00  0.00     0.210 HD
ATOM     43  H   H1S d  69       7.965   1.185  13.401  0.00  0.00     0.210 HD
ATOM     44  H   H1S d  69       4.166  -1.049  15.731  0.00  0.00     0.140 HD
ATOM     45  H   H1S d  69       7.346  -1.594  14.197  0.00  0.00     0.091 H 
ATOM     46  H   H1S d  69       6.303   2.790  11.060  0.00  0.00     0.085 H 
ATOM     47  H   H1S d  69       4.919   1.049  15.377  0.00  0.00     0.134 H 
ATOM     48  H   H1S d  69       5.977  -1.841  17.844  0.00  0.00     0.076 H 
ATOM     49  H   H1S d  69       6.520  -2.701  12.338  0.00  0.00     0.080 H 
ATOM     50  H   H1S d  69       5.302  -1.493  11.984  0.00  0.00     0.080 H 
ATOM     51  H   H1S d  69       3.950   1.815  17.802  0.00  0.00     0.231 HD
ATOM     52  H   H1S d  69       6.811   2.555  15.379  0.00  0.00     0.097 H 
ATOM     53  H   H1S d  69       7.060  -3.320  15.988  0.00  0.00     0.131 H 
ENDROOT
TORSDOF 16
ENDMDL
MODEL 8
REMARK VINA RESULT:      -5.9      2.709      7.253
REMARK  0 active torsions:
REMARK  status: ('A' for Active; 'I' for Inactive)
REMARK       I    between atoms: O15_1  and  C10_31 
REMARK       I    between atoms: C17_4  and  O25_18 
REMARK       I    between atoms: O28_6  and  S20_15 
REMARK       I    between atoms: O3_7  and  C1_22 
REMARK       I    between atoms: O3_7  and  C7_24 
REMARK       I    between atoms: O30_8  and  S20_15 
REMARK       I    between atoms: C2_10  and  C6_27 
REMARK       I    between atoms: O18_13  and  C12_30 
REMARK       I    between atoms: O18_13  and  S26_34 
REMARK       I    between atoms: S20_15  and  N14_20 
REMARK       I    between atoms: S20_15  and  O29_29 
REMARK       I    between atoms: C4_16  and  O9_17 
REMARK       I    between atoms: N14_20  and  C8_26 
REMARK       I    between atoms: C6_27  and  O11_28 
REMARK       I    between atoms: O11_28  and  S16_32 
REMARK       I    between atoms: C19_33  and  C27_35 
ROOT
ATOM      1  O15 H1S d  69       4.979  -2.830   8.711  0.00  0.00    -0.369 OA
ATOM      2  O22 H1S d  69       3.794   1.986   9.878  0.00  0.00    -0.572 OA
ATOM      3  O31 H1S d  69       9.174  -4.269  17.084  0.00  0.00    -0.572 OA
ATOM      4  C17 H1S d  69       7.804  -0.766  16.223  0.00  0.00     0.086 C 
ATOM      5  O5  H1S d  69       4.359  -1.207  10.678  0.00  0.00    -0.350 OA
ATOM      6  O28 H1S d  69       3.865  -5.905  13.085  0.00  0.00    -0.296 OA
ATOM      7  O3  H1S d  69       6.503  -0.980  13.839  0.00  0.00    -0.348 OA
ATOM      8  O30 H1S d  69       5.922  -6.079  11.963  0.00  0.00    -0.296 OA
ATOM      9  O32 H1S d  69       8.515  -2.647  18.762  0.00  0.00    -0.572 OA
ATOM     10  C2  H1S d  69       4.683  -0.831  12.082  0.00  0.00     0.091 C 
ATOM     11  O35 H1S d  69       2.893   0.173  16.295  0.00  0.00    -0.642 OA
ATOM     12  O13 H1S d  69       4.989  -1.422  15.478  0.00  0.00    -0.311 OA
ATOM     13  O18 H1S d  69       7.062  -3.034  16.831  0.00  0.00    -0.244 OA
ATOM     14  O21 H1S d  69       1.726   0.709   9.678  0.00  0.00    -0.572 OA
ATOM     15  S20 H1S d  69       5.093  -5.159  12.742  0.00  0.00     0.156 S 
ATOM     16  C4  H1S d  69       6.791  -2.458  12.072  0.00  0.00     0.083 C 
ATOM     17  O9  H1S d  69       8.147  -2.324  11.534  0.00  0.00    -0.391 OA
ATOM     18  O25 H1S d  69       8.606  -0.149  15.211  0.00  0.00    -0.389 OA
ATOM     19  O34 H1S d  69       4.251   1.542  17.397  0.00  0.00    -0.642 OA
ATOM     20  N14 H1S d  69       4.730  -3.752  11.979  0.00  0.00    -0.210 NA
ATOM     21  O33 H1S d  69       7.143  -4.682  18.350  0.00  0.00    -0.572 OA
ATOM     22  C1  H1S d  69       6.189  -1.091  12.447  0.00  0.00     0.095 C 
ATOM     23  C24 H1S d  69       6.555   0.083  16.629  0.00  0.00    -0.034 C 
ATOM     24  C7  H1S d  69       6.154  -2.008  14.805  0.00  0.00     0.167 C 
ATOM     25  O23 H1S d  69       1.665   2.766  10.938  0.00  0.00    -0.572 OA
ATOM     26  C8  H1S d  69       5.827  -3.197  11.150  0.00  0.00     0.081 C 
ATOM     27  C6  H1S d  69       4.258   0.622  12.343  0.00  0.00     0.067 C 
ATOM     28  O11 H1S d  69       2.888   0.846  11.841  0.00  0.00    -0.254 OA
ATOM     29  O29 H1S d  69       5.832  -4.866  14.008  0.00  0.00    -0.296 OA
ATOM     30  C12 H1S d  69       7.382  -2.171  15.718  0.00  0.00     0.135 C 
ATOM     31  C10 H1S d  69       5.316  -2.190  10.067  0.00  0.00     0.147 C 
ATOM     32  S16 H1S d  69       2.525   1.572  10.609  0.00  0.00     0.251 S 
ATOM     33  C19 H1S d  69       5.245  -0.299  16.241  0.00  0.00     0.147 C 
ATOM     34  S26 H1S d  69       7.997  -3.641  17.769  0.00  0.00     0.252 S 
ATOM     35  C27 H1S d  69       4.035   0.540  16.679  0.00  0.00     0.233 C 
ATOM     36  H   H1S d  69       4.672  -2.144   8.098  0.00  0.00     0.212 HD
ATOM     37  H   H1S d  69       8.392  -0.844  17.113  0.00  0.00     0.093 H 
ATOM     38  H   H1S d  69       3.370  -6.105  12.275  0.00  0.00     0.231 HD
ATOM     39  H   H1S d  69       5.474  -6.293  11.130  0.00  0.00     0.231 HD
ATOM     40  H   H1S d  69       4.123  -1.468  12.734  0.00  0.00     0.090 H 
ATOM     41  H   H1S d  69       6.910  -3.055  12.952  0.00  0.00     0.089 H 
ATOM     42  H   H1S d  69       8.122  -1.789  10.726  0.00  0.00     0.210 HD
ATOM     43  H   H1S d  69       8.090  -0.069  14.393  0.00  0.00     0.210 HD
ATOM     44  H   H1S d  69       4.485  -3.060  12.686  0.00  0.00     0.140 HD
ATOM     45  H   H1S d  69       6.610  -0.312  11.846  0.00  0.00     0.091 H 
ATOM     46  H   H1S d  69       6.686   0.938  17.191  0.00  0.00     0.085 H 
ATOM     47  H   H1S d  69       5.918  -2.981  14.429  0.00  0.00     0.134 H 
ATOM     48  H   H1S d  69       6.297  -4.012  10.640  0.00  0.00     0.076 H 
ATOM     49  H   H1S d  69       4.932   1.284  11.840  0.00  0.00     0.080 H 
ATOM     50  H   H1S d  69       4.282   0.811  13.396  0.00  0.00     0.080 H 
ATOM     51  H   H1S d  69       6.046  -5.699  14.457  0.00  0.00     0.231 HD
ATOM     52  H   H1S d  69       8.189  -2.618  15.176  0.00  0.00     0.097 H 
ATOM     53  H   H1S d  69       6.123  -1.571   9.736  0.00  0.00     0.131 H 
ENDROOT
TORSDOF 16
ENDMDL
MODEL 9
REMARK VINA RESULT:      -5.9      2.198      7.481
REMARK  0 active torsions:
REMARK  status: ('A' for Active; 'I' for Inactive)
REMARK       I    between atoms: O15_1  and  C10_31 
REMARK       I    between atoms: C17_4  and  O25_18 
REMARK       I    between atoms: O28_6  and  S20_15 
REMARK       I    between atoms: O3_7  and  C1_22 
REMARK       I    between atoms: O3_7  and  C7_24 
REMARK       I    between atoms: O30_8  and  S20_15 
REMARK       I    between atoms: C2_10  and  C6_27 
REMARK       I    between atoms: O18_13  and  C12_30 
REMARK       I    between atoms: O18_13  and  S26_34 
REMARK       I    between atoms: S20_15  and  N14_20 
REMARK       I    between atoms: S20_15  and  O29_29 
REMARK       I    between atoms: C4_16  and  O9_17 
REMARK       I    between atoms: N14_20  and  C8_26 
REMARK       I    between atoms: C6_27  and  O11_28 
REMARK       I    between atoms: O11_28  and  S16_32 
REMARK       I    between atoms: C19_33  and  C27_35 
ROOT
ATOM      1  O15 H1S d  69       7.246  -4.114  12.520  0.00  0.00    -0.369 OA
ATOM      2  O22 H1S d  69       5.899  -4.162   7.607  0.00  0.00    -0.572 OA
ATOM      3  O31 H1S d  69       5.863   5.231  13.242  0.00  0.00    -0.572 OA
ATOM      4  C17 H1S d  69       5.435   3.507   9.817  0.00  0.00     0.086 C 
ATOM      5  O5  H1S d  69       5.719  -2.967  10.721  0.00  0.00    -0.350 OA
ATOM      6  O28 H1S d  69       3.668  -0.956  15.177  0.00  0.00    -0.296 OA
ATOM      7  O3  H1S d  69       5.703   0.828  10.232  0.00  0.00    -0.348 OA
ATOM      8  O30 H1S d  69       5.984  -0.691  15.473  0.00  0.00    -0.296 OA
ATOM      9  O32 H1S d  69       4.468   6.120  11.468  0.00  0.00    -0.572 OA
ATOM     10  C2  H1S d  69       5.213  -1.658  10.223  0.00  0.00     0.091 C 
ATOM     11  O35 H1S d  69       1.414   0.704   8.825  0.00  0.00    -0.642 OA
ATOM     12  O13 H1S d  69       3.504   1.338  10.509  0.00  0.00    -0.311 OA
ATOM     13  O18 H1S d  69       4.344   3.737  12.014  0.00  0.00    -0.244 OA
ATOM     14  O21 H1S d  69       4.237  -5.417   8.875  0.00  0.00    -0.572 OA
ATOM     15  S20 H1S d  69       4.917  -0.589  14.478  0.00  0.00     0.156 S 
ATOM     16  C4  H1S d  69       6.853  -0.354  11.866  0.00  0.00     0.083 C 
ATOM     17  O9  H1S d  69       8.280  -0.032  11.794  0.00  0.00    -0.391 OA
ATOM     18  O25 H1S d  69       6.704   3.093   9.302  0.00  0.00    -0.389 OA
ATOM     19  O34 H1S d  69       1.987   2.287   7.376  0.00  0.00    -0.642 OA
ATOM     20  N14 H1S d  69       5.135  -1.517  13.142  0.00  0.00    -0.210 NA
ATOM     21  O33 H1S d  69       3.453   5.140  13.519  0.00  0.00    -0.572 OA
ATOM     22  C1  H1S d  69       6.227  -0.484  10.465  0.00  0.00     0.095 C 
ATOM     23  C24 H1S d  69       4.228   3.070   8.923  0.00  0.00    -0.034 C 
ATOM     24  C7  H1S d  69       4.808   1.491  11.164  0.00  0.00     0.167 C 
ATOM     25  O23 H1S d  69       3.595  -4.560   6.713  0.00  0.00    -0.572 OA
ATOM     26  C8  H1S d  69       6.539  -1.608  12.675  0.00  0.00     0.081 C 
ATOM     27  C6  H1S d  69       4.802  -1.785   8.748  0.00  0.00     0.067 C 
ATOM     28  O11 H1S d  69       3.974  -2.992   8.556  0.00  0.00    -0.254 OA
ATOM     29  O29 H1S d  69       4.824   0.849  14.080  0.00  0.00    -0.296 OA
ATOM     30  C12 H1S d  69       5.289   2.949  11.258  0.00  0.00     0.135 C 
ATOM     31  C10 H1S d  69       6.793  -2.855  11.764  0.00  0.00     0.147 C 
ATOM     32  S16 H1S d  69       4.417  -4.258   7.940  0.00  0.00     0.251 S 
ATOM     33  C19 H1S d  69       3.349   2.032   9.324  0.00  0.00     0.147 C 
ATOM     34  S26 H1S d  69       4.546   5.079  12.543  0.00  0.00     0.252 S 
ATOM     35  C27 H1S d  69       2.157   1.645   8.437  0.00  0.00     0.233 C 
ATOM     36  H   H1S d  69       7.382  -4.838  11.890  0.00  0.00     0.212 HD
ATOM     37  H   H1S d  69       5.408   4.576   9.821  0.00  0.00     0.093 H 
ATOM     38  H   H1S d  69       3.709  -1.888  15.444  0.00  0.00     0.231 HD
ATOM     39  H   H1S d  69       6.075  -1.615  15.756  0.00  0.00     0.231 HD
ATOM     40  H   H1S d  69       4.344  -1.400  10.792  0.00  0.00     0.090 H 
ATOM     41  H   H1S d  69       6.416   0.475  12.382  0.00  0.00     0.089 H 
ATOM     42  H   H1S d  69       8.749  -0.744  11.334  0.00  0.00     0.210 HD
ATOM     43  H   H1S d  69       6.748   2.124   9.291  0.00  0.00     0.210 HD
ATOM     44  H   H1S d  69       4.574  -1.124  12.386  0.00  0.00     0.140 HD
ATOM     45  H   H1S d  69       6.960  -0.789   9.747  0.00  0.00     0.091 H 
ATOM     46  H   H1S d  69       4.068   3.547   8.022  0.00  0.00     0.085 H 
ATOM     47  H   H1S d  69       4.769   1.114  12.165  0.00  0.00     0.134 H 
ATOM     48  H   H1S d  69       7.165  -1.703  13.537  0.00  0.00     0.076 H 
ATOM     49  H   H1S d  69       5.680  -1.859   8.141  0.00  0.00     0.080 H 
ATOM     50  H   H1S d  69       4.236  -0.922   8.465  0.00  0.00     0.080 H 
ATOM     51  H   H1S d  69       4.695   1.396  14.871  0.00  0.00     0.231 HD
ATOM     52  H   H1S d  69       6.233   2.995  11.760  0.00  0.00     0.097 H 
ATOM     53  H   H1S d  69       7.681  -2.708  11.186  0.00  0.00     0.131 H 
ENDROOT
TORSDOF 16
ENDMDL
MODEL 10
REMARK VINA RESULT:      -5.9      2.437      8.051
REMARK  0 active torsions:
REMARK  status: ('A' for Active; 'I' for Inactive)
REMARK       I    between atoms: O15_1  and  C10_31 
REMARK       I    between atoms: C17_4  and  O25_18 
REMARK       I    between atoms: O28_6  and  S20_15 
REMARK       I    between atoms: O3_7  and  C1_22 
REMARK       I    between atoms: O3_7  and  C7_24 
REMARK       I    between atoms: O30_8  and  S20_15 
REMARK       I    between atoms: C2_10  and  C6_27 
REMARK       I    between atoms: O18_13  and  C12_30 
REMARK       I    between atoms: O18_13  and  S26_34 
REMARK       I    between atoms: S20_15  and  N14_20 
REMARK       I    between atoms: S20_15  and  O29_29 
REMARK       I    between atoms: C4_16  and  O9_17 
REMARK       I    between atoms: N14_20  and  C8_26 
REMARK       I    between atoms: C6_27  and  O11_28 
REMARK       I    between atoms: O11_28  and  S16_32 
REMARK       I    between atoms: C19_33  and  C27_35 
ROOT
ATOM      1  O15 H1S d  69       5.903  -4.775  14.298  0.00  0.00    -0.369 OA
ATOM      2  O22 H1S d  69       6.606  -3.526   9.409  0.00  0.00    -0.572 OA
ATOM      3  O31 H1S d  69       6.404   4.257  17.115  0.00  0.00    -0.572 OA
ATOM      4  C17 H1S d  69       6.986   3.391  13.400  0.00  0.00     0.086 C 
ATOM      5  O5  H1S d  69       5.488  -2.914  12.496  0.00  0.00    -0.350 OA
ATOM      6  O28 H1S d  69       2.346  -1.210  16.413  0.00  0.00    -0.296 OA
ATOM      7  O3  H1S d  69       6.485   0.729  13.112  0.00  0.00    -0.348 OA
ATOM      8  O30 H1S d  69       4.361  -1.721  17.510  0.00  0.00    -0.296 OA
ATOM      9  O32 H1S d  69       6.041   5.833  15.307  0.00  0.00    -0.572 OA
ATOM     10  C2  H1S d  69       5.512  -1.445  12.247  0.00  0.00     0.091 C 
ATOM     11  O35 H1S d  69       3.170   2.173  10.407  0.00  0.00    -0.642 OA
ATOM     12  O13 H1S d  69       4.519   1.826  12.787  0.00  0.00    -0.311 OA
ATOM     13  O18 H1S d  69       5.202   3.543  15.092  0.00  0.00    -0.244 OA
ATOM     14  O21 H1S d  69       4.352  -4.421   9.660  0.00  0.00    -0.572 OA
ATOM     15  S20 H1S d  69       3.816  -1.121  16.291  0.00  0.00     0.156 S 
ATOM     16  C4  H1S d  69       6.620  -1.021  14.631  0.00  0.00     0.083 C 
ATOM     17  O9  H1S d  69       7.994  -1.141  15.123  0.00  0.00    -0.391 OA
ATOM     18  O25 H1S d  69       8.234   2.710  13.234  0.00  0.00    -0.389 OA
ATOM     19  O34 H1S d  69       4.591   3.739   9.729  0.00  0.00    -0.642 OA
ATOM     20  N14 H1S d  69       4.333  -1.815  14.897  0.00  0.00    -0.210 NA
ATOM     21  O33 H1S d  69       4.119   4.856  16.552  0.00  0.00    -0.572 OA
ATOM     22  C1  H1S d  69       6.579  -0.699  13.126  0.00  0.00     0.095 C 
ATOM     23  C24 H1S d  69       6.161   3.511  12.076  0.00  0.00    -0.034 C 
ATOM     24  C7  H1S d  69       5.463   1.454  13.847  0.00  0.00     0.167 C 
ATOM     25  O23 H1S d  69       4.809  -3.035   7.738  0.00  0.00    -0.572 OA
ATOM     26  C8  H1S d  69       5.752  -2.244  14.908  0.00  0.00     0.081 C 
ATOM     27  C6  H1S d  69       5.693  -1.174  10.746  0.00  0.00     0.067 C 
ATOM     28  O11 H1S d  69       4.766  -2.016   9.964  0.00  0.00    -0.254 OA
ATOM     29  O29 H1S d  69       4.200   0.324  16.305  0.00  0.00    -0.296 OA
ATOM     30  C12 H1S d  69       6.173   2.654  14.497  0.00  0.00     0.135 C 
ATOM     31  C10 H1S d  69       6.065  -3.324  13.820  0.00  0.00     0.147 C 
ATOM     32  S16 H1S d  69       5.130  -3.224   9.199  0.00  0.00     0.251 S 
ATOM     33  C19 H1S d  69       4.993   2.735  11.861  0.00  0.00     0.147 C 
ATOM     34  S26 H1S d  69       5.466   4.642  16.011  0.00  0.00     0.252 S 
ATOM     35  C27 H1S d  69       4.189   2.896  10.563  0.00  0.00     0.233 C 
ATOM     36  H   H1S d  69       6.114  -5.381  13.570  0.00  0.00     0.212 HD
ATOM     37  H   H1S d  69       7.192   4.399  13.694  0.00  0.00     0.093 H 
ATOM     38  H   H1S d  69       2.077  -2.142  16.406  0.00  0.00     0.231 HD
ATOM     39  H   H1S d  69       4.131  -2.663  17.537  0.00  0.00     0.231 HD
ATOM     40  H   H1S d  69       4.568  -1.042  12.551  0.00  0.00     0.090 H 
ATOM     41  H   H1S d  69       6.206  -0.205  15.187  0.00  0.00     0.089 H 
ATOM     42  H   H1S d  69       8.440  -1.868  14.662  0.00  0.00     0.210 HD
ATOM     43  H   H1S d  69       8.068   1.792  12.966  0.00  0.00     0.210 HD
ATOM     44  H   H1S d  69       4.211  -1.140  14.142  0.00  0.00     0.140 HD
ATOM     45  H   H1S d  69       7.449  -1.079  12.632  0.00  0.00     0.091 H 
ATOM     46  H   H1S d  69       6.473   4.168  11.344  0.00  0.00     0.085 H 
ATOM     47  H   H1S d  69       4.955   0.933  14.632  0.00  0.00     0.134 H 
ATOM     48  H   H1S d  69       5.955  -2.679  15.865  0.00  0.00     0.076 H 
ATOM     49  H   H1S d  69       6.700  -1.400  10.464  0.00  0.00     0.080 H 
ATOM     50  H   H1S d  69       5.484  -0.143  10.548  0.00  0.00     0.080 H 
ATOM     51  H   H1S d  69       3.894   0.732  17.130  0.00  0.00     0.231 HD
ATOM     52  H   H1S d  69       6.831   2.319  15.271  0.00  0.00     0.097 H 
ATOM     53  H   H1S d  69       7.117  -3.353  13.629  0.00  0.00     0.131 H 
ENDROOT
TORSDOF 16
ENDMDL
MODEL 11
REMARK VINA RESULT:      -5.8      2.498      3.634
REMARK  0 active torsions:
REMARK  status: ('A' for Active; 'I' for Inactive)
REMARK       I    between atoms: O15_1  and  C10_31 
REMARK       I    between atoms: C17_4  and  O25_18 
REMARK       I    between atoms: O28_6  and  S20_15 
REMARK       I    between atoms: O3_7  and  C1_22 
REMARK       I    between atoms: O3_7  and  C7_24 
REMARK       I    between atoms: O30_8  and  S20_15 
REMARK       I    between atoms: C2_10  and  C6_27 
REMARK       I    between atoms: O18_13  and  C12_30 
REMARK       I    between atoms: O18_13  and  S26_34 
REMARK       I    between atoms: S20_15  and  N14_20 
REMARK       I    between atoms: S20_15  and  O29_29 
REMARK       I    between atoms: C4_16  and  O9_17 
REMARK       I    between atoms: N14_20  and  C8_26 
REMARK       I    between atoms: C6_27  and  O11_28 
REMARK       I    between atoms: O11_28  and  S16_32 
REMARK       I    between atoms: C19_33  and  C27_35 
ROOT
ATOM      1  O15 H1S d  69       5.135   5.167  12.277  0.00  0.00    -0.369 OA
ATOM      2  O22 H1S d  69       6.456   4.187  17.099  0.00  0.00    -0.572 OA
ATOM      3  O31 H1S d  69       6.243  -3.879   9.691  0.00  0.00    -0.572 OA
ATOM      4  C17 H1S d  69       7.113  -2.815  13.296  0.00  0.00     0.086 C 
ATOM      5  O5  H1S d  69       5.094   3.347  14.167  0.00  0.00    -0.350 OA
ATOM      6  O28 H1S d  69       1.753   1.196  10.657  0.00  0.00    -0.296 OA
ATOM      7  O3  H1S d  69       6.381  -0.204  13.557  0.00  0.00    -0.348 OA
ATOM      8  O30 H1S d  69       3.584   1.854   9.338  0.00  0.00    -0.296 OA
ATOM      9  O32 H1S d  69       6.226  -5.410  11.573  0.00  0.00    -0.572 OA
ATOM     10  C2  H1S d  69       5.290   1.899  14.455  0.00  0.00     0.091 C 
ATOM     11  O35 H1S d  69       3.521  -1.851  16.639  0.00  0.00    -0.642 OA
ATOM     12  O13 H1S d  69       4.578  -1.471  14.120  0.00  0.00    -0.311 OA
ATOM     13  O18 H1S d  69       5.189  -3.205  11.808  0.00  0.00    -0.244 OA
ATOM     14  O21 H1S d  69       4.110   4.851  17.062  0.00  0.00    -0.572 OA
ATOM     15  S20 H1S d  69       3.230   1.253  10.625  0.00  0.00     0.156 S 
ATOM     16  C4  H1S d  69       6.185   1.489  11.981  0.00  0.00     0.083 C 
ATOM     17  O9  H1S d  69       7.482   1.721  11.343  0.00  0.00    -0.391 OA
ATOM     18  O25 H1S d  69       8.297  -2.010  13.309  0.00  0.00    -0.389 OA
ATOM     19  O34 H1S d  69       5.153  -3.246  17.208  0.00  0.00    -0.642 OA
ATOM     20  N14 H1S d  69       3.814   2.048  11.935  0.00  0.00    -0.210 NA
ATOM     21  O33 H1S d  69       4.099  -4.672  10.510  0.00  0.00    -0.572 OA
ATOM     22  C1  H1S d  69       6.330   1.225  13.491  0.00  0.00     0.095 C 
ATOM     23  C24 H1S d  69       6.444  -2.961  14.703  0.00  0.00    -0.034 C 
ATOM     24  C7  H1S d  69       5.367  -1.052  12.956  0.00  0.00     0.167 C 
ATOM     25  O23 H1S d  69       4.896   3.592  18.964  0.00  0.00    -0.572 OA
ATOM     26  C8  H1S d  69       5.175   2.611  11.761  0.00  0.00     0.081 C 
ATOM     27  C6  H1S d  69       5.650   1.707  15.936  0.00  0.00     0.067 C 
ATOM     28  O11 H1S d  69       4.728   2.486  16.786  0.00  0.00    -0.254 OA
ATOM     29  O29 H1S d  69       3.752  -0.148  10.614  0.00  0.00    -0.296 OA
ATOM     30  C12 H1S d  69       6.122  -2.204  12.270  0.00  0.00     0.135 C 
ATOM     31  C10 H1S d  69       5.488   3.758  12.778  0.00  0.00     0.147 C 
ATOM     32  S16 H1S d  69       5.046   3.753  17.473  0.00  0.00     0.251 S 
ATOM     33  C19 H1S d  69       5.233  -2.293  15.017  0.00  0.00     0.147 C 
ATOM     34  S26 H1S d  69       5.466  -4.309  10.899  0.00  0.00     0.252 S 
ATOM     35  C27 H1S d  69       4.586  -2.479  16.398  0.00  0.00     0.233 C 
ATOM     36  H   H1S d  69       5.358   5.819  12.961  0.00  0.00     0.212 HD
ATOM     37  H   H1S d  69       7.388  -3.809  13.011  0.00  0.00     0.093 H 
ATOM     38  H   H1S d  69       1.395   2.097  10.665  0.00  0.00     0.231 HD
ATOM     39  H   H1S d  69       3.260   2.768   9.308  0.00  0.00     0.231 HD
ATOM     40  H   H1S d  69       4.365   1.395  14.266  0.00  0.00     0.090 H 
ATOM     41  H   H1S d  69       5.800   0.616  11.496  0.00  0.00     0.089 H 
ATOM     42  H   H1S d  69       7.898   2.505  11.733  0.00  0.00     0.210 HD
ATOM     43  H   H1S d  69       8.068  -1.103  13.566  0.00  0.00     0.210 HD
ATOM     44  H   H1S d  69       3.838   1.396  12.719  0.00  0.00     0.140 HD
ATOM     45  H   H1S d  69       7.204   1.706  13.878  0.00  0.00     0.091 H 
ATOM     46  H   H1S d  69       6.894  -3.555  15.417  0.00  0.00     0.085 H 
ATOM     47  H   H1S d  69       4.732  -0.614  12.214  0.00  0.00     0.134 H 
ATOM     48  H   H1S d  69       5.234   3.025  10.776  0.00  0.00     0.076 H 
ATOM     49  H   H1S d  69       6.653   2.040  16.103  0.00  0.00     0.080 H 
ATOM     50  H   H1S d  69       5.566   0.669  16.186  0.00  0.00     0.080 H 
ATOM     51  H   H1S d  69       3.405  -0.616   9.837  0.00  0.00     0.231 HD
ATOM     52  H   H1S d  69       6.661  -1.838  11.421  0.00  0.00     0.097 H 
ATOM     53  H   H1S d  69       6.546   3.896  12.856  0.00  0.00     0.131 H 
ENDROOT
TORSDOF 16
ENDMDL
MODEL 12
REMARK VINA RESULT:      -5.7      2.240      7.909
REMARK  0 active torsions:
REMARK  status: ('A' for Active; 'I' for Inactive)
REMARK       I    between atoms: O15_1  and  C10_31 
REMARK       I    between atoms: C17_4  and  O25_18 
REMARK       I    between atoms: O28_6  and  S20_15 
REMARK       I    between atoms: O3_7  and  C1_22 
REMARK       I    between atoms: O3_7  and  C7_24 
REMARK       I    between atoms: O30_8  and  S20_15 
REMARK       I    between atoms: C2_10  and  C6_27 
REMARK       I    between atoms: O18_13  and  C12_30 
REMARK       I    between atoms: O18_13  and  S26_34 
REMARK       I    between atoms: S20_15  and  N14_20 
REMARK       I    between atoms: S20_15  and  O29_29 
REMARK       I    between atoms: C4_16  and  O9_17 
REMARK       I    between atoms: N14_20  and  C8_26 
REMARK       I    between atoms: C6_27  and  O11_28 
REMARK       I    between atoms: O11_28  and  S16_32 
REMARK       I    between atoms: C19_33  and  C27_35 
ROOT
ATOM      1  O15 H1S d  69       4.499  -7.701   9.793  0.00  0.00    -0.369 OA
ATOM      2  O22 H1S d  69       6.499  -4.079   6.820  0.00  0.00    -0.572 OA
ATOM      3  O31 H1S d  69       6.305  -2.801  17.697  0.00  0.00    -0.572 OA
ATOM      4  C17 H1S d  69       7.480  -1.415  14.294  0.00  0.00     0.086 C 
ATOM      5  O5  H1S d  69       4.895  -5.118   9.559  0.00  0.00    -0.350 OA
ATOM      6  O28 H1S d  69       1.419  -5.223  13.561  0.00  0.00    -0.296 OA
ATOM      7  O3  H1S d  69       6.494  -3.074  12.371  0.00  0.00    -0.348 OA
ATOM      8  O30 H1S d  69       2.989  -6.867  14.157  0.00  0.00    -0.296 OA
ATOM      9  O32 H1S d  69       6.690  -0.443  17.281  0.00  0.00    -0.572 OA
ATOM     10  C2  H1S d  69       5.288  -3.884  10.295  0.00  0.00     0.091 C 
ATOM     11  O35 H1S d  69       4.235   0.615  11.076  0.00  0.00    -0.642 OA
ATOM     12  O13 H1S d  69       4.928  -1.467  12.746  0.00  0.00    -0.311 OA
ATOM     13  O18 H1S d  69       5.447  -1.765  15.639  0.00  0.00    -0.244 OA
ATOM     14  O21 H1S d  69       4.106  -4.211   6.372  0.00  0.00    -0.572 OA
ATOM     15  S20 H1S d  69       2.864  -5.531  13.574  0.00  0.00     0.156 S 
ATOM     16  C4  H1S d  69       5.916  -5.321  12.447  0.00  0.00     0.083 C 
ATOM     17  O9  H1S d  69       7.092  -6.120  12.799  0.00  0.00    -0.391 OA
ATOM     18  O25 H1S d  69       8.558  -2.202  13.777  0.00  0.00    -0.389 OA
ATOM     19  O34 H1S d  69       6.072   1.753  11.589  0.00  0.00    -0.642 OA
ATOM     20  N14 H1S d  69       3.510  -5.376  12.073  0.00  0.00    -0.210 NA
ATOM     21  O33 H1S d  69       4.381  -1.327  17.562  0.00  0.00    -0.572 OA
ATOM     22  C1  H1S d  69       6.273  -4.175  11.483  0.00  0.00     0.095 C 
ATOM     23  C24 H1S d  69       7.008  -0.289  13.316  0.00  0.00    -0.034 C 
ATOM     24  C7  H1S d  69       5.516  -2.661  13.364  0.00  0.00     0.167 C 
ATOM     25  O23 H1S d  69       5.256  -2.175   5.775  0.00  0.00    -0.572 OA
ATOM     26  C8  H1S d  69       4.766  -6.133  11.859  0.00  0.00     0.081 C 
ATOM     27  C6  H1S d  69       5.845  -2.845   9.310  0.00  0.00     0.067 C 
ATOM     28  O11 H1S d  69       4.951  -2.726   8.141  0.00  0.00    -0.254 OA
ATOM     29  O29 H1S d  69       3.537  -4.579  14.510  0.00  0.00    -0.296 OA
ATOM     30  C12 H1S d  69       6.309  -2.368  14.650  0.00  0.00     0.135 C 
ATOM     31  C10 H1S d  69       5.069  -6.386  10.345  0.00  0.00     0.147 C 
ATOM     32  S16 H1S d  69       5.204  -3.281   6.798  0.00  0.00     0.251 S 
ATOM     33  C19 H1S d  69       5.776  -0.384  12.620  0.00  0.00     0.147 C 
ATOM     34  S26 H1S d  69       5.734  -1.573  17.054  0.00  0.00     0.252 S 
ATOM     35  C27 H1S d  69       5.327   0.752  11.688  0.00  0.00     0.233 C 
ATOM     36  H   H1S d  69       4.729  -7.784   8.853  0.00  0.00     0.212 HD
ATOM     37  H   H1S d  69       7.829  -0.902  15.165  0.00  0.00     0.093 H 
ATOM     38  H   H1S d  69       0.964  -5.832  12.958  0.00  0.00     0.231 HD
ATOM     39  H   H1S d  69       2.563  -7.516  13.574  0.00  0.00     0.231 HD
ATOM     40  H   H1S d  69       4.410  -3.477  10.753  0.00  0.00     0.090 H 
ATOM     41  H   H1S d  69       5.577  -4.919  13.379  0.00  0.00     0.089 H 
ATOM     42  H   H1S d  69       7.460  -6.522  11.997  0.00  0.00     0.210 HD
ATOM     43  H   H1S d  69       8.261  -2.676  12.984  0.00  0.00     0.210 HD
ATOM     44  H   H1S d  69       3.703  -4.388  11.910  0.00  0.00     0.140 HD
ATOM     45  H   H1S d  69       7.127  -4.429  10.890  0.00  0.00     0.091 H 
ATOM     46  H   H1S d  69       7.605   0.541  13.175  0.00  0.00     0.085 H 
ATOM     47  H   H1S d  69       4.751  -3.361  13.626  0.00  0.00     0.134 H 
ATOM     48  H   H1S d  69       4.659  -7.087  12.332  0.00  0.00     0.076 H 
ATOM     49  H   H1S d  69       6.816  -3.152   8.983  0.00  0.00     0.080 H 
ATOM     50  H   H1S d  69       5.910  -1.896   9.801  0.00  0.00     0.080 H 
ATOM     51  H   H1S d  69       3.154  -4.673  15.397  0.00  0.00     0.231 HD
ATOM     52  H   H1S d  69       6.695  -3.278  15.060  0.00  0.00     0.097 H 
ATOM     53  H   H1S d  69       6.106  -6.613  10.215  0.00  0.00     0.131 H 
ENDROOT
TORSDOF 16
ENDMDL
MODEL 13
REMARK VINA RESULT:      -5.7      2.228      7.675
REMARK  0 active torsions:
REMARK  status: ('A' for Active; 'I' for Inactive)
REMARK       I    between atoms: O15_1  and  C10_31 
REMARK       I    between atoms: C17_4  and  O25_18 
REMARK       I    between atoms: O28_6  and  S20_15 
REMARK       I    between atoms: O3_7  and  C1_22 
REMARK       I    between atoms: O3_7  and  C7_24 
REMARK       I    between atoms: O30_8  and  S20_15 
REMARK       I    between atoms: C2_10  and  C6_27 
REMARK       I    between atoms: O18_13  and  C12_30 
REMARK       I    between atoms: O18_13  and  S26_34 
REMARK       I    between atoms: S20_15  and  N14_20 
REMARK       I    between atoms: S20_15  and  O29_29 
REMARK       I    between atoms: C4_16  and  O9_17 
REMARK       I    between atoms: N14_20  and  C8_26 
REMARK       I    between atoms: C6_27  and  O11_28 
REMARK       I    between atoms: O11_28  and  S16_32 
REMARK       I    between atoms: C19_33  and  C27_35 
ROOT
ATOM      1  O15 H1S d  69       6.820  -6.637  11.195  0.00  0.00    -0.369 OA
ATOM      2  O22 H1S d  69       5.682  -4.607   6.663  0.00  0.00    -0.572 OA
ATOM      3  O31 H1S d  69       7.388   1.866  15.333  0.00  0.00    -0.572 OA
ATOM      4  C17 H1S d  69       6.741   1.642  11.536  0.00  0.00     0.086 C 
ATOM      5  O5  H1S d  69       5.636  -4.622  10.002  0.00  0.00    -0.350 OA
ATOM      6  O28 H1S d  69       3.878  -3.999  14.966  0.00  0.00    -0.296 OA
ATOM      7  O3  H1S d  69       6.430  -0.997  10.933  0.00  0.00    -0.348 OA
ATOM      8  O30 H1S d  69       6.186  -4.348  15.242  0.00  0.00    -0.296 OA
ATOM      9  O32 H1S d  69       6.278   3.611  14.065  0.00  0.00    -0.572 OA
ATOM     10  C2  H1S d  69       5.432  -3.147  10.037  0.00  0.00     0.091 C 
ATOM     11  O35 H1S d  69       2.266   0.297   9.756  0.00  0.00    -0.642 OA
ATOM     12  O13 H1S d  69       4.376  -0.178  11.467  0.00  0.00    -0.311 OA
ATOM     13  O18 H1S d  69       5.640   1.275  13.708  0.00  0.00    -0.244 OA
ATOM     14  O21 H1S d  69       3.747  -5.863   7.453  0.00  0.00    -0.572 OA
ATOM     15  S20 H1S d  69       5.202  -3.670  14.397  0.00  0.00     0.156 S 
ATOM     16  C4  H1S d  69       7.244  -2.905  11.974  0.00  0.00     0.083 C 
ATOM     17  O9  H1S d  69       8.708  -2.883  11.966  0.00  0.00    -0.391 OA
ATOM     18  O25 H1S d  69       7.916   1.190  10.853  0.00  0.00    -0.389 OA
ATOM     19  O34 H1S d  69       3.212   2.143   8.962  0.00  0.00    -0.642 OA
ATOM     20  N14 H1S d  69       5.274  -4.069  12.808  0.00  0.00    -0.210 NA
ATOM     21  O33 H1S d  69       5.002   2.183  15.656  0.00  0.00    -0.572 OA
ATOM     22  C1  H1S d  69       6.659  -2.381  10.649  0.00  0.00     0.095 C 
ATOM     23  C24 H1S d  69       5.506   1.823  10.594  0.00  0.00    -0.034 C 
ATOM     24  C7  H1S d  69       5.657  -0.550  12.079  0.00  0.00     0.167 C 
ATOM     25  O23 H1S d  69       3.382  -4.162   5.781  0.00  0.00    -0.572 OA
ATOM     26  C8  H1S d  69       6.645  -4.273  12.282  0.00  0.00     0.081 C 
ATOM     27  C6  H1S d  69       5.061  -2.639   8.636  0.00  0.00     0.067 C 
ATOM     28  O11 H1S d  69       4.008  -3.491   8.051  0.00  0.00    -0.254 OA
ATOM     29  O29 H1S d  69       5.427  -2.200  14.556  0.00  0.00    -0.296 OA
ATOM     30  C12 H1S d  69       6.428   0.640  12.678  0.00  0.00     0.135 C 
ATOM     31  C10 H1S d  69       6.668  -5.125  10.969  0.00  0.00     0.147 C 
ATOM     32  S16 H1S d  69       4.201  -4.507   6.999  0.00  0.00     0.251 S 
ATOM     33  C19 H1S d  69       4.415   0.917  10.625  0.00  0.00     0.147 C 
ATOM     34  S26 H1S d  69       6.096   2.258  14.681  0.00  0.00     0.252 S 
ATOM     35  C27 H1S d  69       3.203   1.137   9.708  0.00  0.00     0.233 C 
ATOM     36  H   H1S d  69       6.826  -7.093  10.338  0.00  0.00     0.212 HD
ATOM     37  H   H1S d  69       6.939   2.616  11.931  0.00  0.00     0.093 H 
ATOM     38  H   H1S d  69       3.714  -4.950  14.872  0.00  0.00     0.231 HD
ATOM     39  H   H1S d  69       6.071  -5.308  15.165  0.00  0.00     0.231 HD
ATOM     40  H   H1S d  69       4.616  -2.940  10.697  0.00  0.00     0.090 H 
ATOM     41  H   H1S d  69       6.970  -2.251  12.775  0.00  0.00     0.089 H 
ATOM     42  H   H1S d  69       9.036  -3.459  11.259  0.00  0.00     0.210 HD
ATOM     43  H   H1S d  69       7.757   0.306  10.487  0.00  0.00     0.210 HD
ATOM     44  H   H1S d  69       4.837  -3.320  12.271  0.00  0.00     0.140 HD
ATOM     45  H   H1S d  69       7.340  -2.548   9.840  0.00  0.00     0.091 H 
ATOM     46  H   H1S d  69       5.484   2.618   9.937  0.00  0.00     0.085 H 
ATOM     47  H   H1S d  69       5.502  -1.249  12.874  0.00  0.00     0.134 H 
ATOM     48  H   H1S d  69       7.204  -4.804  13.024  0.00  0.00     0.076 H 
ATOM     49  H   H1S d  69       5.927  -2.666   8.008  0.00  0.00     0.080 H 
ATOM     50  H   H1S d  69       4.699  -1.634   8.711  0.00  0.00     0.080 H 
ATOM     51  H   H1S d  69       5.385  -1.966  15.497  0.00  0.00     0.231 HD
ATOM     52  H   H1S d  69       7.340   0.301  13.123  0.00  0.00     0.097 H 
ATOM     53  H   H1S d  69       7.589  -4.965  10.449  0.00  0.00     0.131 H 
ENDROOT
TORSDOF 16
ENDMDL
MODEL 14
REMARK VINA RESULT:      -5.5      2.387      3.200
REMARK  0 active torsions:
REMARK  status: ('A' for Active; 'I' for Inactive)
REMARK       I    between atoms: O15_1  and  C10_31 
REMARK       I    between atoms: C17_4  and  O25_18 
REMARK       I    between atoms: O28_6  and  S20_15 
REMARK       I    between atoms: O3_7  and  C1_22 
REMARK       I    between atoms: O3_7  and  C7_24 
REMARK       I    between atoms: O30_8  and  S20_15 
REMARK       I    between atoms: C2_10  and  C6_27 
REMARK       I    between atoms: O18_13  and  C12_30 
REMARK       I    between atoms: O18_13  and  S26_34 
REMARK       I    between atoms: S20_15  and  N14_20 
REMARK       I    between atoms: S20_15  and  O29_29 
REMARK       I    between atoms: C4_16  and  O9_17 
REMARK       I    between atoms: N14_20  and  C8_26 
REMARK       I    between atoms: C6_27  and  O11_28 
REMARK       I    between atoms: O11_28  and  S16_32 
REMARK       I    between atoms: C19_33  and  C27_35 
ROOT
ATOM      1  O15 H1S d  69       3.794   6.123  11.220  0.00  0.00    -0.369 OA
ATOM      2  O22 H1S d  69       6.393   4.701  15.365  0.00  0.00    -0.572 OA
ATOM      3  O31 H1S d  69       5.680  -2.005   6.734  0.00  0.00    -0.572 OA
ATOM      4  C17 H1S d  69       7.221  -1.354  10.210  0.00  0.00     0.086 C 
ATOM      5  O5  H1S d  69       4.510   4.065  12.681  0.00  0.00    -0.350 OA
ATOM      6  O28 H1S d  69       0.805   1.847   9.605  0.00  0.00    -0.296 OA
ATOM      7  O3  H1S d  69       6.164   0.984  11.127  0.00  0.00    -0.348 OA
ATOM      8  O30 H1S d  69       2.127   3.056   8.084  0.00  0.00    -0.296 OA
ATOM      9  O32 H1S d  69       6.370  -3.778   8.238  0.00  0.00    -0.572 OA
ATOM     10  C2  H1S d  69       5.001   2.659  12.631  0.00  0.00     0.091 C 
ATOM     11  O35 H1S d  69       4.448  -1.661  14.360  0.00  0.00    -0.642 OA
ATOM     12  O13 H1S d  69       4.782  -0.693  11.799  0.00  0.00    -0.311 OA
ATOM     13  O18 H1S d  69       5.081  -1.891   9.116  0.00  0.00    -0.244 OA
ATOM     14  O21 H1S d  69       4.034   4.875  15.956  0.00  0.00    -0.572 OA
ATOM     15  S20 H1S d  69       2.199   2.206   9.273  0.00  0.00     0.156 S 
ATOM     16  C4  H1S d  69       5.318   2.824   9.992  0.00  0.00     0.083 C 
ATOM     17  O9  H1S d  69       6.366   3.409   9.153  0.00  0.00    -0.391 OA
ATOM     18  O25 H1S d  69       8.226  -0.338  10.130  0.00  0.00    -0.389 OA
ATOM     19  O34 H1S d  69       6.373  -2.767  14.286  0.00  0.00    -0.642 OA
ATOM     20  N14 H1S d  69       2.950   2.892  10.560  0.00  0.00    -0.210 NA
ATOM     21  O33 H1S d  69       3.958  -3.332   7.816  0.00  0.00    -0.572 OA
ATOM     22  C1  H1S d  69       5.869   2.366  11.355  0.00  0.00     0.095 C 
ATOM     23  C24 H1S d  69       6.949  -1.846  11.670  0.00  0.00    -0.034 C 
ATOM     24  C7  H1S d  69       5.184   0.050  10.600  0.00  0.00     0.167 C 
ATOM     25  O23 H1S d  69       5.454   3.524  17.364  0.00  0.00    -0.572 OA
ATOM     26  C8  H1S d  69       4.118   3.738  10.216  0.00  0.00     0.081 C 
ATOM     27  C6  H1S d  69       5.738   2.318  13.935  0.00  0.00     0.067 C 
ATOM     28  O11 H1S d  69       4.939   2.755  15.097  0.00  0.00    -0.254 OA
ATOM     29  O29 H1S d  69       2.921   0.958   8.877  0.00  0.00    -0.296 OA
ATOM     30  C12 H1S d  69       5.924  -0.805   9.557  0.00  0.00     0.135 C 
ATOM     31  C10 H1S d  69       4.482   4.755  11.348  0.00  0.00     0.147 C 
ATOM     32  S16 H1S d  69       5.207   3.939  15.936  0.00  0.00     0.251 S 
ATOM     33  C19 H1S d  69       5.760  -1.493  12.358  0.00  0.00     0.147 C 
ATOM     34  S26 H1S d  69       5.301  -2.763   7.970  0.00  0.00     0.252 S 
ATOM     35  C27 H1S d  69       5.508  -2.016  13.780  0.00  0.00     0.233 C 
ATOM     36  H   H1S d  69       4.069   6.693  11.955  0.00  0.00     0.212 HD
ATOM     37  H   H1S d  69       7.574  -2.216   9.684  0.00  0.00     0.093 H 
ATOM     38  H   H1S d  69       0.318   2.645   9.865  0.00  0.00     0.231 HD
ATOM     39  H   H1S d  69       1.662   3.879   8.303  0.00  0.00     0.231 HD
ATOM     40  H   H1S d  69       4.152   2.014  12.546  0.00  0.00     0.090 H 
ATOM     41  H   H1S d  69       4.972   1.976   9.438  0.00  0.00     0.089 H 
ATOM     42  H   H1S d  69       6.732   4.191   9.592  0.00  0.00     0.210 HD
ATOM     43  H   H1S d  69       7.924   0.454  10.602  0.00  0.00     0.210 HD
ATOM     44  H   H1S d  69       3.270   2.145  11.177  0.00  0.00     0.140 HD
ATOM     45  H   H1S d  69       6.722   2.949  11.636  0.00  0.00     0.091 H 
ATOM     46  H   H1S d  69       7.649  -2.439  12.141  0.00  0.00     0.085 H 
ATOM     47  H   H1S d  69       4.325   0.460  10.109  0.00  0.00     0.134 H 
ATOM     48  H   H1S d  69       3.868   4.302   9.341  0.00  0.00     0.076 H 
ATOM     49  H   H1S d  69       6.684   2.818  13.948  0.00  0.00     0.080 H 
ATOM     50  H   H1S d  69       5.886   1.260  13.988  0.00  0.00     0.080 H 
ATOM     51  H   H1S d  69       2.476   0.555   8.115  0.00  0.00     0.231 HD
ATOM     52  H   H1S d  69       6.173  -0.212   8.702  0.00  0.00     0.097 H 
ATOM     53  H   H1S d  69       5.490   5.090  11.226  0.00  0.00     0.131 H 
ENDROOT
TORSDOF 16
ENDMDL
MODEL 15
REMARK VINA RESULT:      -5.5      2.259      3.079
REMARK  0 active torsions:
REMARK  status: ('A' for Active; 'I' for Inactive)
REMARK       I    between atoms: O15_1  and  C10_31 
REMARK       I    between atoms: C17_4  and  O25_18 
REMARK       I    between atoms: O28_6  and  S20_15 
REMARK       I    between atoms: O3_7  and  C1_22 
REMARK       I    between atoms: O3_7  and  C7_24 
REMARK       I    between atoms: O30_8  and  S20_15 
REMARK       I    between atoms: C2_10  and  C6_27 
REMARK       I    between atoms: O18_13  and  C12_30 
REMARK       I    between atoms: O18_13  and  S26_34 
REMARK       I    between atoms: S20_15  and  N14_20 
REMARK       I    between atoms: S20_15  and  O29_29 
REMARK       I    between atoms: C4_16  and  O9_17 
REMARK       I    between atoms: N14_20  and  C8_26 
REMARK       I    between atoms: C6_27  and  O11_28 
REMARK       I    between atoms: O11_28  and  S16_32 
REMARK       I    between atoms: C19_33  and  C27_35 
ROOT
ATOM      1  O15 H1S d  69       4.610   5.361  11.750  0.00  0.00    -0.369 OA
ATOM      2  O22 H1S d  69       6.425   4.192  16.365  0.00  0.00    -0.572 OA
ATOM      3  O31 H1S d  69       6.268  -3.355   8.427  0.00  0.00    -0.572 OA
ATOM      4  C17 H1S d  69       7.352  -2.454  12.018  0.00  0.00     0.086 C 
ATOM      5  O5  H1S d  69       4.891   3.425  13.499  0.00  0.00    -0.350 OA
ATOM      6  O28 H1S d  69       1.457   1.210  10.121  0.00  0.00    -0.296 OA
ATOM      7  O3  H1S d  69       6.423   0.056  12.528  0.00  0.00    -0.348 OA
ATOM      8  O30 H1S d  69       3.103   2.119   8.710  0.00  0.00    -0.296 OA
ATOM      9  O32 H1S d  69       6.547  -5.001  10.186  0.00  0.00    -0.572 OA
ATOM     10  C2  H1S d  69       5.236   1.986  13.663  0.00  0.00     0.091 C 
ATOM     11  O35 H1S d  69       3.994  -2.048  15.701  0.00  0.00    -0.642 OA
ATOM     12  O13 H1S d  69       4.792  -1.407  13.140  0.00  0.00    -0.311 OA
ATOM     13  O18 H1S d  69       5.348  -2.921  10.665  0.00  0.00    -0.244 OA
ATOM     14  O21 H1S d  69       4.036   4.637  16.565  0.00  0.00    -0.572 OA
ATOM     15  S20 H1S d  69       2.915   1.405   9.974  0.00  0.00     0.156 S 
ATOM     16  C4  H1S d  69       5.945   1.823  11.101  0.00  0.00     0.083 C 
ATOM     17  O9  H1S d  69       7.157   2.216  10.380  0.00  0.00    -0.391 OA
ATOM     18  O25 H1S d  69       8.459  -1.546  11.995  0.00  0.00    -0.389 OA
ATOM     19  O34 H1S d  69       5.784  -3.320  16.033  0.00  0.00    -0.642 OA
ATOM     20  N14 H1S d  69       3.540   2.163  11.288  0.00  0.00    -0.210 NA
ATOM     21  O33 H1S d  69       4.280  -4.394   9.355  0.00  0.00    -0.572 OA
ATOM     22  C1  H1S d  69       6.243   1.475  12.571  0.00  0.00     0.095 C 
ATOM     23  C24 H1S d  69       6.823  -2.753  13.459  0.00  0.00    -0.034 C 
ATOM     24  C7  H1S d  69       5.437  -0.841  11.950  0.00  0.00     0.167 C 
ATOM     25  O23 H1S d  69       5.090   3.334  18.301  0.00  0.00    -0.572 OA
ATOM     26  C8  H1S d  69       4.826   2.859  11.047  0.00  0.00     0.081 C 
ATOM     27  C6  H1S d  69       5.739   1.730  15.092  0.00  0.00     0.067 C 
ATOM     28  O11 H1S d  69       4.830   2.363  16.068  0.00  0.00    -0.254 OA
ATOM     29  O29 H1S d  69       3.553   0.063   9.818  0.00  0.00    -0.296 OA
ATOM     30  C12 H1S d  69       6.227  -1.871  11.123  0.00  0.00     0.135 C 
ATOM     31  C10 H1S d  69       5.127   3.961  12.116  0.00  0.00     0.147 C 
ATOM     32  S16 H1S d  69       5.095   3.606  16.818  0.00  0.00     0.251 S 
ATOM     33  C19 H1S d  69       5.591  -2.222  13.919  0.00  0.00     0.147 C 
ATOM     34  S26 H1S d  69       5.639  -3.932   9.658  0.00  0.00     0.252 S 
ATOM     35  C27 H1S d  69       5.084  -2.557  15.329  0.00  0.00     0.233 C 
ATOM     36  H   H1S d  69       4.835   5.984  12.459  0.00  0.00     0.212 HD
ATOM     37  H   H1S d  69       7.686  -3.397  11.640  0.00  0.00     0.093 H 
ATOM     38  H   H1S d  69       1.024   2.072  10.223  0.00  0.00     0.231 HD
ATOM     39  H   H1S d  69       2.700   3.000   8.773  0.00  0.00     0.231 HD
ATOM     40  H   H1S d  69       4.345   1.411  13.512  0.00  0.00     0.090 H 
ATOM     41  H   H1S d  69       5.596   0.952  10.586  0.00  0.00     0.089 H 
ATOM     42  H   H1S d  69       7.536   3.007  10.792  0.00  0.00     0.210 HD
ATOM     43  H   H1S d  69       8.176  -0.683  12.335  0.00  0.00     0.210 HD
ATOM     44  H   H1S d  69       3.688   1.465  12.017  0.00  0.00     0.140 HD
ATOM     45  H   H1S d  69       7.102   2.008  12.921  0.00  0.00     0.091 H 
ATOM     46  H   H1S d  69       7.383  -3.349  14.089  0.00  0.00     0.085 H 
ATOM     47  H   H1S d  69       4.705  -0.416  11.295  0.00  0.00     0.134 H 
ATOM     48  H   H1S d  69       4.764   3.341  10.093  0.00  0.00     0.076 H 
ATOM     49  H   H1S d  69       6.719   2.142  15.202  0.00  0.00     0.080 H 
ATOM     50  H   H1S d  69       5.766   0.675  15.271  0.00  0.00     0.080 H 
ATOM     51  H   H1S d  69       3.182  -0.383   9.040  0.00  0.00     0.231 HD
ATOM     52  H   H1S d  69       6.656  -1.402  10.262  0.00  0.00     0.097 H 
ATOM     53  H   H1S d  69       6.172   4.191  12.118  0.00  0.00     0.131 H 
ENDROOT
TORSDOF 16
ENDMDL
MODEL 16
REMARK VINA RESULT:      -5.4      2.623      3.748
REMARK  0 active torsions:
REMARK  status: ('A' for Active; 'I' for Inactive)
REMARK       I    between atoms: O15_1  and  C10_31 
REMARK       I    between atoms: C17_4  and  O25_18 
REMARK       I    between atoms: O28_6  and  S20_15 
REMARK       I    between atoms: O3_7  and  C1_22 
REMARK       I    between atoms: O3_7  and  C7_24 
REMARK       I    between atoms: O30_8  and  S20_15 
REMARK       I    between atoms: C2_10  and  C6_27 
REMARK       I    between atoms: O18_13  and  C12_30 
REMARK       I    between atoms: O18_13  and  S26_34 
REMARK       I    between atoms: S20_15  and  N14_20 
REMARK       I    between atoms: S20_15  and  O29_29 
REMARK       I    between atoms: C4_16  and  O9_17 
REMARK       I    between atoms: N14_20  and  C8_26 
REMARK       I    between atoms: C6_27  and  O11_28 
REMARK       I    between atoms: O11_28  and  S16_32 
REMARK       I    between atoms: C19_33  and  C27_35 
ROOT
ATOM      1  O15 H1S d  69       6.002   4.488  11.113  0.00  0.00    -0.369 OA
ATOM      2  O22 H1S d  69       6.377   4.273  16.189  0.00  0.00    -0.572 OA
ATOM      3  O31 H1S d  69       6.720  -4.918  10.241  0.00  0.00    -0.572 OA
ATOM      4  C17 H1S d  69       7.046  -3.304  13.730  0.00  0.00     0.086 C 
ATOM      5  O5  H1S d  69       5.472   3.026  13.227  0.00  0.00    -0.350 OA
ATOM      6  O28 H1S d  69       2.607   0.508   9.543  0.00  0.00    -0.296 OA
ATOM      7  O3  H1S d  69       6.519  -0.648  13.435  0.00  0.00    -0.348 OA
ATOM      8  O30 H1S d  69       4.690   0.819   8.499  0.00  0.00    -0.296 OA
ATOM      9  O32 H1S d  69       6.240  -6.099  12.305  0.00  0.00    -0.572 OA
ATOM     10  C2  H1S d  69       5.483   1.640  13.771  0.00  0.00     0.091 C 
ATOM     11  O35 H1S d  69       3.033  -1.566  16.154  0.00  0.00    -0.642 OA
ATOM     12  O13 H1S d  69       4.539  -1.689  13.847  0.00  0.00    -0.311 OA
ATOM     13  O18 H1S d  69       5.381  -3.828  11.992  0.00  0.00    -0.244 OA
ATOM     14  O21 H1S d  69       4.142   5.061  15.614  0.00  0.00    -0.572 OA
ATOM     15  S20 H1S d  69       4.066   0.471   9.776  0.00  0.00     0.156 S 
ATOM     16  C4  H1S d  69       6.751   0.758  11.602  0.00  0.00     0.083 C 
ATOM     17  O9  H1S d  69       8.155   0.798  11.187  0.00  0.00    -0.391 OA
ATOM     18  O25 H1S d  69       8.278  -2.582  13.835  0.00  0.00    -0.389 OA
ATOM     19  O34 H1S d  69       4.410  -2.937  17.230  0.00  0.00    -0.642 OA
ATOM     20  N14 H1S d  69       4.485   1.442  11.030  0.00  0.00    -0.210 NA
ATOM     21  O33 H1S d  69       4.404  -5.428  10.763  0.00  0.00    -0.572 OA
ATOM     22  C1  H1S d  69       6.610   0.749  13.135  0.00  0.00     0.095 C 
ATOM     23  C24 H1S d  69       6.134  -3.166  14.994  0.00  0.00    -0.034 C 
ATOM     24  C7  H1S d  69       5.551  -1.524  12.798  0.00  0.00     0.167 C 
ATOM     25  O23 H1S d  69       4.472   4.103  17.804  0.00  0.00    -0.572 OA
ATOM     26  C8  H1S d  69       5.900   1.884  11.024  0.00  0.00     0.081 C 
ATOM     27  C6  H1S d  69       5.564   1.683  15.305  0.00  0.00     0.067 C 
ATOM     28  O11 H1S d  69       4.583   2.651  15.835  0.00  0.00    -0.254 OA
ATOM     29  O29 H1S d  69       4.454  -0.940  10.084  0.00  0.00    -0.296 OA
ATOM     30  C12 H1S d  69       6.307  -2.820  12.455  0.00  0.00     0.135 C 
ATOM     31  C10 H1S d  69       6.136   3.168  11.888  0.00  0.00     0.147 C 
ATOM     32  S16 H1S d  69       4.890   3.996  16.359  0.00  0.00     0.251 S 
ATOM     33  C19 H1S d  69       4.952  -2.382  14.969  0.00  0.00     0.147 C 
ATOM     34  S26 H1S d  69       5.710  -5.086  11.336  0.00  0.00     0.252 S 
ATOM     35  C27 H1S d  69       4.062  -2.289  16.217  0.00  0.00     0.233 C 
ATOM     36  H   H1S d  69       6.162   5.233  11.714  0.00  0.00     0.212 HD
ATOM     37  H   H1S d  69       7.275  -4.347  13.662  0.00  0.00     0.093 H 
ATOM     38  H   H1S d  69       2.336   1.418   9.342  0.00  0.00     0.231 HD
ATOM     39  H   H1S d  69       4.460   1.732   8.265  0.00  0.00     0.231 HD
ATOM     40  H   H1S d  69       4.563   1.167  13.495  0.00  0.00     0.090 H 
ATOM     41  H   H1S d  69       6.379  -0.161  11.199  0.00  0.00     0.089 H 
ATOM     42  H   H1S d  69       8.566   1.611  11.519  0.00  0.00     0.210 HD
ATOM     43  H   H1S d  69       8.091  -1.632  13.898  0.00  0.00     0.210 HD
ATOM     44  H   H1S d  69       4.314   0.934  11.898  0.00  0.00     0.140 HD
ATOM     45  H   H1S d  69       7.443   1.236  13.597  0.00  0.00     0.091 H 
ATOM     46  H   H1S d  69       6.398  -3.654  15.863  0.00  0.00     0.085 H 
ATOM     47  H   H1S d  69       5.096  -1.183  11.891  0.00  0.00     0.134 H 
ATOM     48  H   H1S d  69       6.166   2.118  10.015  0.00  0.00     0.076 H 
ATOM     49  H   H1S d  69       6.548   1.979  15.600  0.00  0.00     0.080 H 
ATOM     50  H   H1S d  69       5.344   0.711  15.695  0.00  0.00     0.080 H 
ATOM     51  H   H1S d  69       4.206  -1.513   9.341  0.00  0.00     0.231 HD
ATOM     52  H   H1S d  69       7.015  -2.639  11.673  0.00  0.00     0.097 H 
ATOM     53  H   H1S d  69       7.172   3.253  12.137  0.00  0.00     0.131 H 
ENDROOT
TORSDOF 16
ENDMDL
MODEL 17
REMARK VINA RESULT:      -5.4      2.968      6.412
REMARK  0 active torsions:
REMARK  status: ('A' for Active; 'I' for Inactive)
REMARK       I    between atoms: O15_1  and  C10_31 
REMARK       I    between atoms: C17_4  and  O25_18 
REMARK       I    between atoms: O28_6  and  S20_15 
REMARK       I    between atoms: O3_7  and  C1_22 
REMARK       I    between atoms: O3_7  and  C7_24 
REMARK       I    between atoms: O30_8  and  S20_15 
REMARK       I    between atoms: C2_10  and  C6_27 
REMARK       I    between atoms: O18_13  and  C12_30 
REMARK       I    between atoms: O18_13  and  S26_34 
REMARK       I    between atoms: S20_15  and  N14_20 
REMARK       I    between atoms: S20_15  and  O29_29 
REMARK       I    between atoms: C4_16  and  O9_17 
REMARK       I    between atoms: N14_20  and  C8_26 
REMARK       I    between atoms: C6_27  and  O11_28 
REMARK       I    between atoms: O11_28  and  S16_32 
REMARK       I    between atoms: C19_33  and  C27_35 
ROOT
ATOM      1  O15 H1S d  69       7.007  -2.873  11.065  0.00  0.00    -0.369 OA
ATOM      2  O22 H1S d  69       4.017  -0.982  14.731  0.00  0.00    -0.572 OA
ATOM      3  O31 H1S d  69       2.792   2.329   4.362  0.00  0.00    -0.572 OA
ATOM      4  C17 H1S d  69       1.461   2.456   7.981  0.00  0.00     0.086 C 
ATOM      5  O5  H1S d  69       5.663  -0.754  11.835  0.00  0.00    -0.350 OA
ATOM      6  O28 H1S d  69       8.562   1.296   7.896  0.00  0.00    -0.296 OA
ATOM      7  O3  H1S d  69       3.169   0.988   9.513  0.00  0.00    -0.348 OA
ATOM      8  O30 H1S d  69       7.707  -0.688   6.971  0.00  0.00    -0.296 OA
ATOM      9  O32 H1S d  69       1.560   4.215   5.263  0.00  0.00    -0.572 OA
ATOM     10  C2  H1S d  69       4.764   0.339  11.373  0.00  0.00     0.091 C 
ATOM     11  O35 H1S d  69       3.924   4.947  11.550  0.00  0.00    -0.642 OA
ATOM     12  O13 H1S d  69       3.954   3.123   9.482  0.00  0.00    -0.311 OA
ATOM     13  O18 H1S d  69       3.351   3.205   6.591  0.00  0.00    -0.244 OA
ATOM     14  O21 H1S d  69       6.303  -0.239  15.141  0.00  0.00    -0.572 OA
ATOM     15  S20 H1S d  69       7.353   0.449   7.821  0.00  0.00     0.156 S 
ATOM     16  C4  H1S d  69       4.563  -0.787   8.969  0.00  0.00     0.083 C 
ATOM     17  O9  H1S d  69       3.764  -1.903   8.459  0.00  0.00    -0.391 OA
ATOM     18  O25 H1S d  69       0.819   1.223   8.323  0.00  0.00    -0.389 OA
ATOM     19  O34 H1S d  69       1.754   5.340  11.287  0.00  0.00    -0.642 OA
ATOM     20  N14 H1S d  69       6.825   0.045   9.321  0.00  0.00    -0.210 NA
ATOM     21  O33 H1S d  69       4.000   4.389   4.802  0.00  0.00    -0.572 OA
ATOM     22  C1  H1S d  69       3.872  -0.084  10.151  0.00  0.00     0.095 C 
ATOM     23  C24 H1S d  69       1.540   3.467   9.173  0.00  0.00    -0.034 C 
ATOM     24  C7  H1S d  69       3.824   1.936   8.628  0.00  0.00     0.167 C 
ATOM     25  O23 H1S d  69       4.509   1.020  16.151  0.00  0.00    -0.572 OA
ATOM     26  C8  H1S d  69       5.983  -1.174   9.373  0.00  0.00     0.081 C 
ATOM     27  C6  H1S d  69       3.932   0.863  12.554  0.00  0.00     0.067 C 
ATOM     28  O11 H1S d  69       4.805   1.100  13.721  0.00  0.00    -0.254 OA
ATOM     29  O29 H1S d  69       6.289   1.217   7.105  0.00  0.00    -0.296 OA
ATOM     30  C12 H1S d  69       2.876   2.132   7.433  0.00  0.00     0.135 C 
ATOM     31  C10 H1S d  69       5.929  -1.811  10.801  0.00  0.00     0.147 C 
ATOM     32  S16 H1S d  69       4.900   0.243  14.919  0.00  0.00     0.251 S 
ATOM     33  C19 H1S d  69       2.766   3.736   9.833  0.00  0.00     0.147 C 
ATOM     34  S26 H1S d  69       2.895   3.534   5.248  0.00  0.00     0.252 S 
ATOM     35  C27 H1S d  69       2.817   4.755  10.981  0.00  0.00     0.233 C 
ATOM     36  H   H1S d  69       6.907  -3.218  11.967  0.00  0.00     0.212 HD
ATOM     37  H   H1S d  69       0.869   2.946   7.237  0.00  0.00     0.093 H 
ATOM     38  H   H1S d  69       9.265   0.814   8.359  0.00  0.00     0.231 HD
ATOM     39  H   H1S d  69       8.398  -1.213   7.405  0.00  0.00     0.231 HD
ATOM     40  H   H1S d  69       5.374   1.140  11.010  0.00  0.00     0.090 H 
ATOM     41  H   H1S d  69       4.641  -0.112   8.142  0.00  0.00     0.089 H 
ATOM     42  H   H1S d  69       3.648  -2.563   9.158  0.00  0.00     0.210 HD
ATOM     43  H   H1S d  69       1.342   0.763   8.999  0.00  0.00     0.210 HD
ATOM     44  H   H1S d  69       6.279   0.825   9.687  0.00  0.00     0.140 HD
ATOM     45  H   H1S d  69       3.235  -0.764  10.679  0.00  0.00     0.091 H 
ATOM     46  H   H1S d  69       0.682   3.948   9.485  0.00  0.00     0.085 H 
ATOM     47  H   H1S d  69       4.777   1.661   8.225  0.00  0.00     0.134 H 
ATOM     48  H   H1S d  69       6.411  -1.897   8.710  0.00  0.00     0.076 H 
ATOM     49  H   H1S d  69       3.187   0.140  12.811  0.00  0.00     0.080 H 
ATOM     50  H   H1S d  69       3.464   1.784  12.273  0.00  0.00     0.080 H 
ATOM     51  H   H1S d  69       6.602   1.455   6.218  0.00  0.00     0.231 HD
ATOM     52  H   H1S d  69       2.839   1.240   6.841  0.00  0.00     0.097 H 
ATOM     53  H   H1S d  69       5.075  -2.451  10.882  0.00  0.00     0.131 H 
ENDROOT
TORSDOF 16
ENDMDL
MODEL 18
REMARK VINA RESULT:      -5.4      3.111      7.089
REMARK  0 active torsions:
REMARK  status: ('A' for Active; 'I' for Inactive)
REMARK       I    between atoms: O15_1  and  C10_31 
REMARK       I    between atoms: C17_4  and  O25_18 
REMARK       I    between atoms: O28_6  and  S20_15 
REMARK       I    between atoms: O3_7  and  C1_22 
REMARK       I    between atoms: O3_7  and  C7_24 
REMARK       I    between atoms: O30_8  and  S20_15 
REMARK       I    between atoms: C2_10  and  C6_27 
REMARK       I    between atoms: O18_13  and  C12_30 
REMARK       I    between atoms: O18_13  and  S26_34 
REMARK       I    between atoms: S20_15  and  N14_20 
REMARK       I    between atoms: S20_15  and  O29_29 
REMARK       I    between atoms: C4_16  and  O9_17 
REMARK       I    between atoms: N14_20  and  C8_26 
REMARK       I    between atoms: C6_27  and  O11_28 
REMARK       I    between atoms: O11_28  and  S16_32 
REMARK       I    between atoms: C19_33  and  C27_35 
ROOT
ATOM      1  O15 H1S d  69       6.085  -2.426  10.060  0.00  0.00    -0.369 OA
ATOM      2  O22 H1S d  69       4.475  -0.923  14.654  0.00  0.00    -0.572 OA
ATOM      3  O31 H1S d  69       1.102   4.313   5.643  0.00  0.00    -0.572 OA
ATOM      4  C17 H1S d  69       0.796   3.925   9.469  0.00  0.00     0.086 C 
ATOM      5  O5  H1S d  69       5.323  -0.351  11.475  0.00  0.00    -0.350 OA
ATOM      6  O28 H1S d  69       7.370   2.058   7.218  0.00  0.00    -0.296 OA
ATOM      7  O3  H1S d  69       2.603   2.033  10.228  0.00  0.00    -0.348 OA
ATOM      8  O30 H1S d  69       6.014   0.375   6.295  0.00  0.00    -0.296 OA
ATOM      9  O32 H1S d  69       0.446   6.124   7.117  0.00  0.00    -0.572 OA
ATOM     10  C2  H1S d  69       4.510   0.896  11.449  0.00  0.00     0.091 C 
ATOM     11  O35 H1S d  69       4.450   5.459  12.519  0.00  0.00    -0.642 OA
ATOM     12  O13 H1S d  69       3.664   4.044  10.286  0.00  0.00    -0.311 OA
ATOM     13  O18 H1S d  69       2.348   4.709   7.726  0.00  0.00    -0.244 OA
ATOM     14  O21 H1S d  69       6.873  -0.510  14.504  0.00  0.00    -0.572 OA
ATOM     15  S20 H1S d  69       6.070   1.371   7.365  0.00  0.00     0.156 S 
ATOM     16  C4  H1S d  69       3.522   0.249   9.062  0.00  0.00     0.083 C 
ATOM     17  O9  H1S d  69       2.459  -0.666   8.643  0.00  0.00    -0.391 OA
ATOM     18  O25 H1S d  69       0.087   2.725   9.796  0.00  0.00    -0.389 OA
ATOM     19  O34 H1S d  69       2.371   6.118  12.939  0.00  0.00    -0.642 OA
ATOM     20  N14 H1S d  69       5.897   0.761   8.878  0.00  0.00    -0.210 NA
ATOM     21  O33 H1S d  69       2.679   6.122   6.017  0.00  0.00    -0.572 OA
ATOM     22  C1  H1S d  69       3.278   0.796  10.481  0.00  0.00     0.095 C 
ATOM     23  C24 H1S d  69       1.334   4.690  10.723  0.00  0.00    -0.034 C 
ATOM     24  C7  H1S d  69       3.139   3.051   9.341  0.00  0.00     0.167 C 
ATOM     25  O23 H1S d  69       5.616   0.727  16.151  0.00  0.00    -0.572 OA
ATOM     26  C8  H1S d  69       4.923  -0.351   8.989  0.00  0.00     0.081 C 
ATOM     27  C6  H1S d  69       4.104   1.283  12.879  0.00  0.00     0.067 C 
ATOM     28  O11 H1S d  69       5.276   1.212  13.774  0.00  0.00    -0.254 OA
ATOM     29  O29 H1S d  69       4.984   2.363   7.097  0.00  0.00    -0.296 OA
ATOM     30  C12 H1S d  69       1.952   3.558   8.503  0.00  0.00     0.135 C 
ATOM     31  C10 H1S d  69       5.148  -1.226  10.267  0.00  0.00     0.147 C 
ATOM     32  S16 H1S d  69       5.550   0.149  14.760  0.00  0.00     0.251 S 
ATOM     33  C19 H1S d  69       2.716   4.705  11.042  0.00  0.00     0.147 C 
ATOM     34  S26 H1S d  69       1.613   5.321   6.628  0.00  0.00     0.252 S 
ATOM     35  C27 H1S d  69       3.217   5.490  12.264  0.00  0.00     0.233 C 
ATOM     36  H   H1S d  69       6.173  -2.915  10.893  0.00  0.00     0.212 HD
ATOM     37  H   H1S d  69       0.111   4.600   9.001  0.00  0.00     0.093 H 
ATOM     38  H   H1S d  69       8.088   1.429   7.388  0.00  0.00     0.231 HD
ATOM     39  H   H1S d  69       6.707  -0.290   6.436  0.00  0.00     0.231 HD
ATOM     40  H   H1S d  69       5.118   1.681  11.048  0.00  0.00     0.090 H 
ATOM     41  H   H1S d  69       3.483   1.049   8.353  0.00  0.00     0.089 H 
ATOM     42  H   H1S d  69       2.431  -1.426   9.244  0.00  0.00     0.210 HD
ATOM     43  H   H1S d  69       0.692   2.098  10.223  0.00  0.00     0.210 HD
ATOM     44  H   H1S d  69       5.589   1.515   9.492  0.00  0.00     0.140 HD
ATOM     45  H   H1S d  69       2.706   0.103  11.062  0.00  0.00     0.091 H 
ATOM     46  H   H1S d  69       0.670   5.195  11.331  0.00  0.00     0.085 H 
ATOM     47  H   H1S d  69       3.901   2.754   8.651  0.00  0.00     0.134 H 
ATOM     48  H   H1S d  69       5.050  -0.984   8.136  0.00  0.00     0.076 H 
ATOM     49  H   H1S d  69       3.351   0.608  13.229  0.00  0.00     0.080 H 
ATOM     50  H   H1S d  69       3.723   2.283  12.878  0.00  0.00     0.080 H 
ATOM     51  H   H1S d  69       5.087   2.722   6.202  0.00  0.00     0.231 HD
ATOM     52  H   H1S d  69       1.629   2.797   7.824  0.00  0.00     0.097 H 
ATOM     53  H   H1S d  69       4.259  -1.777  10.492  0.00  0.00     0.131 H 
ENDROOT
TORSDOF 16
ENDMDL
MODEL 19
REMARK VINA RESULT:      -5.3      2.776      4.455
REMARK  0 active torsions:
REMARK  status: ('A' for Active; 'I' for Inactive)
REMARK       I    between atoms: O15_1  and  C10_31 
REMARK       I    between atoms: C17_4  and  O25_18 
REMARK       I    between atoms: O28_6  and  S20_15 
REMARK       I    between atoms: O3_7  and  C1_22 
REMARK       I    between atoms: O3_7  and  C7_24 
REMARK       I    between atoms: O30_8  and  S20_15 
REMARK       I    between atoms: C2_10  and  C6_27 
REMARK       I    between atoms: O18_13  and  C12_30 
REMARK       I    between atoms: O18_13  and  S26_34 
REMARK       I    between atoms: S20_15  and  N14_20 
REMARK       I    between atoms: S20_15  and  O29_29 
REMARK       I    between atoms: C4_16  and  O9_17 
REMARK       I    between atoms: N14_20  and  C8_26 
REMARK       I    between atoms: C6_27  and  O11_28 
REMARK       I    between atoms: O11_28  and  S16_32 
REMARK       I    between atoms: C19_33  and  C27_35 
ROOT
ATOM      1  O15 H1S d  69       5.624   5.344  11.383  0.00  0.00    -0.369 OA
ATOM      2  O22 H1S d  69       7.866   5.145  15.953  0.00  0.00    -0.572 OA
ATOM      3  O31 H1S d  69       5.603  -4.090  10.514  0.00  0.00    -0.572 OA
ATOM      4  C17 H1S d  69       7.275  -2.470  13.591  0.00  0.00     0.086 C 
ATOM      5  O5  H1S d  69       5.869   3.920  13.573  0.00  0.00    -0.350 OA
ATOM      6  O28 H1S d  69       1.739   1.507  11.287  0.00  0.00    -0.296 OA
ATOM      7  O3  H1S d  69       6.778   0.205  13.455  0.00  0.00    -0.348 OA
ATOM      8  O30 H1S d  69       3.288   1.719   9.532  0.00  0.00    -0.296 OA
ATOM      9  O32 H1S d  69       5.887  -5.235  12.633  0.00  0.00    -0.572 OA
ATOM     10  C2  H1S d  69       6.031   2.538  14.104  0.00  0.00     0.091 C 
ATOM     11  O35 H1S d  69       4.533  -0.543  17.302  0.00  0.00    -0.642 OA
ATOM     12  O13 H1S d  69       5.058  -0.746  14.602  0.00  0.00    -0.311 OA
ATOM     13  O18 H1S d  69       5.061  -2.931  12.614  0.00  0.00    -0.244 OA
ATOM     14  O21 H1S d  69       5.611   6.026  16.238  0.00  0.00    -0.572 OA
ATOM     15  S20 H1S d  69       3.176   1.407  10.957  0.00  0.00     0.156 S 
ATOM     16  C4  H1S d  69       6.359   1.588  11.638  0.00  0.00     0.083 C 
ATOM     17  O9  H1S d  69       7.505   1.564  10.727  0.00  0.00    -0.391 OA
ATOM     18  O25 H1S d  69       8.483  -1.802  13.211  0.00  0.00    -0.389 OA
ATOM     19  O34 H1S d  69       6.159  -1.966  17.813  0.00  0.00    -0.642 OA
ATOM     20  N14 H1S d  69       4.071   2.367  11.941  0.00  0.00    -0.210 NA
ATOM     21  O33 H1S d  69       3.634  -4.495  11.876  0.00  0.00    -0.572 OA
ATOM     22  C1  H1S d  69       6.802   1.595  13.113  0.00  0.00     0.095 C 
ATOM     23  C24 H1S d  69       6.909  -2.284  15.100  0.00  0.00    -0.034 C 
ATOM     24  C7  H1S d  69       5.608  -0.632  13.246  0.00  0.00     0.167 C 
ATOM     25  O23 H1S d  69       6.700   5.068  18.167  0.00  0.00    -0.572 OA
ATOM     26  C8  H1S d  69       5.397   2.747  11.397  0.00  0.00     0.081 C 
ATOM     27  C6  H1S d  69       6.682   2.587  15.495  0.00  0.00     0.067 C 
ATOM     28  O11 H1S d  69       6.010   3.601  16.332  0.00  0.00    -0.254 OA
ATOM     29  O29 H1S d  69       3.597  -0.018  11.129  0.00  0.00    -0.296 OA
ATOM     30  C12 H1S d  69       6.130  -1.962  12.675  0.00  0.00     0.135 C 
ATOM     31  C10 H1S d  69       5.988   4.024  12.080  0.00  0.00     0.147 C 
ATOM     32  S16 H1S d  69       6.543   4.933  16.673  0.00  0.00     0.251 S 
ATOM     33  C19 H1S d  69       5.835  -1.450  15.502  0.00  0.00     0.147 C 
ATOM     34  S26 H1S d  69       5.072  -4.206  11.911  0.00  0.00     0.252 S 
ATOM     35  C27 H1S d  69       5.482  -1.309  16.990  0.00  0.00     0.233 C 
ATOM     36  H   H1S d  69       6.026   6.085  11.864  0.00  0.00     0.212 HD
ATOM     37  H   H1S d  69       7.422  -3.522  13.465  0.00  0.00     0.093 H 
ATOM     38  H   H1S d  69       1.446   2.426  11.181  0.00  0.00     0.231 HD
ATOM     39  H   H1S d  69       3.023   2.640   9.381  0.00  0.00     0.231 HD
ATOM     40  H   H1S d  69       5.058   2.104  14.203  0.00  0.00     0.090 H 
ATOM     41  H   H1S d  69       5.828   0.684  11.424  0.00  0.00     0.089 H 
ATOM     42  H   H1S d  69       8.042   2.360  10.863  0.00  0.00     0.210 HD
ATOM     43  H   H1S d  69       8.370  -0.844  13.318  0.00  0.00     0.210 HD
ATOM     44  H   H1S d  69       4.219   1.872  12.821  0.00  0.00     0.140 HD
ATOM     45  H   H1S d  69       7.766   2.048  13.218  0.00  0.00     0.091 H 
ATOM     46  H   H1S d  69       7.461  -2.778  15.818  0.00  0.00     0.085 H 
ATOM     47  H   H1S d  69       4.860  -0.277  12.569  0.00  0.00     0.134 H 
ATOM     48  H   H1S d  69       5.274   2.962  10.356  0.00  0.00     0.076 H 
ATOM     49  H   H1S d  69       7.716   2.842  15.393  0.00  0.00     0.080 H 
ATOM     50  H   H1S d  69       6.588   1.628  15.961  0.00  0.00     0.080 H 
ATOM     51  H   H1S d  69       3.066  -0.584  10.545  0.00  0.00     0.231 HD
ATOM     52  H   H1S d  69       6.500  -1.817  11.681  0.00  0.00     0.097 H 
ATOM     53  H   H1S d  69       7.045   4.065  11.921  0.00  0.00     0.131 H 
ENDROOT
TORSDOF 16
ENDMDL
MODEL 20
REMARK VINA RESULT:      -5.3      2.428      5.673
REMARK  0 active torsions:
REMARK  status: ('A' for Active; 'I' for Inactive)
REMARK       I    between atoms: O15_1  and  C10_31 
REMARK       I    between atoms: C17_4  and  O25_18 
REMARK       I    between atoms: O28_6  and  S20_15 
REMARK       I    between atoms: O3_7  and  C1_22 
REMARK       I    between atoms: O3_7  and  C7_24 
REMARK       I    between atoms: O30_8  and  S20_15 
REMARK       I    between atoms: C2_10  and  C6_27 
REMARK       I    between atoms: O18_13  and  C12_30 
REMARK       I    between atoms: O18_13  and  S26_34 
REMARK       I    between atoms: S20_15  and  N14_20 
REMARK       I    between atoms: S20_15  and  O29_29 
REMARK       I    between atoms: C4_16  and  O9_17 
REMARK       I    between atoms: N14_20  and  C8_26 
REMARK       I    between atoms: C6_27  and  O11_28 
REMARK       I    between atoms: O11_28  and  S16_32 
REMARK       I    between atoms: C19_33  and  C27_35 
ROOT
ATOM      1  O15 H1S d  69       4.859   3.835  12.747  0.00  0.00    -0.369 OA
ATOM      2  O22 H1S d  69       1.099   2.395   9.626  0.00  0.00    -0.572 OA
ATOM      3  O31 H1S d  69       8.277  -4.978  13.381  0.00  0.00    -0.572 OA
ATOM      4  C17 H1S d  69       5.043  -4.335  11.376  0.00  0.00     0.086 C 
ATOM      5  O5  H1S d  69       4.188   2.132  10.867  0.00  0.00    -0.350 OA
ATOM      6  O28 H1S d  69       9.430   1.360  11.070  0.00  0.00    -0.296 OA
ATOM      7  O3  H1S d  69       4.662  -1.638  11.318  0.00  0.00    -0.348 OA
ATOM      8  O30 H1S d  69       8.785   1.331  13.329  0.00  0.00    -0.296 OA
ATOM      9  O32 H1S d  69       7.513  -6.420  11.586  0.00  0.00    -0.572 OA
ATOM     10  C2  H1S d  69       4.272   0.707  10.442  0.00  0.00     0.091 C 
ATOM     11  O35 H1S d  69       5.189  -2.181   6.866  0.00  0.00    -0.642 OA
ATOM     12  O13 H1S d  69       5.944  -2.179   9.519  0.00  0.00    -0.311 OA
ATOM     13  O18 H1S d  69       7.480  -3.993  11.273  0.00  0.00    -0.244 OA
ATOM     14  O21 H1S d  69       2.609   3.857   8.391  0.00  0.00    -0.572 OA
ATOM     15  S20 H1S d  69       8.381   0.884  11.996  0.00  0.00     0.156 S 
ATOM     16  C4  H1S d  69       5.336   0.029  12.786  0.00  0.00     0.083 C 
ATOM     17  O9  H1S d  69       4.754  -0.214  14.108  0.00  0.00    -0.391 OA
ATOM     18  O25 H1S d  69       3.963  -4.010  12.258  0.00  0.00    -0.389 OA
ATOM     19  O34 H1S d  69       4.052  -4.074   7.101  0.00  0.00    -0.642 OA
ATOM     20  N14 H1S d  69       6.899   1.402  11.520  0.00  0.00    -0.210 NA
ATOM     21  O33 H1S d  69       9.504  -4.957  11.286  0.00  0.00    -0.572 OA
ATOM     22  C1  H1S d  69       4.338  -0.286  11.657  0.00  0.00     0.095 C 
ATOM     23  C24 H1S d  69       4.659  -4.246   9.863  0.00  0.00    -0.034 C 
ATOM     24  C7  H1S d  69       6.011  -2.059  10.980  0.00  0.00     0.167 C 
ATOM     25  O23 H1S d  69       1.182   2.381   7.124  0.00  0.00    -0.572 OA
ATOM     26  C8  H1S d  69       5.881   1.441  12.597  0.00  0.00     0.081 C 
ATOM     27  C6  H1S d  69       3.119   0.382   9.480  0.00  0.00     0.067 C 
ATOM     28  O11 H1S d  69       3.011   1.431   8.447  0.00  0.00    -0.254 OA
ATOM     29  O29 H1S d  69       8.410  -0.611  12.006  0.00  0.00    -0.296 OA
ATOM     30  C12 H1S d  69       6.236  -3.398  11.703  0.00  0.00     0.135 C 
ATOM     31  C10 H1S d  69       4.682   2.388  12.262  0.00  0.00     0.147 C 
ATOM     32  S16 H1S d  69       1.987   2.492   8.394  0.00  0.00     0.251 S 
ATOM     33  C19 H1S d  69       5.133  -3.191   9.042  0.00  0.00     0.147 C 
ATOM     34  S26 H1S d  69       8.177  -5.112  11.891  0.00  0.00     0.252 S 
ATOM     35  C27 H1S d  69       4.761  -3.146   7.552  0.00  0.00     0.233 C 
ATOM     36  H   H1S d  69       4.077   4.356  12.503  0.00  0.00     0.212 HD
ATOM     37  H   H1S d  69       5.310  -5.358  11.538  0.00  0.00     0.093 H 
ATOM     38  H   H1S d  69       9.426   2.330  11.049  0.00  0.00     0.231 HD
ATOM     39  H   H1S d  69       8.777   2.301  13.362  0.00  0.00     0.231 HD
ATOM     40  H   H1S d  69       5.195   0.571   9.918  0.00  0.00     0.090 H 
ATOM     41  H   H1S d  69       6.168  -0.643  12.732  0.00  0.00     0.089 H 
ATOM     42  H   H1S d  69       3.986   0.364  14.234  0.00  0.00     0.210 HD
ATOM     43  H   H1S d  69       3.706  -3.084  12.126  0.00  0.00     0.210 HD
ATOM     44  H   H1S d  69       6.563   0.776  10.788  0.00  0.00     0.140 HD
ATOM     45  H   H1S d  69       3.330  -0.155  11.993  0.00  0.00     0.091 H 
ATOM     46  H   H1S d  69       4.047  -4.969   9.453  0.00  0.00     0.085 H 
ATOM     47  H   H1S d  69       6.816  -1.415  11.265  0.00  0.00     0.134 H 
ATOM     48  H   H1S d  69       6.354   1.816  13.481  0.00  0.00     0.076 H 
ATOM     49  H   H1S d  69       2.202   0.331  10.029  0.00  0.00     0.080 H 
ATOM     50  H   H1S d  69       3.311  -0.558   9.006  0.00  0.00     0.080 H 
ATOM     51  H   H1S d  69       9.287  -0.915  12.289  0.00  0.00     0.231 HD
ATOM     52  H   H1S d  69       6.294  -3.241  12.760  0.00  0.00     0.097 H 
ATOM     53  H   H1S d  69       3.839   2.136  12.870  0.00  0.00     0.131 H 
ENDROOT
TORSDOF 16
ENDMDL
MODEL 21
REMARK VINA RESULT:      -5.2      2.682      7.292
REMARK  0 active torsions:
REMARK  status: ('A' for Active; 'I' for Inactive)
REMARK       I    between atoms: O15_1  and  C10_31 
REMARK       I    between atoms: C17_4  and  O25_18 
REMARK       I    between atoms: O28_6  and  S20_15 
REMARK       I    between atoms: O3_7  and  C1_22 
REMARK       I    between atoms: O3_7  and  C7_24 
REMARK       I    between atoms: O30_8  and  S20_15 
REMARK       I    between atoms: C2_10  and  C6_27 
REMARK       I    between atoms: O18_13  and  C12_30 
REMARK       I    between atoms: O18_13  and  S26_34 
REMARK       I    between atoms: S20_15  and  N14_20 
REMARK       I    between atoms: S20_15  and  O29_29 
REMARK       I    between atoms: C4_16  and  O9_17 
REMARK       I    between atoms: N14_20  and  C8_26 
REMARK       I    between atoms: C6_27  and  O11_28 
REMARK       I    between atoms: O11_28  and  S16_32 
REMARK       I    between atoms: C19_33  and  C27_35 
ROOT
ATOM      1  O15 H1S d  69       2.434   1.689   7.354  0.00  0.00    -0.369 OA
ATOM      2  O22 H1S d  69       4.000  -3.112   8.025  0.00  0.00    -0.572 OA
ATOM      3  O31 H1S d  69       4.375   4.020  16.330  0.00  0.00    -0.572 OA
ATOM      4  C17 H1S d  69       4.850   0.371  15.170  0.00  0.00     0.086 C 
ATOM      5  O5  H1S d  69       4.112   0.162   8.672  0.00  0.00    -0.350 OA
ATOM      6  O28 H1S d  69       6.081   4.962   9.768  0.00  0.00    -0.296 OA
ATOM      7  O3  H1S d  69       4.392   0.319  12.485  0.00  0.00    -0.348 OA
ATOM      8  O30 H1S d  69       3.775   5.217  10.143  0.00  0.00    -0.296 OA
ATOM      9  O32 H1S d  69       5.904   2.471  17.400  0.00  0.00    -0.572 OA
ATOM     10  C2  H1S d  69       4.724  -0.091  10.007  0.00  0.00     0.091 C 
ATOM     11  O35 H1S d  69       8.725  -0.939  12.294  0.00  0.00    -0.642 OA
ATOM     12  O13 H1S d  69       6.605   0.754  12.786  0.00  0.00    -0.311 OA
ATOM     13  O18 H1S d  69       5.850   2.611  14.957  0.00  0.00    -0.244 OA
ATOM     14  O21 H1S d  69       5.519  -2.017   6.464  0.00  0.00    -0.572 OA
ATOM     15  S20 H1S d  69       4.891   4.291  10.333  0.00  0.00     0.156 S 
ATOM     16  C4  H1S d  69       3.096   1.690  11.133  0.00  0.00     0.083 C 
ATOM     17  O9  H1S d  69       1.697   1.625  11.562  0.00  0.00    -0.391 OA
ATOM     18  O25 H1S d  69       3.581  -0.250  14.938  0.00  0.00    -0.389 OA
ATOM     19  O34 H1S d  69       8.321  -2.120  14.131  0.00  0.00    -0.642 OA
ATOM     20  N14 H1S d  69       4.676   2.811   9.657  0.00  0.00    -0.210 NA
ATOM     21  O33 H1S d  69       6.760   4.361  16.024  0.00  0.00    -0.572 OA
ATOM     22  C1  H1S d  69       3.776   0.310  11.193  0.00  0.00     0.095 C 
ATOM     23  C24 H1S d  69       6.066  -0.542  14.804  0.00  0.00    -0.034 C 
ATOM     24  C7  H1S d  69       5.284   1.381  12.920  0.00  0.00     0.167 C 
ATOM     25  O23 H1S d  69       6.312  -3.981   7.619  0.00  0.00    -0.572 OA
ATOM     26  C8  H1S d  69       3.292   2.287   9.743  0.00  0.00     0.081 C 
ATOM     27  C6  H1S d  69       5.192  -1.551  10.097  0.00  0.00     0.067 C 
ATOM     28  O11 H1S d  69       5.950  -1.915   8.883  0.00  0.00    -0.254 OA
ATOM     29  O29 H1S d  69       5.094   4.144  11.807  0.00  0.00    -0.296 OA
ATOM     30  C12 H1S d  69       4.893   1.701  14.373  0.00  0.00     0.135 C 
ATOM     31  C10 H1S d  69       3.001   1.172   8.685  0.00  0.00     0.147 C 
ATOM     32  S16 H1S d  69       5.456  -2.749   7.771  0.00  0.00     0.251 S 
ATOM     33  C19 H1S d  69       6.858  -0.291  13.654  0.00  0.00     0.147 C 
ATOM     34  S26 H1S d  69       5.711   3.352  16.203  0.00  0.00     0.252 S 
ATOM     35  C27 H1S d  69       8.062  -1.188  13.336  0.00  0.00     0.233 C 
ATOM     36  H   H1S d  69       2.282   0.941   6.755  0.00  0.00     0.212 HD
ATOM     37  H   H1S d  69       4.944   0.556  16.220  0.00  0.00     0.093 H 
ATOM     38  H   H1S d  69       5.968   5.066   8.810  0.00  0.00     0.231 HD
ATOM     39  H   H1S d  69       3.613   5.338   9.194  0.00  0.00     0.231 HD
ATOM     40  H   H1S d  69       5.580   0.544  10.105  0.00  0.00     0.090 H 
ATOM     41  H   H1S d  69       3.560   2.354  11.832  0.00  0.00     0.089 H 
ATOM     42  H   H1S d  69       1.205   1.036  10.971  0.00  0.00     0.210 HD
ATOM     43  H   H1S d  69       3.477  -0.426  13.989  0.00  0.00     0.210 HD
ATOM     44  H   H1S d  69       5.295   2.153  10.129  0.00  0.00     0.140 HD
ATOM     45  H   H1S d  69       3.058  -0.473  11.063  0.00  0.00     0.091 H 
ATOM     46  H   H1S d  69       6.297  -1.344  15.410  0.00  0.00     0.085 H 
ATOM     47  H   H1S d  69       5.253   2.305  12.381  0.00  0.00     0.134 H 
ATOM     48  H   H1S d  69       2.622   3.100   9.552  0.00  0.00     0.076 H 
ATOM     49  H   H1S d  69       4.341  -2.192  10.187  0.00  0.00     0.080 H 
ATOM     50  H   H1S d  69       5.825  -1.665  10.953  0.00  0.00     0.080 H 
ATOM     51  H   H1S d  69       5.220   5.020  12.205  0.00  0.00     0.231 HD
ATOM     52  H   H1S d  69       3.932   2.171  14.401  0.00  0.00     0.097 H 
ATOM     53  H   H1S d  69       2.152   0.596   8.988  0.00  0.00     0.131 H 
ENDROOT
TORSDOF 16
ENDMDL
MODEL 22
REMARK VINA RESULT:      -5.2      2.541      7.680
REMARK  0 active torsions:
REMARK  status: ('A' for Active; 'I' for Inactive)
REMARK       I    between atoms: O15_1  and  C10_31 
REMARK       I    between atoms: C17_4  and  O25_18 
REMARK       I    between atoms: O28_6  and  S20_15 
REMARK       I    between atoms: O3_7  and  C1_22 
REMARK       I    between atoms: O3_7  and  C7_24 
REMARK       I    between atoms: O30_8  and  S20_15 
REMARK       I    between atoms: C2_10  and  C6_27 
REMARK       I    between atoms: O18_13  and  C12_30 
REMARK       I    between atoms: O18_13  and  S26_34 
REMARK       I    between atoms: S20_15  and  N14_20 
REMARK       I    between atoms: S20_15  and  O29_29 
REMARK       I    between atoms: C4_16  and  O9_17 
REMARK       I    between atoms: N14_20  and  C8_26 
REMARK       I    between atoms: C6_27  and  O11_28 
REMARK       I    between atoms: O11_28  and  S16_32 
REMARK       I    between atoms: C19_33  and  C27_35 
ROOT
ATOM      1  O15 H1S d  69       8.677  -3.769   8.102  0.00  0.00    -0.369 OA
ATOM      2  O22 H1S d  69       7.471   0.737   6.054  0.00  0.00    -0.572 OA
ATOM      3  O31 H1S d  69       5.463  -1.221  16.643  0.00  0.00    -0.572 OA
ATOM      4  C17 H1S d  69       5.456   1.350  13.766  0.00  0.00     0.086 C 
ATOM      5  O5  H1S d  69       6.993  -1.761   8.219  0.00  0.00    -0.350 OA
ATOM      6  O28 H1S d  69       4.491  -5.321  11.249  0.00  0.00    -0.296 OA
ATOM      7  O3  H1S d  69       6.239   0.033  11.514  0.00  0.00    -0.348 OA
ATOM      8  O30 H1S d  69       6.702  -5.386  12.041  0.00  0.00    -0.296 OA
ATOM      9  O32 H1S d  69       3.958   0.679  16.559  0.00  0.00    -0.572 OA
ATOM     10  C2  H1S d  69       6.249  -0.860   9.143  0.00  0.00     0.091 C 
ATOM     11  O35 H1S d  69       2.089   1.087  10.079  0.00  0.00    -0.642 OA
ATOM     12  O13 H1S d  69       3.977  -0.158  11.658  0.00  0.00    -0.311 OA
ATOM     13  O18 H1S d  69       4.296  -0.676  14.549  0.00  0.00    -0.244 OA
ATOM     14  O21 H1S d  69       6.062  -0.974   5.038  0.00  0.00    -0.572 OA
ATOM     15  S20 H1S d  69       5.657  -4.474  11.576  0.00  0.00     0.156 S 
ATOM     16  C4  H1S d  69       7.564  -1.853  11.234  0.00  0.00     0.083 C 
ATOM     17  O9  H1S d  69       8.901  -1.600  11.777  0.00  0.00    -0.391 OA
ATOM     18  O25 H1S d  69       6.794   1.750  13.448  0.00  0.00    -0.389 OA
ATOM     19  O34 H1S d  69       2.370   3.028  11.122  0.00  0.00    -0.642 OA
ATOM     20  N14 H1S d  69       6.082  -3.542  10.294  0.00  0.00    -0.210 NA
ATOM     21  O33 H1S d  69       3.113  -1.634  16.195  0.00  0.00    -0.572 OA
ATOM     22  C1  H1S d  69       7.006  -0.621  10.498  0.00  0.00     0.095 C 
ATOM     23  C24 H1S d  69       4.379   1.971  12.818  0.00  0.00    -0.034 C 
ATOM     24  C7  H1S d  69       5.211  -0.651  12.280  0.00  0.00     0.167 C 
ATOM     25  O23 H1S d  69       5.310   1.316   4.931  0.00  0.00    -0.572 OA
ATOM     26  C8  H1S d  69       7.487  -3.067  10.314  0.00  0.00     0.081 C 
ATOM     27  C6  H1S d  69       5.903   0.453   8.423  0.00  0.00     0.067 C 
ATOM     28  O11 H1S d  69       5.333   0.165   7.092  0.00  0.00    -0.254 OA
ATOM     29  O29 H1S d  69       5.291  -3.600  12.732  0.00  0.00    -0.296 OA
ATOM     30  C12 H1S d  69       5.393  -0.200  13.740  0.00  0.00     0.135 C 
ATOM     31  C10 H1S d  69       8.001  -2.642   8.898  0.00  0.00     0.147 C 
ATOM     32  S16 H1S d  69       6.030   0.317   5.801  0.00  0.00     0.251 S 
ATOM     33  C19 H1S d  69       3.713   1.186  11.842  0.00  0.00     0.147 C 
ATOM     34  S26 H1S d  69       4.217  -0.688  16.003  0.00  0.00     0.252 S 
ATOM     35  C27 H1S d  69       2.640   1.818  10.944  0.00  0.00     0.233 C 
ATOM     36  H   H1S d  69       8.966  -3.428   7.241  0.00  0.00     0.212 HD
ATOM     37  H   H1S d  69       5.220   1.722  14.741  0.00  0.00     0.093 H 
ATOM     38  H   H1S d  69       4.709  -5.896  10.499  0.00  0.00     0.231 HD
ATOM     39  H   H1S d  69       6.967  -5.972  11.314  0.00  0.00     0.231 HD
ATOM     40  H   H1S d  69       5.334  -1.345   9.415  0.00  0.00     0.090 H 
ATOM     41  H   H1S d  69       6.962  -2.065  12.092  0.00  0.00     0.089 H 
ATOM     42  H   H1S d  69       9.511  -1.398  11.052  0.00  0.00     0.210 HD
ATOM     43  H   H1S d  69       7.028   1.421  12.566  0.00  0.00     0.210 HD
ATOM     44  H   H1S d  69       5.471  -2.726  10.278  0.00  0.00     0.140 HD
ATOM     45  H   H1S d  69       7.800  -0.021  10.104  0.00  0.00     0.091 H 
ATOM     46  H   H1S d  69       4.148   2.973  12.903  0.00  0.00     0.085 H 
ATOM     47  H   H1S d  69       5.226  -1.721  12.284  0.00  0.00     0.134 H 
ATOM     48  H   H1S d  69       8.101  -3.874  10.654  0.00  0.00     0.076 H 
ATOM     49  H   H1S d  69       6.790   1.039   8.309  0.00  0.00     0.080 H 
ATOM     50  H   H1S d  69       5.184   0.993   9.004  0.00  0.00     0.080 H 
ATOM     51  H   H1S d  69       5.040  -4.154  13.489  0.00  0.00     0.231 HD
ATOM     52  H   H1S d  69       6.299  -0.605  14.141  0.00  0.00     0.097 H 
ATOM     53  H   H1S d  69       8.854  -2.006   8.997  0.00  0.00     0.131 H 
ENDROOT
TORSDOF 16
ENDMDL
MODEL 23
REMARK VINA RESULT:      -5.2      2.606      7.296
REMARK  0 active torsions:
REMARK  status: ('A' for Active; 'I' for Inactive)
REMARK       I    between atoms: O15_1  and  C10_31 
REMARK       I    between atoms: C17_4  and  O25_18 
REMARK       I    between atoms: O28_6  and  S20_15 
REMARK       I    between atoms: O3_7  and  C1_22 
REMARK       I    between atoms: O3_7  and  C7_24 
REMARK       I    between atoms: O30_8  and  S20_15 
REMARK       I    between atoms: C2_10  and  C6_27 
REMARK       I    between atoms: O18_13  and  C12_30 
REMARK       I    between atoms: O18_13  and  S26_34 
REMARK       I    between atoms: S20_15  and  N14_20 
REMARK       I    between atoms: S20_15  and  O29_29 
REMARK       I    between atoms: C4_16  and  O9_17 
REMARK       I    between atoms: N14_20  and  C8_26 
REMARK       I    between atoms: C6_27  and  O11_28 
REMARK       I    between atoms: O11_28  and  S16_32 
REMARK       I    between atoms: C19_33  and  C27_35 
ROOT
ATOM      1  O15 H1S d  69       5.316  -0.235   8.451  0.00  0.00    -0.369 OA
ATOM      2  O22 H1S d  69       4.704  -5.006  10.130  0.00  0.00    -0.572 OA
ATOM      3  O31 H1S d  69       4.410   3.392  17.156  0.00  0.00    -0.572 OA
ATOM      4  C17 H1S d  69       3.964  -0.403  16.625  0.00  0.00     0.086 C 
ATOM      5  O5  H1S d  69       5.714  -1.842  10.486  0.00  0.00    -0.350 OA
ATOM      6  O28 H1S d  69       8.682   2.311  11.918  0.00  0.00    -0.296 OA
ATOM      7  O3  H1S d  69       4.568  -0.922  14.019  0.00  0.00    -0.348 OA
ATOM      8  O30 H1S d  69       6.657   3.294  11.240  0.00  0.00    -0.296 OA
ATOM      9  O32 H1S d  69       4.767   1.751  18.906  0.00  0.00    -0.572 OA
ATOM     10  C2  H1S d  69       5.643  -1.954  11.970  0.00  0.00     0.091 C 
ATOM     11  O35 H1S d  69       7.903  -3.376  15.821  0.00  0.00    -0.642 OA
ATOM     12  O13 H1S d  69       6.502  -1.082  15.207  0.00  0.00    -0.311 OA
ATOM     13  O18 H1S d  69       5.693   1.350  16.677  0.00  0.00    -0.244 OA
ATOM     14  O21 H1S d  69       6.981  -4.769   9.291  0.00  0.00    -0.572 OA
ATOM     15  S20 H1S d  69       7.213   2.153  11.969  0.00  0.00     0.156 S 
ATOM     16  C4  H1S d  69       4.455   0.424  12.131  0.00  0.00     0.083 C 
ATOM     17  O9  H1S d  69       3.073   0.859  11.919  0.00  0.00    -0.391 OA
ATOM     18  O25 H1S d  69       2.747  -0.671  15.920  0.00  0.00    -0.389 OA
ATOM     19  O34 H1S d  69       6.445  -3.949  17.396  0.00  0.00    -0.642 OA
ATOM     20  N14 H1S d  69       6.761   0.685  11.393  0.00  0.00    -0.210 NA
ATOM     21  O33 H1S d  69       6.687   2.959  17.881  0.00  0.00    -0.572 OA
ATOM     22  C1  H1S d  69       4.526  -1.043  12.594  0.00  0.00     0.095 C 
ATOM     23  C24 H1S d  69       4.820  -1.683  16.896  0.00  0.00    -0.034 C 
ATOM     24  C7  H1S d  69       5.543  -0.091  14.706  0.00  0.00     0.167 C 
ATOM     25  O23 H1S d  69       6.529  -6.567  10.835  0.00  0.00    -0.572 OA
ATOM     26  C8  H1S d  69       5.359   0.613  10.917  0.00  0.00     0.081 C 
ATOM     27  C6  H1S d  69       5.494  -3.428  12.375  0.00  0.00     0.067 C 
ATOM     28  O11 H1S d  69       6.473  -4.256  11.642  0.00  0.00    -0.254 OA
ATOM     29  O29 H1S d  69       6.778   2.289  13.393  0.00  0.00    -0.296 OA
ATOM     30  C12 H1S d  69       4.773   0.646  15.816  0.00  0.00     0.135 C 
ATOM     31  C10 H1S d  69       5.115  -0.581   9.934  0.00  0.00     0.147 C 
ATOM     32  S16 H1S d  69       6.174  -5.141  10.499  0.00  0.00     0.251 S 
ATOM     33  C19 H1S d  69       6.021  -1.934  16.183  0.00  0.00     0.147 C 
ATOM     34  S26 H1S d  69       5.365   2.359  17.674  0.00  0.00     0.252 S 
ATOM     35  C27 H1S d  69       6.855  -3.186  16.492  0.00  0.00     0.233 C 
ATOM     36  H   H1S d  69       5.147  -1.022   7.910  0.00  0.00     0.212 HD
ATOM     37  H   H1S d  69       3.713  -0.023  17.592  0.00  0.00     0.093 H 
ATOM     38  H   H1S d  69       8.984   2.226  11.001  0.00  0.00     0.231 HD
ATOM     39  H   H1S d  69       6.920   3.240  10.307  0.00  0.00     0.231 HD
ATOM     40  H   H1S d  69       6.563  -1.585  12.375  0.00  0.00     0.090 H 
ATOM     41  H   H1S d  69       4.823   1.065  12.904  0.00  0.00     0.089 H 
ATOM     42  H   H1S d  69       2.667   0.318  11.225  0.00  0.00     0.210 HD
ATOM     43  H   H1S d  69       2.953  -1.017  15.038  0.00  0.00     0.210 HD
ATOM     44  H   H1S d  69       6.879   0.000  12.139  0.00  0.00     0.140 HD
ATOM     45  H   H1S d  69       3.684  -1.597  12.233  0.00  0.00     0.091 H 
ATOM     46  H   H1S d  69       4.505  -2.361  17.607  0.00  0.00     0.085 H 
ATOM     47  H   H1S d  69       6.047   0.658  14.131  0.00  0.00     0.134 H 
ATOM     48  H   H1S d  69       5.145   1.518  10.388  0.00  0.00     0.076 H 
ATOM     49  H   H1S d  69       4.505  -3.761  12.142  0.00  0.00     0.080 H 
ATOM     50  H   H1S d  69       5.672  -3.523  13.426  0.00  0.00     0.080 H 
ATOM     51  H   H1S d  69       7.045   3.158  13.732  0.00  0.00     0.231 HD
ATOM     52  H   H1S d  69       4.106   1.365  15.387  0.00  0.00     0.097 H 
ATOM     53  H   H1S d  69       4.071  -0.806   9.888  0.00  0.00     0.131 H 
ENDROOT
TORSDOF 16
ENDMDL
MODEL 24
REMARK VINA RESULT:      -5.2      3.537      5.491
REMARK  0 active torsions:
REMARK  status: ('A' for Active; 'I' for Inactive)
REMARK       I    between atoms: O15_1  and  C10_31 
REMARK       I    between atoms: C17_4  and  O25_18 
REMARK       I    between atoms: O28_6  and  S20_15 
REMARK       I    between atoms: O3_7  and  C1_22 
REMARK       I    between atoms: O3_7  and  C7_24 
REMARK       I    between atoms: O30_8  and  S20_15 
REMARK       I    between atoms: C2_10  and  C6_27 
REMARK       I    between atoms: O18_13  and  C12_30 
REMARK       I    between atoms: O18_13  and  S26_34 
REMARK       I    between atoms: S20_15  and  N14_20 
REMARK       I    between atoms: S20_15  and  O29_29 
REMARK       I    between atoms: C4_16  and  O9_17 
REMARK       I    between atoms: N14_20  and  C8_26 
REMARK       I    between atoms: C6_27  and  O11_28 
REMARK       I    between atoms: O11_28  and  S16_32 
REMARK       I    between atoms: C19_33  and  C27_35 
ROOT
ATOM      1  O15 H1S d  69       3.202   5.815  13.246  0.00  0.00    -0.369 OA
ATOM      2  O22 H1S d  69       6.811   2.305  14.023  0.00  0.00    -0.572 OA
ATOM      3  O31 H1S d  69       3.193   4.342   3.887  0.00  0.00    -0.572 OA
ATOM      4  C17 H1S d  69       5.722   2.452   6.105  0.00  0.00     0.086 C 
ATOM      5  O5  H1S d  69       4.189   3.547  12.370  0.00  0.00    -0.350 OA
ATOM      6  O28 H1S d  69      -0.383   3.732   9.691  0.00  0.00    -0.296 OA
ATOM      7  O3  H1S d  69       5.124   3.057   8.693  0.00  0.00    -0.348 OA
ATOM      8  O30 H1S d  69       0.506   5.888   9.406  0.00  0.00    -0.296 OA
ATOM      9  O32 H1S d  69       4.185   2.218   3.263  0.00  0.00    -0.572 OA
ATOM     10  C2  H1S d  69       4.557   2.782  11.147  0.00  0.00     0.091 C 
ATOM     11  O35 H1S d  69       4.274  -1.368   8.988  0.00  0.00    -0.642 OA
ATOM     12  O13 H1S d  69       3.901   1.225   8.126  0.00  0.00    -0.311 OA
ATOM     13  O18 H1S d  69       3.326   2.522   5.535  0.00  0.00    -0.244 OA
ATOM     14  O21 H1S d  69       4.744   1.528  15.057  0.00  0.00    -0.572 OA
ATOM     15  S20 H1S d  69       0.872   4.472   9.445  0.00  0.00     0.156 S 
ATOM     16  C4  H1S d  69       4.096   4.918   9.625  0.00  0.00     0.083 C 
ATOM     17  O9  H1S d  69       4.885   6.116   9.330  0.00  0.00    -0.391 OA
ATOM     18  O25 H1S d  69       6.720   3.349   6.603  0.00  0.00    -0.389 OA
ATOM     19  O34 H1S d  69       6.022  -1.654   7.648  0.00  0.00    -0.642 OA
ATOM     20  N14 H1S d  69       2.007   4.090  10.566  0.00  0.00    -0.210 NA
ATOM     21  O33 H1S d  69       1.786   2.363   3.914  0.00  0.00    -0.572 OA
ATOM     22  C1  H1S d  69       4.994   3.712   9.959  0.00  0.00     0.095 C 
ATOM     23  C24 H1S d  69       5.860   0.997   6.660  0.00  0.00    -0.034 C 
ATOM     24  C7  H1S d  69       3.977   2.671   7.888  0.00  0.00     0.167 C 
ATOM     25  O23 H1S d  69       6.429  -0.117  14.530  0.00  0.00    -0.572 OA
ATOM     26  C8  H1S d  69       3.072   5.107  10.740  0.00  0.00     0.081 C 
ATOM     27  C6  H1S d  69       5.622   1.730  11.492  0.00  0.00     0.067 C 
ATOM     28  O11 H1S d  69       5.227   0.989  12.706  0.00  0.00    -0.254 OA
ATOM     29  O29 H1S d  69       1.369   4.109   8.083  0.00  0.00    -0.296 OA
ATOM     30  C12 H1S d  69       4.327   3.044   6.437  0.00  0.00     0.135 C 
ATOM     31  C10 H1S d  69       3.813   4.978  12.112  0.00  0.00     0.147 C 
ATOM     32  S16 H1S d  69       5.800   1.168  14.054  0.00  0.00     0.251 S 
ATOM     33  C19 H1S d  69       4.949   0.482   7.618  0.00  0.00     0.147 C 
ATOM     34  S26 H1S d  69       3.148   2.864   4.131  0.00  0.00     0.252 S 
ATOM     35  C27 H1S d  69       5.094  -0.961   8.124  0.00  0.00     0.233 C 
ATOM     36  H   H1S d  69       3.715   5.682  14.059  0.00  0.00     0.212 HD
ATOM     37  H   H1S d  69       5.852   2.362   5.047  0.00  0.00     0.093 H 
ATOM     38  H   H1S d  69      -0.722   3.954  10.573  0.00  0.00     0.231 HD
ATOM     39  H   H1S d  69       0.177   6.162  10.277  0.00  0.00     0.231 HD
ATOM     40  H   H1S d  69       3.682   2.273  10.798  0.00  0.00     0.090 H 
ATOM     41  H   H1S d  69       3.552   4.726   8.724  0.00  0.00     0.089 H 
ATOM     42  H   H1S d  69       5.411   6.355  10.108  0.00  0.00     0.210 HD
ATOM     43  H   H1S d  69       6.618   3.444   7.563  0.00  0.00     0.210 HD
ATOM     44  H   H1S d  69       2.448   3.213  10.286  0.00  0.00     0.140 HD
ATOM     45  H   H1S d  69       5.925   4.035  10.376  0.00  0.00     0.091 H 
ATOM     46  H   H1S d  69       6.630   0.398   6.324  0.00  0.00     0.085 H 
ATOM     47  H   H1S d  69       3.039   3.135   8.110  0.00  0.00     0.134 H 
ATOM     48  H   H1S d  69       2.611   6.072  10.709  0.00  0.00     0.076 H 
ATOM     49  H   H1S d  69       6.559   2.217  11.664  0.00  0.00     0.080 H 
ATOM     50  H   H1S d  69       5.714   1.043  10.676  0.00  0.00     0.080 H 
ATOM     51  H   H1S d  69       0.696   4.337   7.422  0.00  0.00     0.231 HD
ATOM     52  H   H1S d  69       4.349   4.108   6.325  0.00  0.00     0.097 H 
ATOM     53  H   H1S d  69       4.759   5.474  12.062  0.00  0.00     0.131 H 
ENDROOT
TORSDOF 16
ENDMDL
MODEL 25
REMARK VINA RESULT:      -5.2      2.627      7.155
REMARK  0 active torsions:
REMARK  status: ('A' for Active; 'I' for Inactive)
REMARK       I    between atoms: O15_1  and  C10_31 
REMARK       I    between atoms: C17_4  and  O25_18 
REMARK       I    between atoms: O28_6  and  S20_15 
REMARK       I    between atoms: O3_7  and  C1_22 
REMARK       I    between atoms: O3_7  and  C7_24 
REMARK       I    between atoms: O30_8  and  S20_15 
REMARK       I    between atoms: C2_10  and  C6_27 
REMARK       I    between atoms: O18_13  and  C12_30 
REMARK       I    between atoms: O18_13  and  S26_34 
REMARK       I    between atoms: S20_15  and  N14_20 
REMARK       I    between atoms: S20_15  and  O29_29 
REMARK       I    between atoms: C4_16  and  O9_17 
REMARK       I    between atoms: N14_20  and  C8_26 
REMARK       I    between atoms: C6_27  and  O11_28 
REMARK       I    between atoms: O11_28  and  S16_32 
REMARK       I    between atoms: C19_33  and  C27_35 
ROOT
ATOM      1  O15 H1S d  69       5.505  -1.669   8.073  0.00  0.00    -0.369 OA
ATOM      2  O22 H1S d  69       4.196  -5.943  10.517  0.00  0.00    -0.572 OA
ATOM      3  O31 H1S d  69       5.484   3.409  16.071  0.00  0.00    -0.572 OA
ATOM      4  C17 H1S d  69       4.420  -0.298  16.173  0.00  0.00     0.086 C 
ATOM      5  O5  H1S d  69       5.709  -2.971  10.342  0.00  0.00    -0.350 OA
ATOM      6  O28 H1S d  69       9.349   0.818  11.052  0.00  0.00    -0.296 OA
ATOM      7  O3  H1S d  69       4.845  -1.320  13.684  0.00  0.00    -0.348 OA
ATOM      8  O30 H1S d  69       7.486   1.995  10.235  0.00  0.00    -0.296 OA
ATOM      9  O32 H1S d  69       5.632   2.035  18.065  0.00  0.00    -0.572 OA
ATOM     10  C2  H1S d  69       5.672  -2.830  11.824  0.00  0.00     0.091 C 
ATOM     11  O35 H1S d  69       7.804  -3.964  15.841  0.00  0.00    -0.642 OA
ATOM     12  O13 H1S d  69       6.767  -1.601  14.869  0.00  0.00    -0.311 OA
ATOM     13  O18 H1S d  69       6.407   1.135  15.924  0.00  0.00    -0.244 OA
ATOM     14  O21 H1S d  69       6.452  -6.220   9.634  0.00  0.00    -0.572 OA
ATOM     15  S20 H1S d  69       7.877   0.912  11.138  0.00  0.00     0.156 S 
ATOM     16  C4  H1S d  69       4.884  -0.296  11.601  0.00  0.00     0.083 C 
ATOM     17  O9  H1S d  69       3.584   0.319  11.331  0.00  0.00    -0.391 OA
ATOM     18  O25 H1S d  69       3.152  -0.473  15.531  0.00  0.00    -0.389 OA
ATOM     19  O34 H1S d  69       6.327  -4.031  17.498  0.00  0.00    -0.642 OA
ATOM     20  N14 H1S d  69       7.177  -0.536  10.814  0.00  0.00    -0.210 NA
ATOM     21  O33 H1S d  69       7.685   2.733  16.842  0.00  0.00    -0.572 OA
ATOM     22  C1  H1S d  69       4.736  -1.661  12.298  0.00  0.00     0.095 C 
ATOM     23  C24 H1S d  69       5.069  -1.640  16.644  0.00  0.00    -0.034 C 
ATOM     24  C7  H1S d  69       5.963  -0.560  14.218  0.00  0.00     0.167 C 
ATOM     25  O23 H1S d  69       5.771  -7.648  11.456  0.00  0.00    -0.572 OA
ATOM     26  C8  H1S d  69       5.766  -0.455  10.366  0.00  0.00     0.081 C 
ATOM     27  C6  H1S d  69       5.303  -4.176  12.467  0.00  0.00     0.067 C 
ATOM     28  O11 H1S d  69       6.112  -5.259  11.872  0.00  0.00    -0.254 OA
ATOM     29  O29 H1S d  69       7.517   1.344  12.523  0.00  0.00    -0.296 OA
ATOM     30  C12 H1S d  69       5.357   0.461  15.197  0.00  0.00     0.135 C 
ATOM     31  C10 H1S d  69       5.302  -1.735   9.595  0.00  0.00     0.147 C 
ATOM     32  S16 H1S d  69       5.638  -6.255  10.893  0.00  0.00     0.251 S 
ATOM     33  C19 H1S d  69       6.190  -2.194  15.974  0.00  0.00     0.147 C 
ATOM     34  S26 H1S d  69       6.278   2.331  16.745  0.00  0.00     0.252 S 
ATOM     35  C27 H1S d  69       6.822  -3.499  16.479  0.00  0.00     0.233 C 
ATOM     36  H   H1S d  69       5.195  -2.495   7.670  0.00  0.00     0.212 HD
ATOM     37  H   H1S d  69       4.265   0.269  17.067  0.00  0.00     0.093 H 
ATOM     38  H   H1S d  69       9.603   0.539  10.158  0.00  0.00     0.231 HD
ATOM     39  H   H1S d  69       7.704   1.750   9.322  0.00  0.00     0.231 HD
ATOM     40  H   H1S d  69       6.652  -2.556  12.156  0.00  0.00     0.090 H 
ATOM     41  H   H1S d  69       5.376   0.393  12.256  0.00  0.00     0.089 H 
ATOM     42  H   H1S d  69       3.073  -0.253  10.737  0.00  0.00     0.210 HD
ATOM     43  H   H1S d  69       3.271  -0.986  14.716  0.00  0.00     0.210 HD
ATOM     44  H   H1S d  69       7.209  -1.102  11.661  0.00  0.00     0.140 HD
ATOM     45  H   H1S d  69       3.805  -2.121  12.039  0.00  0.00     0.091 H 
ATOM     46  H   H1S d  69       4.673  -2.134  17.460  0.00  0.00     0.085 H 
ATOM     47  H   H1S d  69       6.560  -0.006  13.524  0.00  0.00     0.134 H 
ATOM     48  H   H1S d  69       5.682   0.377   9.697  0.00  0.00     0.076 H 
ATOM     49  H   H1S d  69       4.266  -4.376  12.299  0.00  0.00     0.080 H 
ATOM     50  H   H1S d  69       5.498  -4.128  13.518  0.00  0.00     0.080 H 
ATOM     51  H   H1S d  69       7.931   2.201  12.713  0.00  0.00     0.231 HD
ATOM     52  H   H1S d  69       4.800   1.201  14.661  0.00  0.00     0.097 H 
ATOM     53  H   H1S d  69       4.234  -1.791   9.593  0.00  0.00     0.131 H 
ENDROOT
TORSDOF 16
ENDMDL
MODEL 26
REMARK VINA RESULT:      -5.1      2.825      7.045
REMARK  0 active torsions:
REMARK  status: ('A' for Active; 'I' for Inactive)
REMARK       I    between atoms: O15_1  and  C10_31 
REMARK       I    between atoms: C17_4  and  O25_18 
REMARK       I    between atoms: O28_6  and  S20_15 
REMARK       I    between atoms: O3_7  and  C1_22 
REMARK       I    between atoms: O3_7  and  C7_24 
REMARK       I    between atoms: O30_8  and  S20_15 
REMARK       I    between atoms: C2_10  and  C6_27 
REMARK       I    between atoms: O18_13  and  C12_30 
REMARK       I    between atoms: O18_13  and  S26_34 
REMARK       I    between atoms: S20_15  and  N14_20 
REMARK       I    between atoms: S20_15  and  O29_29 
REMARK       I    between atoms: C4_16  and  O9_17 
REMARK       I    between atoms: N14_20  and  C8_26 
REMARK       I    between atoms: C6_27  and  O11_28 
REMARK       I    between atoms: O11_28  and  S16_32 
REMARK       I    between atoms: C19_33  and  C27_35 
ROOT
ATOM      1  O15 H1S d  69       7.787  -2.227   4.310  0.00  0.00    -0.369 OA
ATOM      2  O22 H1S d  69       7.924   2.568   6.028  0.00  0.00    -0.572 OA
ATOM      3  O31 H1S d  69       5.534  -5.666  12.846  0.00  0.00    -0.572 OA
ATOM      4  C17 H1S d  69       6.248  -1.896  12.446  0.00  0.00     0.086 C 
ATOM      5  O5  H1S d  69       6.761  -0.563   6.061  0.00  0.00    -0.350 OA
ATOM      6  O28 H1S d  69       3.361  -4.614   6.441  0.00  0.00    -0.296 OA
ATOM      7  O3  H1S d  69       6.592  -1.425   9.785  0.00  0.00    -0.348 OA
ATOM      8  O30 H1S d  69       5.465  -5.657   6.516  0.00  0.00    -0.296 OA
ATOM      9  O32 H1S d  69       4.646  -3.977  14.342  0.00  0.00    -0.572 OA
ATOM     10  C2  H1S d  69       6.319  -0.418   7.475  0.00  0.00     0.091 C 
ATOM     11  O35 H1S d  69       2.915   1.146  10.291  0.00  0.00    -0.642 OA
ATOM     12  O13 H1S d  69       4.374  -1.193  10.231  0.00  0.00    -0.311 OA
ATOM     13  O18 H1S d  69       4.555  -3.608  11.924  0.00  0.00    -0.244 OA
ATOM     14  O21 H1S d  69       6.069   2.363   4.459  0.00  0.00    -0.572 OA
ATOM     15  S20 H1S d  69       4.726  -4.488   6.993  0.00  0.00     0.156 S 
ATOM     16  C4  H1S d  69       7.310  -2.817   8.071  0.00  0.00     0.083 C 
ATOM     17  O9  H1S d  69       8.666  -3.289   8.355  0.00  0.00    -0.391 OA
ATOM     18  O25 H1S d  69       7.640  -1.672  12.201  0.00  0.00    -0.389 OA
ATOM     19  O34 H1S d  69       3.757   1.723  12.263  0.00  0.00    -0.642 OA
ATOM     20  N14 H1S d  69       5.392  -3.044   6.586  0.00  0.00    -0.210 NA
ATOM     21  O33 H1S d  69       3.161  -5.165  12.735  0.00  0.00    -0.572 OA
ATOM     22  C1  H1S d  69       7.127  -1.339   8.460  0.00  0.00     0.095 C 
ATOM     23  C24 H1S d  69       5.389  -0.590  12.387  0.00  0.00    -0.034 C 
ATOM     24  C7  H1S d  69       5.417  -2.218  10.105  0.00  0.00     0.167 C 
ATOM     25  O23 H1S d  69       6.014   4.186   6.039  0.00  0.00    -0.572 OA
ATOM     26  C8  H1S d  69       6.874  -3.014   6.622  0.00  0.00     0.081 C 
ATOM     27  C6  H1S d  69       6.363   1.062   7.886  0.00  0.00     0.067 C 
ATOM     28  O11 H1S d  69       5.722   1.894   6.848  0.00  0.00    -0.254 OA
ATOM     29  O29 H1S d  69       4.641  -4.599   8.481  0.00  0.00    -0.296 OA
ATOM     30  C12 H1S d  69       5.737  -2.945  11.423  0.00  0.00     0.135 C 
ATOM     31  C10 H1S d  69       7.475  -1.850   5.767  0.00  0.00     0.147 C 
ATOM     32  S16 H1S d  69       6.421   2.744   5.866  0.00  0.00     0.251 S 
ATOM     33  C19 H1S d  69       4.514  -0.330  11.300  0.00  0.00     0.147 C 
ATOM     34  S26 H1S d  69       4.491  -4.600  12.988  0.00  0.00     0.252 S 
ATOM     35  C27 H1S d  69       3.662   0.948  11.285  0.00  0.00     0.233 C 
ATOM     36  H   H1S d  69       8.155  -1.456   3.849  0.00  0.00     0.212 HD
ATOM     37  H   H1S d  69       6.139  -2.259  13.446  0.00  0.00     0.093 H 
ATOM     38  H   H1S d  69       3.395  -4.543   5.474  0.00  0.00     0.231 HD
ATOM     39  H   H1S d  69       5.542  -5.619   5.550  0.00  0.00     0.231 HD
ATOM     40  H   H1S d  69       5.306  -0.756   7.544  0.00  0.00     0.090 H 
ATOM     41  H   H1S d  69       6.679  -3.432   8.679  0.00  0.00     0.089 H 
ATOM     42  H   H1S d  69       9.303  -2.774   7.835  0.00  0.00     0.210 HD
ATOM     43  H   H1S d  69       7.760  -1.342  11.296  0.00  0.00     0.210 HD
ATOM     44  H   H1S d  69       5.044  -2.339   7.236  0.00  0.00     0.140 HD
ATOM     45  H   H1S d  69       8.057  -0.813   8.403  0.00  0.00     0.091 H 
ATOM     46  H   H1S d  69       5.459   0.096  13.154  0.00  0.00     0.085 H 
ATOM     47  H   H1S d  69       5.120  -2.968   9.402  0.00  0.00     0.134 H 
ATOM     48  H   H1S d  69       7.230  -3.937   6.213  0.00  0.00     0.076 H 
ATOM     49  H   H1S d  69       7.382   1.367   8.004  0.00  0.00     0.080 H 
ATOM     50  H   H1S d  69       5.838   1.186   8.810  0.00  0.00     0.080 H 
ATOM     51  H   H1S d  69       4.247  -5.454   8.719  0.00  0.00     0.231 HD
ATOM     52  H   H1S d  69       6.489  -3.688  11.261  0.00  0.00     0.097 H 
ATOM     53  H   H1S d  69       8.478  -1.650   6.081  0.00  0.00     0.131 H 
ENDROOT
TORSDOF 16
ENDMDL
MODEL 27
REMARK VINA RESULT:      -5.1      3.279      7.754
REMARK  0 active torsions:
REMARK  status: ('A' for Active; 'I' for Inactive)
REMARK       I    between atoms: O15_1  and  C10_31 
REMARK       I    between atoms: C17_4  and  O25_18 
REMARK       I    between atoms: O28_6  and  S20_15 
REMARK       I    between atoms: O3_7  and  C1_22 
REMARK       I    between atoms: O3_7  and  C7_24 
REMARK       I    between atoms: O30_8  and  S20_15 
REMARK       I    between atoms: C2_10  and  C6_27 
REMARK       I    between atoms: O18_13  and  C12_30 
REMARK       I    between atoms: O18_13  and  S26_34 
REMARK       I    between atoms: S20_15  and  N14_20 
REMARK       I    between atoms: S20_15  and  O29_29 
REMARK       I    between atoms: C4_16  and  O9_17 
REMARK       I    between atoms: N14_20  and  C8_26 
REMARK       I    between atoms: C6_27  and  O11_28 
REMARK       I    between atoms: O11_28  and  S16_32 
REMARK       I    between atoms: C19_33  and  C27_35 
ROOT
ATOM      1  O15 H1S d  69       0.997   3.154   5.939  0.00  0.00    -0.369 OA
ATOM      2  O22 H1S d  69       4.989   0.895   3.721  0.00  0.00    -0.572 OA
ATOM      3  O31 H1S d  69       3.529   0.120  14.550  0.00  0.00    -0.572 OA
ATOM      4  C17 H1S d  69       5.574  -0.984  11.470  0.00  0.00     0.086 C 
ATOM      5  O5  H1S d  69       3.493   2.423   6.286  0.00  0.00    -0.350 OA
ATOM      6  O28 H1S d  69       2.797   5.581  10.488  0.00  0.00    -0.296 OA
ATOM      7  O3  H1S d  69       4.572   0.358   9.322  0.00  0.00    -0.348 OA
ATOM      8  O30 H1S d  69       0.886   4.214  10.509  0.00  0.00    -0.296 OA
ATOM      9  O32 H1S d  69       5.855  -0.555  14.668  0.00  0.00    -0.572 OA
ATOM     10  C2  H1S d  69       4.451   1.812   7.250  0.00  0.00     0.091 C 
ATOM     11  O35 H1S d  69       8.704   2.175   9.184  0.00  0.00    -0.642 OA
ATOM     12  O13 H1S d  69       6.205   1.656  10.229  0.00  0.00    -0.311 OA
ATOM     13  O18 H1S d  69       5.137   0.975  12.898  0.00  0.00    -0.244 OA
ATOM     14  O21 H1S d  69       5.252   3.309   3.506  0.00  0.00    -0.572 OA
ATOM     15  S20 H1S d  69       2.331   4.195  10.277  0.00  0.00     0.156 S 
ATOM     16  C4  H1S d  69       2.459   1.233   8.921  0.00  0.00     0.083 C 
ATOM     17  O9  H1S d  69       1.467   0.157   8.948  0.00  0.00    -0.391 OA
ATOM     18  O25 H1S d  69       4.821  -1.903  10.671  0.00  0.00    -0.389 OA
ATOM     19  O34 H1S d  69       9.457   0.166   9.759  0.00  0.00    -0.642 OA
ATOM     20  N14 H1S d  69       2.779   3.645   8.797  0.00  0.00    -0.210 NA
ATOM     21  O33 H1S d  69       5.203   1.828  14.970  0.00  0.00    -0.572 OA
ATOM     22  C1  H1S d  69       3.761   0.792   8.225  0.00  0.00     0.095 C 
ATOM     23  C24 H1S d  69       6.955  -0.602  10.843  0.00  0.00    -0.034 C 
ATOM     24  C7  H1S d  69       4.835   1.195  10.480  0.00  0.00     0.167 C 
ATOM     25  O23 H1S d  69       7.225   1.936   3.294  0.00  0.00    -0.572 OA
ATOM     26  C8  H1S d  69       1.959   2.524   8.279  0.00  0.00     0.081 C 
ATOM     27  C6  H1S d  69       5.631   1.190   6.488  0.00  0.00     0.067 C 
ATOM     28  O11 H1S d  69       6.140   2.142   5.480  0.00  0.00    -0.254 OA
ATOM     29  O29 H1S d  69       2.934   3.331  11.337  0.00  0.00    -0.296 OA
ATOM     30  C12 H1S d  69       4.704   0.278  11.709  0.00  0.00     0.135 C 
ATOM     31  C10 H1S d  69       2.059   2.369   6.725  0.00  0.00     0.147 C 
ATOM     32  S16 H1S d  69       5.912   2.066   4.025  0.00  0.00     0.251 S 
ATOM     33  C19 H1S d  69       7.180   0.678  10.276  0.00  0.00     0.147 C 
ATOM     34  S26 H1S d  69       4.936   0.562  14.280  0.00  0.00     0.252 S 
ATOM     35  C27 H1S d  69       8.556   1.033   9.694  0.00  0.00     0.233 C 
ATOM     36  H   H1S d  69       1.125   3.007   4.988  0.00  0.00     0.212 HD
ATOM     37  H   H1S d  69       5.809  -1.463  12.397  0.00  0.00     0.093 H 
ATOM     38  H   H1S d  69       2.416   6.158   9.808  0.00  0.00     0.231 HD
ATOM     39  H   H1S d  69       0.457   4.767   9.837  0.00  0.00     0.231 HD
ATOM     40  H   H1S d  69       4.830   2.590   7.880  0.00  0.00     0.090 H 
ATOM     41  H   H1S d  69       2.654   1.445   9.951  0.00  0.00     0.089 H 
ATOM     42  H   H1S d  69       1.238  -0.094   8.040  0.00  0.00     0.210 HD
ATOM     43  H   H1S d  69       4.597  -1.486   9.824  0.00  0.00     0.210 HD
ATOM     44  H   H1S d  69       3.747   3.330   8.855  0.00  0.00     0.140 HD
ATOM     45  H   H1S d  69       3.566   0.027   7.503  0.00  0.00     0.091 H 
ATOM     46  H   H1S d  69       7.719  -1.296  10.842  0.00  0.00     0.085 H 
ATOM     47  H   H1S d  69       4.185   2.029  10.646  0.00  0.00     0.134 H 
ATOM     48  H   H1S d  69       0.936   2.727   8.521  0.00  0.00     0.076 H 
ATOM     49  H   H1S d  69       5.305   0.297   5.998  0.00  0.00     0.080 H 
ATOM     50  H   H1S d  69       6.413   0.959   7.180  0.00  0.00     0.080 H 
ATOM     51  H   H1S d  69       2.668   3.658  12.211  0.00  0.00     0.231 HD
ATOM     52  H   H1S d  69       3.682  -0.008  11.849  0.00  0.00     0.097 H 
ATOM     53  H   H1S d  69       1.752   1.386   6.437  0.00  0.00     0.131 H 
ENDROOT
TORSDOF 16
ENDMDL
MODEL 28
REMARK VINA RESULT:      -5.1      3.615      7.639
REMARK  0 active torsions:
REMARK  status: ('A' for Active; 'I' for Inactive)
REMARK       I    between atoms: O15_1  and  C10_31 
REMARK       I    between atoms: C17_4  and  O25_18 
REMARK       I    between atoms: O28_6  and  S20_15 
REMARK       I    between atoms: O3_7  and  C1_22 
REMARK       I    between atoms: O3_7  and  C7_24 
REMARK       I    between atoms: O30_8  and  S20_15 
REMARK       I    between atoms: C2_10  and  C6_27 
REMARK       I    between atoms: O18_13  and  C12_30 
REMARK       I    between atoms: O18_13  and  S26_34 
REMARK       I    between atoms: S20_15  and  N14_20 
REMARK       I    between atoms: S20_15  and  O29_29 
REMARK       I    between atoms: C4_16  and  O9_17 
REMARK       I    between atoms: N14_20  and  C8_26 
REMARK       I    between atoms: C6_27  and  O11_28 
REMARK       I    between atoms: O11_28  and  S16_32 
REMARK       I    between atoms: C19_33  and  C27_35 
ROOT
ATOM      1  O15 H1S d  69       0.663   5.283   9.617  0.00  0.00    -0.369 OA
ATOM      2  O22 H1S d  69       0.548   3.742   4.763  0.00  0.00    -0.572 OA
ATOM      3  O31 H1S d  69       6.406  -1.805  12.172  0.00  0.00    -0.572 OA
ATOM      4  C17 H1S d  69       5.100  -1.633   8.546  0.00  0.00     0.086 C 
ATOM      5  O5  H1S d  69       2.042   4.094   7.729  0.00  0.00    -0.350 OA
ATOM      6  O28 H1S d  69       5.841   4.963  11.324  0.00  0.00    -0.296 OA
ATOM      7  O3  H1S d  69       3.717   0.702   8.305  0.00  0.00    -0.348 OA
ATOM      8  O30 H1S d  69       4.080   4.067  12.595  0.00  0.00    -0.296 OA
ATOM      9  O32 H1S d  69       7.561  -2.812  10.291  0.00  0.00    -0.572 OA
ATOM     10  C2  H1S d  69       2.962   2.960   7.436  0.00  0.00     0.091 C 
ATOM     11  O35 H1S d  69       6.936   1.696   5.298  0.00  0.00    -0.642 OA
ATOM     12  O13 H1S d  69       5.888   1.145   7.788  0.00  0.00    -0.311 OA
ATOM     13  O18 H1S d  69       6.682  -0.537  10.084  0.00  0.00    -0.244 OA
ATOM     14  O21 H1S d  69       1.683   5.898   4.861  0.00  0.00    -0.572 OA
ATOM     15  S20 H1S d  69       4.782   3.933  11.318  0.00  0.00     0.156 S 
ATOM     16  C4  H1S d  69       2.598   1.982   9.886  0.00  0.00     0.083 C 
ATOM     17  O9  H1S d  69       1.525   1.190  10.490  0.00  0.00    -0.391 OA
ATOM     18  O25 H1S d  69       3.701  -1.935   8.502  0.00  0.00    -0.389 OA
ATOM     19  O34 H1S d  69       6.831  -0.437   4.686  0.00  0.00    -0.642 OA
ATOM     20  N14 H1S d  69       3.826   4.083   9.993  0.00  0.00    -0.210 NA
ATOM     21  O33 H1S d  69       8.473  -0.783  11.409  0.00  0.00    -0.572 OA
ATOM     22  C1  H1S d  69       2.716   1.723   8.372  0.00  0.00     0.095 C 
ATOM     23  C24 H1S d  69       5.691  -1.222   7.157  0.00  0.00    -0.034 C 
ATOM     24  C7  H1S d  69       5.020   0.841   8.932  0.00  0.00     0.167 C 
ATOM     25  O23 H1S d  69       2.086   4.496   2.938  0.00  0.00    -0.572 OA
ATOM     26  C8  H1S d  69       2.478   3.483  10.132  0.00  0.00     0.081 C 
ATOM     27  C6  H1S d  69       2.879   2.594   5.946  0.00  0.00     0.067 C 
ATOM     28  O11 H1S d  69       2.965   3.814   5.120  0.00  0.00    -0.254 OA
ATOM     29  O29 H1S d  69       5.436   2.589  11.315  0.00  0.00    -0.296 OA
ATOM     30  C12 H1S d  69       5.322  -0.513   9.597  0.00  0.00     0.135 C 
ATOM     31  C10 H1S d  69       1.448   4.065   9.107  0.00  0.00     0.147 C 
ATOM     32  S16 H1S d  69       1.841   4.471   4.426  0.00  0.00     0.251 S 
ATOM     33  C19 H1S d  69       6.048   0.121   6.874  0.00  0.00     0.147 C 
ATOM     34  S26 H1S d  69       7.275  -1.515  10.985  0.00  0.00     0.252 S 
ATOM     35  C27 H1S d  69       6.653   0.488   5.511  0.00  0.00     0.233 C 
ATOM     36  H   H1S d  69       0.049   5.584   8.929  0.00  0.00     0.212 HD
ATOM     37  H   H1S d  69       5.626  -2.522   8.823  0.00  0.00     0.093 H 
ATOM     38  H   H1S d  69       5.436   5.845  11.326  0.00  0.00     0.231 HD
ATOM     39  H   H1S d  69       3.640   4.930  12.634  0.00  0.00     0.231 HD
ATOM     40  H   H1S d  69       3.961   3.278   7.649  0.00  0.00     0.090 H 
ATOM     41  H   H1S d  69       3.487   1.650  10.380  0.00  0.00     0.089 H 
ATOM     42  H   H1S d  69       0.677   1.437  10.089  0.00  0.00     0.210 HD
ATOM     43  H   H1S d  69       3.206  -1.140   8.252  0.00  0.00     0.210 HD
ATOM     44  H   H1S d  69       4.296   3.630   9.209  0.00  0.00     0.140 HD
ATOM     45  H   H1S d  69       1.772   1.429   7.963  0.00  0.00     0.091 H 
ATOM     46  H   H1S d  69       5.824  -1.944   6.432  0.00  0.00     0.085 H 
ATOM     47  H   H1S d  69       5.127   1.588   9.690  0.00  0.00     0.134 H 
ATOM     48  H   H1S d  69       2.119   3.706  11.115  0.00  0.00     0.076 H 
ATOM     49  H   H1S d  69       1.950   2.101   5.753  0.00  0.00     0.080 H 
ATOM     50  H   H1S d  69       3.693   1.944   5.698  0.00  0.00     0.080 H 
ATOM     51  H   H1S d  69       6.000   2.503  12.100  0.00  0.00     0.231 HD
ATOM     52  H   H1S d  69       4.671  -0.667  10.433  0.00  0.00     0.097 H 
ATOM     53  H   H1S d  69       0.621   3.396   9.002  0.00  0.00     0.131 H 
ENDROOT
TORSDOF 16
ENDMDL
MODEL 29
REMARK VINA RESULT:      -5.1      2.986      6.529
REMARK  0 active torsions:
REMARK  status: ('A' for Active; 'I' for Inactive)
REMARK       I    between atoms: O15_1  and  C10_31 
REMARK       I    between atoms: C17_4  and  O25_18 
REMARK       I    between atoms: O28_6  and  S20_15 
REMARK       I    between atoms: O3_7  and  C1_22 
REMARK       I    between atoms: O3_7  and  C7_24 
REMARK       I    between atoms: O30_8  and  S20_15 
REMARK       I    between atoms: C2_10  and  C6_27 
REMARK       I    between atoms: O18_13  and  C12_30 
REMARK       I    between atoms: O18_13  and  S26_34 
REMARK       I    between atoms: S20_15  and  N14_20 
REMARK       I    between atoms: S20_15  and  O29_29 
REMARK       I    between atoms: C4_16  and  O9_17 
REMARK       I    between atoms: N14_20  and  C8_26 
REMARK       I    between atoms: C6_27  and  O11_28 
REMARK       I    between atoms: O11_28  and  S16_32 
REMARK       I    between atoms: C19_33  and  C27_35 
ROOT
ATOM      1  O15 H1S d  69       7.550  -3.588   9.183  0.00  0.00    -0.369 OA
ATOM      2  O22 H1S d  69       6.845  -2.172  14.025  0.00  0.00    -0.572 OA
ATOM      3  O31 H1S d  69       1.395   2.855   5.962  0.00  0.00    -0.572 OA
ATOM      4  C17 H1S d  69       1.910   2.455   9.765  0.00  0.00     0.086 C 
ATOM      5  O5  H1S d  69       6.984  -1.558  10.746  0.00  0.00    -0.350 OA
ATOM      6  O28 H1S d  69       7.968   0.957   6.183  0.00  0.00    -0.296 OA
ATOM      7  O3  H1S d  69       3.937   0.668  10.114  0.00  0.00    -0.348 OA
ATOM      8  O30 H1S d  69       6.545  -0.801   5.543  0.00  0.00    -0.296 OA
ATOM      9  O32 H1S d  69       0.960   4.628   7.559  0.00  0.00    -0.572 OA
ATOM     10  C2  H1S d  69       6.115  -0.358  10.901  0.00  0.00     0.091 C 
ATOM     11  O35 H1S d  69       6.026   4.195  12.008  0.00  0.00    -0.642 OA
ATOM     12  O13 H1S d  69       4.874   2.736   9.971  0.00  0.00    -0.311 OA
ATOM     13  O18 H1S d  69       3.022   3.322   7.746  0.00  0.00    -0.244 OA
ATOM     14  O21 H1S d  69       9.134  -1.625  13.387  0.00  0.00    -0.572 OA
ATOM     15  S20 H1S d  69       6.766   0.199   6.588  0.00  0.00     0.156 S 
ATOM     16  C4  H1S d  69       4.692  -1.063   8.764  0.00  0.00     0.083 C 
ATOM     17  O9  H1S d  69       3.617  -2.036   8.565  0.00  0.00    -0.391 OA
ATOM     18  O25 H1S d  69       1.351   1.218  10.219  0.00  0.00    -0.389 OA
ATOM     19  O34 H1S d  69       4.046   4.738  12.856  0.00  0.00    -0.642 OA
ATOM     20  N14 H1S d  69       6.945  -0.418   8.098  0.00  0.00    -0.210 NA
ATOM     21  O33 H1S d  69       2.913   4.749   6.020  0.00  0.00    -0.572 OA
ATOM     22  C1  H1S d  69       4.716  -0.528  10.208  0.00  0.00     0.095 C 
ATOM     23  C24 H1S d  69       2.653   3.251  10.888  0.00  0.00    -0.034 C 
ATOM     24  C7  H1S d  69       4.221   1.714   9.145  0.00  0.00     0.167 C 
ATOM     25  O23 H1S d  69       8.178  -0.458  15.270  0.00  0.00    -0.572 OA
ATOM     26  C8  H1S d  69       6.078  -1.584   8.397  0.00  0.00     0.081 C 
ATOM     27  C6  H1S d  69       5.994   0.008  12.389  0.00  0.00     0.067 C 
ATOM     28  O11 H1S d  69       7.328   0.004  13.021  0.00  0.00    -0.254 OA
ATOM     29  O29 H1S d  69       5.595   1.128   6.561  0.00  0.00    -0.296 OA
ATOM     30  C12 H1S d  69       2.860   2.152   8.576  0.00  0.00     0.135 C 
ATOM     31  C10 H1S d  69       6.611  -2.442   9.591  0.00  0.00     0.147 C 
ATOM     32  S16 H1S d  69       7.858  -1.041  13.917  0.00  0.00     0.251 S 
ATOM     33  C19 H1S d  69       4.068   3.344  10.914  0.00  0.00     0.147 C 
ATOM     34  S26 H1S d  69       2.042   3.891   6.830  0.00  0.00     0.252 S 
ATOM     35  C27 H1S d  69       4.767   4.157  12.014  0.00  0.00     0.233 C 
ATOM     36  H   H1S d  69       7.835  -4.070   9.974  0.00  0.00     0.212 HD
ATOM     37  H   H1S d  69       1.107   3.090   9.455  0.00  0.00     0.093 H 
ATOM     38  H   H1S d  69       8.740   0.370   6.194  0.00  0.00     0.231 HD
ATOM     39  H   H1S d  69       7.288  -1.425   5.530  0.00  0.00     0.231 HD
ATOM     40  H   H1S d  69       6.583   0.459  10.392  0.00  0.00     0.090 H 
ATOM     41  H   H1S d  69       4.462  -0.267   8.087  0.00  0.00     0.089 H 
ATOM     42  H   H1S d  69       3.756  -2.796   9.150  0.00  0.00     0.210 HD
ATOM     43  H   H1S d  69       2.065   0.627  10.505  0.00  0.00     0.210 HD
ATOM     44  H   H1S d  69       6.729   0.318   8.770  0.00  0.00     0.140 HD
ATOM     45  H   H1S d  69       4.316  -1.251  10.888  0.00  0.00     0.091 H 
ATOM     46  H   H1S d  69       2.102   3.718  11.625  0.00  0.00     0.085 H 
ATOM     47  H   H1S d  69       4.838   1.459   8.309  0.00  0.00     0.134 H 
ATOM     48  H   H1S d  69       6.060  -2.209   7.529  0.00  0.00     0.076 H 
ATOM     49  H   H1S d  69       5.368  -0.708  12.879  0.00  0.00     0.080 H 
ATOM     50  H   H1S d  69       5.566   0.985  12.476  0.00  0.00     0.080 H 
ATOM     51  H   H1S d  69       5.491   1.491   5.668  0.00  0.00     0.231 HD
ATOM     52  H   H1S d  69       2.445   1.373   7.971  0.00  0.00     0.097 H 
ATOM     53  H   H1S d  69       5.819  -3.042   9.989  0.00  0.00     0.131 H 
ENDROOT
TORSDOF 16
ENDMDL
MODEL 30
REMARK VINA RESULT:      -5.0      3.488      6.297
REMARK  0 active torsions:
REMARK  status: ('A' for Active; 'I' for Inactive)
REMARK       I    between atoms: O15_1  and  C10_31 
REMARK       I    between atoms: C17_4  and  O25_18 
REMARK       I    between atoms: O28_6  and  S20_15 
REMARK       I    between atoms: O3_7  and  C1_22 
REMARK       I    between atoms: O3_7  and  C7_24 
REMARK       I    between atoms: O30_8  and  S20_15 
REMARK       I    between atoms: C2_10  and  C6_27 
REMARK       I    between atoms: O18_13  and  C12_30 
REMARK       I    between atoms: O18_13  and  S26_34 
REMARK       I    between atoms: S20_15  and  N14_20 
REMARK       I    between atoms: S20_15  and  O29_29 
REMARK       I    between atoms: C4_16  and  O9_17 
REMARK       I    between atoms: N14_20  and  C8_26 
REMARK       I    between atoms: C6_27  and  O11_28 
REMARK       I    between atoms: O11_28  and  S16_32 
REMARK       I    between atoms: C19_33  and  C27_35 
ROOT
ATOM      1  O15 H1S d  69       5.463  -0.447  18.614  0.00  0.00    -0.369 OA
ATOM      2  O22 H1S d  69       5.099   2.715  14.636  0.00  0.00    -0.572 OA
ATOM      3  O31 H1S d  69       5.326  -8.123  13.062  0.00  0.00    -0.572 OA
ATOM      4  C17 H1S d  69       4.899  -4.629  11.483  0.00  0.00     0.086 C 
ATOM      5  O5  H1S d  69       6.081  -0.130  16.084  0.00  0.00    -0.350 OA
ATOM      6  O28 H1S d  69       9.097  -4.313  17.318  0.00  0.00    -0.296 OA
ATOM      7  O3  H1S d  69       5.261  -2.803  13.471  0.00  0.00    -0.348 OA
ATOM      8  O30 H1S d  69       7.000  -4.864  18.224  0.00  0.00    -0.296 OA
ATOM      9  O32 H1S d  69       5.877  -7.630  10.752  0.00  0.00    -0.572 OA
ATOM     10  C2  H1S d  69       6.154  -0.814  14.763  0.00  0.00     0.091 C 
ATOM     11  O35 H1S d  69       8.796  -1.540  10.961  0.00  0.00    -0.642 OA
ATOM     12  O13 H1S d  69       7.302  -3.221  12.556  0.00  0.00    -0.311 OA
ATOM     13  O18 H1S d  69       6.594  -6.089  12.514  0.00  0.00    -0.244 OA
ATOM     14  O21 H1S d  69       7.281   3.032  15.677  0.00  0.00    -0.572 OA
ATOM     15  S20 H1S d  69       7.643  -4.256  17.059  0.00  0.00     0.156 S 
ATOM     16  C4  H1S d  69       4.944  -2.964  15.765  0.00  0.00     0.083 C 
ATOM     17  O9  H1S d  69       3.541  -3.272  16.048  0.00  0.00    -0.391 OA
ATOM     18  O25 H1S d  69       3.625  -4.075  11.828  0.00  0.00    -0.389 OA
ATOM     19  O34 H1S d  69       7.506  -1.927   9.195  0.00  0.00    -0.642 OA
ATOM     20  N14 H1S d  69       7.165  -2.720  16.737  0.00  0.00    -0.210 NA
ATOM     21  O33 H1S d  69       7.669  -8.054  12.427  0.00  0.00    -0.572 OA
ATOM     22  C1  H1S d  69       5.085  -1.955  14.611  0.00  0.00     0.095 C 
ATOM     23  C24 H1S d  69       5.800  -3.651  10.659  0.00  0.00    -0.034 C 
ATOM     24  C7  H1S d  69       6.282  -3.836  13.414  0.00  0.00     0.167 C 
ATOM     25  O23 H1S d  69       7.010   3.738  13.385  0.00  0.00    -0.572 OA
ATOM     26  C8  H1S d  69       5.725  -2.458  16.974  0.00  0.00     0.081 C 
ATOM     27  C6  H1S d  69       6.071   0.224  13.633  0.00  0.00     0.067 C 
ATOM     28  O11 H1S d  69       6.990   1.346  13.909  0.00  0.00    -0.254 OA
ATOM     29  O29 H1S d  69       7.343  -5.132  15.885  0.00  0.00    -0.296 OA
ATOM     30  C12 H1S d  69       5.608  -5.070  12.791  0.00  0.00     0.135 C 
ATOM     31  C10 H1S d  69       5.410  -0.936  17.158  0.00  0.00     0.147 C 
ATOM     32  S16 H1S d  69       6.600   2.687  14.385  0.00  0.00     0.251 S 
ATOM     33  C19 H1S d  69       6.932  -3.024  11.240  0.00  0.00     0.147 C 
ATOM     34  S26 H1S d  69       6.344  -7.481  12.168  0.00  0.00     0.252 S 
ATOM     35  C27 H1S d  69       7.813  -2.090  10.398  0.00  0.00     0.233 C 
ATOM     36  H   H1S d  69       5.257   0.500  18.644  0.00  0.00     0.212 HD
ATOM     37  H   H1S d  69       4.735  -5.468  10.840  0.00  0.00     0.093 H 
ATOM     38  H   H1S d  69       9.312  -3.749  18.078  0.00  0.00     0.231 HD
ATOM     39  H   H1S d  69       7.173  -4.321  19.009  0.00  0.00     0.231 HD
ATOM     40  H   H1S d  69       7.102  -1.308  14.697  0.00  0.00     0.090 H 
ATOM     41  H   H1S d  69       5.373  -3.902  15.481  0.00  0.00     0.089 H 
ATOM     42  H   H1S d  69       3.080  -2.462  16.316  0.00  0.00     0.210 HD
ATOM     43  H   H1S d  69       3.753  -3.311  12.413  0.00  0.00     0.210 HD
ATOM     44  H   H1S d  69       7.366  -2.523  15.756  0.00  0.00     0.140 HD
ATOM     45  H   H1S d  69       4.223  -1.324  14.550  0.00  0.00     0.091 H 
ATOM     46  H   H1S d  69       5.566  -3.458   9.673  0.00  0.00     0.085 H 
ATOM     47  H   H1S d  69       6.715  -4.155  14.339  0.00  0.00     0.134 H 
ATOM     48  H   H1S d  69       5.445  -2.959  17.877  0.00  0.00     0.076 H 
ATOM     49  H   H1S d  69       5.070   0.595  13.566  0.00  0.00     0.080 H 
ATOM     50  H   H1S d  69       6.349  -0.239  12.710  0.00  0.00     0.080 H 
ATOM     51  H   H1S d  69       7.626  -6.039  16.078  0.00  0.00     0.231 HD
ATOM     52  H   H1S d  69       4.890  -5.482  13.470  0.00  0.00     0.097 H 
ATOM     53  H   H1S d  69       4.370  -0.757  16.985  0.00  0.00     0.131 H 
ENDROOT
TORSDOF 16
ENDMDL
MODEL 31
REMARK VINA RESULT:      -5.0      4.087      6.248
REMARK  0 active torsions:
REMARK  status: ('A' for Active; 'I' for Inactive)
REMARK       I    between atoms: O15_1  and  C10_31 
REMARK       I    between atoms: C17_4  and  O25_18 
REMARK       I    between atoms: O28_6  and  S20_15 
REMARK       I    between atoms: O3_7  and  C1_22 
REMARK       I    between atoms: O3_7  and  C7_24 
REMARK       I    between atoms: O30_8  and  S20_15 
REMARK       I    between atoms: C2_10  and  C6_27 
REMARK       I    between atoms: O18_13  and  C12_30 
REMARK       I    between atoms: O18_13  and  S26_34 
REMARK       I    between atoms: S20_15  and  N14_20 
REMARK       I    between atoms: S20_15  and  O29_29 
REMARK       I    between atoms: C4_16  and  O9_17 
REMARK       I    between atoms: N14_20  and  C8_26 
REMARK       I    between atoms: C6_27  and  O11_28 
REMARK       I    between atoms: O11_28  and  S16_32 
REMARK       I    between atoms: C19_33  and  C27_35 
ROOT
ATOM      1  O15 H1S d  69       6.970   1.870  18.583  0.00  0.00    -0.369 OA
ATOM      2  O22 H1S d  69       4.261  -2.114  16.928  0.00  0.00    -0.572 OA
ATOM      3  O31 H1S d  69       9.337   4.454   9.781  0.00  0.00    -0.572 OA
ATOM      4  C17 H1S d  69       7.290   1.230  10.328  0.00  0.00     0.086 C 
ATOM      5  O5  H1S d  69       5.486   0.976  16.612  0.00  0.00    -0.350 OA
ATOM      6  O28 H1S d  69       5.767   6.125  15.377  0.00  0.00    -0.296 OA
ATOM      7  O3  H1S d  69       6.689   1.105  12.982  0.00  0.00    -0.348 OA
ATOM      8  O30 H1S d  69       7.995   5.558  15.868  0.00  0.00    -0.296 OA
ATOM      9  O32 H1S d  69       7.885   3.496   8.091  0.00  0.00    -0.572 OA
ATOM     10  C2  H1S d  69       5.359   0.910  15.130  0.00  0.00     0.091 C 
ATOM     11  O35 H1S d  69       2.434   1.426  11.505  0.00  0.00    -0.642 OA
ATOM     12  O13 H1S d  69       5.020   2.267  11.964  0.00  0.00    -0.311 OA
ATOM     13  O18 H1S d  69       7.085   3.683  10.397  0.00  0.00    -0.244 OA
ATOM     14  O21 H1S d  69       2.733  -0.515  17.953  0.00  0.00    -0.572 OA
ATOM     15  S20 H1S d  69       6.786   5.068  15.204  0.00  0.00     0.156 S 
ATOM     16  C4  H1S d  69       7.777   1.985  14.834  0.00  0.00     0.083 C 
ATOM     17  O9  H1S d  69       9.128   1.428  14.922  0.00  0.00    -0.391 OA
ATOM     18  O25 H1S d  69       8.102   0.216  10.930  0.00  0.00    -0.389 OA
ATOM     19  O34 H1S d  69       3.065   0.122   9.821  0.00  0.00    -0.642 OA
ATOM     20  N14 H1S d  69       6.235   3.627  15.762  0.00  0.00    -0.210 NA
ATOM     21  O33 H1S d  69       7.265   5.605   9.257  0.00  0.00    -0.572 OA
ATOM     22  C1  H1S d  69       6.750   0.923  14.401  0.00  0.00     0.095 C 
ATOM     23  C24 H1S d  69       5.796   0.804  10.149  0.00  0.00    -0.034 C 
ATOM     24  C7  H1S d  69       6.424   2.395  12.369  0.00  0.00     0.167 C 
ATOM     25  O23 H1S d  69       1.814  -2.119  16.402  0.00  0.00    -0.572 OA
ATOM     26  C8  H1S d  69       7.296   2.655  16.118  0.00  0.00     0.081 C 
ATOM     27  C6  H1S d  69       4.499  -0.301  14.735  0.00  0.00     0.067 C 
ATOM     28  O11 H1S d  69       3.276  -0.344  15.561  0.00  0.00    -0.254 OA
ATOM     29  O29 H1S d  69       7.100   4.956  13.747  0.00  0.00    -0.296 OA
ATOM     30  C12 H1S d  69       7.402   2.517  11.187  0.00  0.00     0.135 C 
ATOM     31  C10 H1S d  69       6.792   1.540  17.093  0.00  0.00     0.147 C 
ATOM     32  S16 H1S d  69       3.023  -1.263  16.686  0.00  0.00     0.251 S 
ATOM     33  C19 H1S d  69       4.770   1.348  10.964  0.00  0.00     0.147 C 
ATOM     34  S26 H1S d  69       7.907   4.291   9.361  0.00  0.00     0.252 S 
ATOM     35  C27 H1S d  69       3.308   0.931  10.745  0.00  0.00     0.233 C 
ATOM     36  H   H1S d  69       6.636   1.134  19.120  0.00  0.00     0.212 HD
ATOM     37  H   H1S d  69       7.653   1.403   9.337  0.00  0.00     0.093 H 
ATOM     38  H   H1S d  69       5.549   6.213  16.318  0.00  0.00     0.231 HD
ATOM     39  H   H1S d  69       7.829   5.644  16.820  0.00  0.00     0.231 HD
ATOM     40  H   H1S d  69       4.861   1.798  14.799  0.00  0.00     0.090 H 
ATOM     41  H   H1S d  69       7.849   2.746  14.086  0.00  0.00     0.089 H 
ATOM     42  H   H1S d  69       9.145   0.723  15.588  0.00  0.00     0.210 HD
ATOM     43  H   H1S d  69       7.788   0.044  11.832  0.00  0.00     0.210 HD
ATOM     44  H   H1S d  69       5.651   3.208  15.038  0.00  0.00     0.140 HD
ATOM     45  H   H1S d  69       7.066  -0.056  14.697  0.00  0.00     0.091 H 
ATOM     46  H   H1S d  69       5.551   0.113   9.423  0.00  0.00     0.085 H 
ATOM     47  H   H1S d  69       6.560   3.268  12.974  0.00  0.00     0.134 H 
ATOM     48  H   H1S d  69       8.079   3.191  16.614  0.00  0.00     0.076 H 
ATOM     49  H   H1S d  69       5.061  -1.199  14.888  0.00  0.00     0.080 H 
ATOM     50  H   H1S d  69       4.225  -0.216  13.704  0.00  0.00     0.080 H 
ATOM     51  H   H1S d  69       7.426   5.809  13.419  0.00  0.00     0.231 HD
ATOM     52  H   H1S d  69       8.404   2.625  11.547  0.00  0.00     0.097 H 
ATOM     53  H   H1S d  69       7.451   0.698  17.054  0.00  0.00     0.131 H 
ENDROOT
TORSDOF 16
ENDMDL
MODEL 32
REMARK VINA RESULT:      -4.9      3.046      4.454
REMARK  0 active torsions:
REMARK  status: ('A' for Active; 'I' for Inactive)
REMARK       I    between atoms: O15_1  and  C10_31 
REMARK       I    between atoms: C17_4  and  O25_18 
REMARK       I    between atoms: O28_6  and  S20_15 
REMARK       I    between atoms: O3_7  and  C1_22 
REMARK       I    between atoms: O3_7  and  C7_24 
REMARK       I    between atoms: O30_8  and  S20_15 
REMARK       I    between atoms: C2_10  and  C6_27 
REMARK       I    between atoms: O18_13  and  C12_30 
REMARK       I    between atoms: O18_13  and  S26_34 
REMARK       I    between atoms: S20_15  and  N14_20 
REMARK       I    between atoms: S20_15  and  O29_29 
REMARK       I    between atoms: C4_16  and  O9_17 
REMARK       I    between atoms: N14_20  and  C8_26 
REMARK       I    between atoms: C6_27  and  O11_28 
REMARK       I    between atoms: O11_28  and  S16_32 
REMARK       I    between atoms: C19_33  and  C27_35 
ROOT
ATOM      1  O15 H1S d  69       4.000   4.625  13.176  0.00  0.00    -0.369 OA
ATOM      2  O22 H1S d  69       6.012   0.096  14.355  0.00  0.00    -0.572 OA
ATOM      3  O31 H1S d  69       5.696   3.443   3.930  0.00  0.00    -0.572 OA
ATOM      4  C17 H1S d  69       6.900   0.770   6.438  0.00  0.00     0.086 C 
ATOM      5  O5  H1S d  69       4.385   2.177  12.312  0.00  0.00    -0.350 OA
ATOM      6  O28 H1S d  69       0.867   3.934   8.756  0.00  0.00    -0.296 OA
ATOM      7  O3  H1S d  69       5.943   1.483   8.887  0.00  0.00    -0.348 OA
ATOM      8  O30 H1S d  69       2.439   5.676   8.877  0.00  0.00    -0.296 OA
ATOM      9  O32 H1S d  69       6.073   1.124   3.327  0.00  0.00    -0.572 OA
ATOM     10  C2  H1S d  69       4.763   1.360  11.127  0.00  0.00     0.091 C 
ATOM     11  O35 H1S d  69       3.678  -2.410   8.563  0.00  0.00    -0.642 OA
ATOM     12  O13 H1S d  69       4.365   0.177   7.898  0.00  0.00    -0.311 OA
ATOM     13  O18 H1S d  69       4.854   1.648   5.384  0.00  0.00    -0.244 OA
ATOM     14  O21 H1S d  69       3.625   0.030  14.846  0.00  0.00    -0.572 OA
ATOM     15  S20 H1S d  69       2.314   4.219   8.855  0.00  0.00     0.156 S 
ATOM     16  C4  H1S d  69       5.376   3.560   9.757  0.00  0.00     0.083 C 
ATOM     17  O9  H1S d  69       6.552   4.432   9.754  0.00  0.00    -0.391 OA
ATOM     18  O25 H1S d  69       7.987   1.272   7.222  0.00  0.00    -0.389 OA
ATOM     19  O34 H1S d  69       5.504  -3.233   7.602  0.00  0.00    -0.642 OA
ATOM     20  N14 H1S d  69       2.974   3.455  10.148  0.00  0.00    -0.210 NA
ATOM     21  O33 H1S d  69       3.765   2.046   3.465  0.00  0.00    -0.572 OA
ATOM     22  C1  H1S d  69       5.738   2.117  10.154  0.00  0.00     0.095 C 
ATOM     23  C24 H1S d  69       6.432  -0.660   6.866  0.00  0.00    -0.034 C 
ATOM     24  C7  H1S d  69       4.953   1.519   7.824  0.00  0.00     0.167 C 
ATOM     25  O23 H1S d  69       4.770  -2.070  14.531  0.00  0.00    -0.572 OA
ATOM     26  C8  H1S d  69       4.237   4.055  10.642  0.00  0.00     0.081 C 
ATOM     27  C6  H1S d  69       5.325   0.005  11.585  0.00  0.00     0.067 C 
ATOM     28  O11 H1S d  69       4.443  -0.587  12.610  0.00  0.00    -0.254 OA
ATOM     29  O29 H1S d  69       2.971   3.741   7.600  0.00  0.00    -0.296 OA
ATOM     30  C12 H1S d  69       5.730   1.786   6.523  0.00  0.00     0.135 C 
ATOM     31  C10 H1S d  69       4.557   3.656  12.121  0.00  0.00     0.147 C 
ATOM     32  S16 H1S d  69       4.713  -0.639  14.059  0.00  0.00     0.251 S 
ATOM     33  C19 H1S d  69       5.208  -0.862   7.554  0.00  0.00     0.147 C 
ATOM     34  S26 H1S d  69       5.125   2.060   4.013  0.00  0.00     0.252 S 
ATOM     35  C27 H1S d  69       4.763  -2.281   7.936  0.00  0.00     0.233 C 
ATOM     36  H   H1S d  69       4.239   4.311  14.062  0.00  0.00     0.212 HD
ATOM     37  H   H1S d  69       7.237   0.665   5.429  0.00  0.00     0.093 H 
ATOM     38  H   H1S d  69       0.422   4.237   9.562  0.00  0.00     0.231 HD
ATOM     39  H   H1S d  69       2.022   6.025   9.681  0.00  0.00     0.231 HD
ATOM     40  H   H1S d  69       3.878   1.179  10.552  0.00  0.00     0.090 H 
ATOM     41  H   H1S d  69       5.025   3.580   8.746  0.00  0.00     0.089 H 
ATOM     42  H   H1S d  69       6.931   4.466  10.646  0.00  0.00     0.210 HD
ATOM     43  H   H1S d  69       7.701   1.375   8.144  0.00  0.00     0.210 HD
ATOM     44  H   H1S d  69       3.164   2.488   9.884  0.00  0.00     0.140 HD
ATOM     45  H   H1S d  69       6.599   2.101  10.789  0.00  0.00     0.091 H 
ATOM     46  H   H1S d  69       7.027  -1.473   6.644  0.00  0.00     0.085 H 
ATOM     47  H   H1S d  69       4.188   2.265   7.886  0.00  0.00     0.134 H 
ATOM     48  H   H1S d  69       4.129   5.119  10.608  0.00  0.00     0.076 H 
ATOM     49  H   H1S d  69       6.301   0.149  11.999  0.00  0.00     0.080 H 
ATOM     50  H   H1S d  69       5.380  -0.655  10.745  0.00  0.00     0.080 H 
ATOM     51  H   H1S d  69       2.580   4.194   6.837  0.00  0.00     0.231 HD
ATOM     52  H   H1S d  69       6.117   2.784   6.523  0.00  0.00     0.097 H 
ATOM     53  H   H1S d  69       5.596   3.809  12.322  0.00  0.00     0.131 H 
ENDROOT
TORSDOF 16
ENDMDL
MODEL 33
REMARK VINA RESULT:      -4.9      2.510      5.704
REMARK  0 active torsions:
REMARK  status: ('A' for Active; 'I' for Inactive)
REMARK       I    between atoms: O15_1  and  C10_31 
REMARK       I    between atoms: C17_4  and  O25_18 
REMARK       I    between atoms: O28_6  and  S20_15 
REMARK       I    between atoms: O3_7  and  C1_22 
REMARK       I    between atoms: O3_7  and  C7_24 
REMARK       I    between atoms: O30_8  and  S20_15 
REMARK       I    between atoms: C2_10  and  C6_27 
REMARK       I    between atoms: O18_13  and  C12_30 
REMARK       I    between atoms: O18_13  and  S26_34 
REMARK       I    between atoms: S20_15  and  N14_20 
REMARK       I    between atoms: S20_15  and  O29_29 
REMARK       I    between atoms: C4_16  and  O9_17 
REMARK       I    between atoms: N14_20  and  C8_26 
REMARK       I    between atoms: C6_27  and  O11_28 
REMARK       I    between atoms: O11_28  and  S16_32 
REMARK       I    between atoms: C19_33  and  C27_35 
ROOT
ATOM      1  O15 H1S d  69       4.259   4.252  12.486  0.00  0.00    -0.369 OA
ATOM      2  O22 H1S d  69       6.915   4.411   8.142  0.00  0.00    -0.572 OA
ATOM      3  O31 H1S d  69       3.088  -5.133  11.918  0.00  0.00    -0.572 OA
ATOM      4  C17 H1S d  69       4.873  -3.265   9.052  0.00  0.00     0.086 C 
ATOM      5  O5  H1S d  69       5.910   2.910  10.951  0.00  0.00    -0.350 OA
ATOM      6  O28 H1S d  69       6.066  -0.024  15.365  0.00  0.00    -0.296 OA
ATOM      7  O3  H1S d  69       5.151  -0.671   9.840  0.00  0.00    -0.348 OA
ATOM      8  O30 H1S d  69       3.768   0.338  15.029  0.00  0.00    -0.296 OA
ATOM      9  O32 H1S d  69       4.673  -6.194  10.419  0.00  0.00    -0.572 OA
ATOM     10  C2  H1S d  69       6.207   1.568  10.378  0.00  0.00     0.091 C 
ATOM     11  O35 H1S d  69       9.561  -1.607   9.580  0.00  0.00    -0.642 OA
ATOM     12  O13 H1S d  69       6.991  -1.798  10.560  0.00  0.00    -0.311 OA
ATOM     13  O18 H1S d  69       5.206  -4.006  11.377  0.00  0.00    -0.244 OA
ATOM     14  O21 H1S d  69       8.400   5.022   9.977  0.00  0.00    -0.572 OA
ATOM     15  S20 H1S d  69       5.017   0.042  14.326  0.00  0.00     0.156 S 
ATOM     16  C4  H1S d  69       3.904   0.615  11.316  0.00  0.00     0.083 C 
ATOM     17  O9  H1S d  69       2.523   0.711  10.840  0.00  0.00    -0.391 OA
ATOM     18  O25 H1S d  69       3.940  -2.465   8.318  0.00  0.00    -0.389 OA
ATOM     19  O34 H1S d  69       9.059  -2.815   7.785  0.00  0.00    -0.642 OA
ATOM     20  N14 H1S d  69       5.417   1.122  13.157  0.00  0.00    -0.210 NA
ATOM     21  O33 H1S d  69       5.269  -5.743  12.793  0.00  0.00    -0.572 OA
ATOM     22  C1  H1S d  69       4.914   0.704  10.157  0.00  0.00     0.095 C 
ATOM     23  C24 H1S d  69       6.352  -3.094   8.572  0.00  0.00    -0.034 C 
ATOM     24  C7  H1S d  69       5.557  -1.646  10.837  0.00  0.00     0.167 C 
ATOM     25  O23 H1S d  69       9.403   4.239   7.927  0.00  0.00    -0.572 OA
ATOM     26  C8  H1S d  69       4.268   1.646  12.380  0.00  0.00     0.081 C 
ATOM     27  C6  H1S d  69       7.037   1.722   9.094  0.00  0.00     0.067 C 
ATOM     28  O11 H1S d  69       8.151   2.664   9.323  0.00  0.00    -0.254 OA
ATOM     29  O29 H1S d  69       4.870  -1.318  13.723  0.00  0.00    -0.296 OA
ATOM     30  C12 H1S d  69       4.733  -2.915  10.558  0.00  0.00     0.135 C 
ATOM     31  C10 H1S d  69       4.591   2.998  11.662  0.00  0.00     0.147 C 
ATOM     32  S16 H1S d  69       8.219   4.057   8.842  0.00  0.00     0.251 S 
ATOM     33  C19 H1S d  69       7.304  -2.386   9.350  0.00  0.00     0.147 C 
ATOM     34  S26 H1S d  69       4.546  -5.284  11.603  0.00  0.00     0.252 S 
ATOM     35  C27 H1S d  69       8.755  -2.260   8.865  0.00  0.00     0.233 C 
ATOM     36  H   H1S d  69       4.486   5.044  11.975  0.00  0.00     0.212 HD
ATOM     37  H   H1S d  69       4.639  -4.294   8.880  0.00  0.00     0.093 H 
ATOM     38  H   H1S d  69       6.176   0.851  15.769  0.00  0.00     0.231 HD
ATOM     39  H   H1S d  69       3.826   1.217  15.435  0.00  0.00     0.231 HD
ATOM     40  H   H1S d  69       6.789   1.023  11.092  0.00  0.00     0.090 H 
ATOM     41  H   H1S d  69       3.964  -0.349  11.775  0.00  0.00     0.089 H 
ATOM     42  H   H1S d  69       2.389   1.568  10.407  0.00  0.00     0.210 HD
ATOM     43  H   H1S d  69       4.136  -1.525   8.462  0.00  0.00     0.210 HD
ATOM     44  H   H1S d  69       6.057   0.665  12.508  0.00  0.00     0.140 HD
ATOM     45  H   H1S d  69       4.511   1.271   9.344  0.00  0.00     0.091 H 
ATOM     46  H   H1S d  69       6.641  -3.504   7.671  0.00  0.00     0.085 H 
ATOM     47  H   H1S d  69       5.401  -1.396  11.866  0.00  0.00     0.134 H 
ATOM     48  H   H1S d  69       3.464   1.825  13.064  0.00  0.00     0.076 H 
ATOM     49  H   H1S d  69       6.413   2.096   8.311  0.00  0.00     0.080 H 
ATOM     50  H   H1S d  69       7.435   0.768   8.817  0.00  0.00     0.080 H 
ATOM     51  H   H1S d  69       4.633  -1.955  14.416  0.00  0.00     0.231 HD
ATOM     52  H   H1S d  69       3.704  -2.746  10.796  0.00  0.00     0.097 H 
ATOM     53  H   H1S d  69       3.895   3.162  10.866  0.00  0.00     0.131 H 
ENDROOT
TORSDOF 16
ENDMDL
MODEL 34
REMARK VINA RESULT:      -4.8      2.779      5.954
REMARK  0 active torsions:
REMARK  status: ('A' for Active; 'I' for Inactive)
REMARK       I    between atoms: O15_1  and  C10_31 
REMARK       I    between atoms: C17_4  and  O25_18 
REMARK       I    between atoms: O28_6  and  S20_15 
REMARK       I    between atoms: O3_7  and  C1_22 
REMARK       I    between atoms: O3_7  and  C7_24 
REMARK       I    between atoms: O30_8  and  S20_15 
REMARK       I    between atoms: C2_10  and  C6_27 
REMARK       I    between atoms: O18_13  and  C12_30 
REMARK       I    between atoms: O18_13  and  S26_34 
REMARK       I    between atoms: S20_15  and  N14_20 
REMARK       I    between atoms: S20_15  and  O29_29 
REMARK       I    between atoms: C4_16  and  O9_17 
REMARK       I    between atoms: N14_20  and  C8_26 
REMARK       I    between atoms: C6_27  and  O11_28 
REMARK       I    between atoms: O11_28  and  S16_32 
REMARK       I    between atoms: C19_33  and  C27_35 
ROOT
ATOM      1  O15 H1S d  69       5.267  -4.269  14.587  0.00  0.00    -0.369 OA
ATOM      2  O22 H1S d  69       3.518   0.141  12.730  0.00  0.00    -0.572 OA
ATOM      3  O31 H1S d  69       6.508  -7.908   5.928  0.00  0.00    -0.572 OA
ATOM      4  C17 H1S d  69       4.928  -4.409   6.309  0.00  0.00     0.086 C 
ATOM      5  O5  H1S d  69       5.430  -2.593  12.575  0.00  0.00    -0.350 OA
ATOM      6  O28 H1S d  69       9.618  -5.698  11.611  0.00  0.00    -0.296 OA
ATOM      7  O3  H1S d  69       5.036  -3.766   8.954  0.00  0.00    -0.348 OA
ATOM      8  O30 H1S d  69       7.895  -7.230  12.067  0.00  0.00    -0.296 OA
ATOM      9  O32 H1S d  69       6.587  -6.215   4.193  0.00  0.00    -0.572 OA
ATOM     10  C2  H1S d  69       5.511  -2.490  11.091  0.00  0.00     0.091 C 
ATOM     11  O35 H1S d  69       7.718  -0.435   7.504  0.00  0.00    -0.642 OA
ATOM     12  O13 H1S d  69       6.971  -3.042   8.002  0.00  0.00    -0.311 OA
ATOM     13  O18 H1S d  69       7.081  -5.588   6.507  0.00  0.00    -0.244 OA
ATOM     14  O21 H1S d  69       5.647   0.562  13.841  0.00  0.00    -0.572 OA
ATOM     15  S20 H1S d  69       8.184  -5.970  11.381  0.00  0.00     0.156 S 
ATOM     16  C4  H1S d  69       5.085  -5.108  10.848  0.00  0.00     0.083 C 
ATOM     17  O9  H1S d  69       3.872  -5.926  10.904  0.00  0.00    -0.391 OA
ATOM     18  O25 H1S d  69       3.609  -4.511   6.856  0.00  0.00    -0.389 OA
ATOM     19  O34 H1S d  69       6.359  -0.289   5.752  0.00  0.00    -0.642 OA
ATOM     20  N14 H1S d  69       7.262  -4.701  11.863  0.00  0.00    -0.210 NA
ATOM     21  O33 H1S d  69       8.634  -6.829   5.470  0.00  0.00    -0.572 OA
ATOM     22  C1  H1S d  69       4.787  -3.678  10.361  0.00  0.00     0.095 C 
ATOM     23  C24 H1S d  69       5.406  -2.933   6.110  0.00  0.00    -0.034 C 
ATOM     24  C7  H1S d  69       6.284  -4.274   8.410  0.00  0.00     0.167 C 
ATOM     25  O23 H1S d  69       4.888   2.170  12.209  0.00  0.00    -0.572 OA
ATOM     26  C8  H1S d  69       5.851  -5.041  12.166  0.00  0.00     0.081 C 
ATOM     27  C6  H1S d  69       4.995  -1.117  10.635  0.00  0.00     0.067 C 
ATOM     28  O11 H1S d  69       5.597  -0.051  11.459  0.00  0.00    -0.254 OA
ATOM     29  O29 H1S d  69       7.982  -6.210   9.919  0.00  0.00    -0.296 OA
ATOM     30  C12 H1S d  69       5.899  -5.188   7.234  0.00  0.00     0.135 C 
ATOM     31  C10 H1S d  69       5.157  -3.979  13.082  0.00  0.00     0.147 C 
ATOM     32  S16 H1S d  69       4.921   0.698  12.535  0.00  0.00     0.251 S 
ATOM     33  C19 H1S d  69       6.388  -2.355   6.955  0.00  0.00     0.147 C 
ATOM     34  S26 H1S d  69       7.180  -6.638   5.503  0.00  0.00     0.252 S 
ATOM     35  C27 H1S d  69       6.858  -0.912   6.717  0.00  0.00     0.233 C 
ATOM     36  H   H1S d  69       4.814  -3.570  15.085  0.00  0.00     0.212 HD
ATOM     37  H   H1S d  69       4.917  -4.835   5.328  0.00  0.00     0.093 H 
ATOM     38  H   H1S d  69       9.769  -5.540  12.556  0.00  0.00     0.231 HD
ATOM     39  H   H1S d  69       8.015  -7.113  13.023  0.00  0.00     0.231 HD
ATOM     40  H   H1S d  69       6.540  -2.574  10.808  0.00  0.00     0.090 H 
ATOM     41  H   H1S d  69       5.714  -5.608  10.141  0.00  0.00     0.089 H 
ATOM     42  H   H1S d  69       3.246  -5.533  11.531  0.00  0.00     0.210 HD
ATOM     43  H   H1S d  69       3.598  -4.130   7.748  0.00  0.00     0.210 HD
ATOM     44  H   H1S d  69       7.268  -4.003  11.120  0.00  0.00     0.140 HD
ATOM     45  H   H1S d  69       3.785  -3.394  10.605  0.00  0.00     0.091 H 
ATOM     46  H   H1S d  69       4.998  -2.368   5.350  0.00  0.00     0.085 H 
ATOM     47  H   H1S d  69       6.909  -4.851   9.059  0.00  0.00     0.134 H 
ATOM     48  H   H1S d  69       5.844  -5.975  12.687  0.00  0.00     0.076 H 
ATOM     49  H   H1S d  69       3.931  -1.087  10.739  0.00  0.00     0.080 H 
ATOM     50  H   H1S d  69       5.264  -0.964   9.610  0.00  0.00     0.080 H 
ATOM     51  H   H1S d  69       8.527  -6.961   9.637  0.00  0.00     0.231 HD
ATOM     52  H   H1S d  69       5.420  -6.074   7.598  0.00  0.00     0.097 H 
ATOM     53  H   H1S d  69       4.094  -4.066  12.998  0.00  0.00     0.131 H 
ENDROOT
TORSDOF 16
ENDMDL
MODEL 35
REMARK VINA RESULT:      -4.8      1.277      1.375
REMARK  0 active torsions:
REMARK  status: ('A' for Active; 'I' for Inactive)
REMARK       I    between atoms: O15_1  and  C10_31 
REMARK       I    between atoms: C17_4  and  O25_18 
REMARK       I    between atoms: O28_6  and  S20_15 
REMARK       I    between atoms: O3_7  and  C1_22 
REMARK       I    between atoms: O3_7  and  C7_24 
REMARK       I    between atoms: O30_8  and  S20_15 
REMARK       I    between atoms: C2_10  and  C6_27 
REMARK       I    between atoms: O18_13  and  C12_30 
REMARK       I    between atoms: O18_13  and  S26_34 
REMARK       I    between atoms: S20_15  and  N14_20 
REMARK       I    between atoms: S20_15  and  O29_29 
REMARK       I    between atoms: C4_16  and  O9_17 
REMARK       I    between atoms: N14_20  and  C8_26 
REMARK       I    between atoms: C6_27  and  O11_28 
REMARK       I    between atoms: O11_28  and  S16_32 
REMARK       I    between atoms: C19_33  and  C27_35 
ROOT
ATOM      1  O15 H1S d  69       4.751   3.300  13.947  0.00  0.00    -0.369 OA
ATOM      2  O22 H1S d  69       5.378  -0.740  16.987  0.00  0.00    -0.572 OA
ATOM      3  O31 H1S d  69       7.612  -1.490   6.289  0.00  0.00    -0.572 OA
ATOM      4  C17 H1S d  69       7.697  -3.205   9.744  0.00  0.00     0.086 C 
ATOM      5  O5  H1S d  69       4.666   0.680  14.049  0.00  0.00    -0.350 OA
ATOM      6  O28 H1S d  69       2.319   1.560   9.377  0.00  0.00    -0.296 OA
ATOM      7  O3  H1S d  69       6.552  -1.486  11.519  0.00  0.00    -0.348 OA
ATOM      8  O30 H1S d  69       4.225   2.932   9.298  0.00  0.00    -0.296 OA
ATOM      9  O32 H1S d  69       7.508  -3.895   6.585  0.00  0.00    -0.572 OA
ATOM     10  C2  H1S d  69       5.024  -0.570  13.322  0.00  0.00     0.091 C 
ATOM     11  O35 H1S d  69       3.493  -4.781  11.947  0.00  0.00    -0.642 OA
ATOM     12  O13 H1S d  69       4.889  -2.779  10.661  0.00  0.00    -0.311 OA
ATOM     13  O18 H1S d  69       6.130  -2.450   8.001  0.00  0.00    -0.244 OA
ATOM     14  O21 H1S d  69       2.999  -0.215  16.881  0.00  0.00    -0.572 OA
ATOM     15  S20 H1S d  69       3.754   1.613   9.723  0.00  0.00     0.156 S 
ATOM     16  C4  H1S d  69       6.372   0.829  11.501  0.00  0.00     0.083 C 
ATOM     17  O9  H1S d  69       7.709   1.426  11.497  0.00  0.00    -0.391 OA
ATOM     18  O25 H1S d  69       8.729  -2.640  10.559  0.00  0.00    -0.389 OA
ATOM     19  O34 H1S d  69       5.197  -6.196  11.777  0.00  0.00    -0.642 OA
ATOM     20  N14 H1S d  69       3.986   1.283  11.314  0.00  0.00    -0.210 NA
ATOM     21  O33 H1S d  69       5.503  -2.612   5.854  0.00  0.00    -0.572 OA
ATOM     22  C1  H1S d  69       6.301  -0.403  12.422  0.00  0.00     0.095 C 
ATOM     23  C24 H1S d  69       6.832  -4.274  10.489  0.00  0.00    -0.034 C 
ATOM     24  C7  H1S d  69       5.790  -1.679  10.297  0.00  0.00     0.167 C 
ATOM     25  O23 H1S d  69       3.634  -2.444  17.555  0.00  0.00    -0.572 OA
ATOM     26  C8  H1S d  69       5.257   1.801  11.874  0.00  0.00     0.081 C 
ATOM     27  C6  H1S d  69       5.156  -1.732  14.319  0.00  0.00     0.067 C 
ATOM     28  O11 H1S d  69       4.000  -1.745  15.236  0.00  0.00    -0.254 OA
ATOM     29  O29 H1S d  69       4.473   0.601   8.891  0.00  0.00    -0.296 OA
ATOM     30  C12 H1S d  69       6.812  -2.049   9.209  0.00  0.00     0.135 C 
ATOM     31  C10 H1S d  69       5.222   1.931  13.433  0.00  0.00     0.147 C 
ATOM     32  S16 H1S d  69       4.006  -1.302  16.643  0.00  0.00     0.251 S 
ATOM     33  C19 H1S d  69       5.499  -3.998  10.889  0.00  0.00     0.147 C 
ATOM     34  S26 H1S d  69       6.716  -2.626   6.679  0.00  0.00     0.252 S 
ATOM     35  C27 H1S d  69       4.665  -5.078  11.593  0.00  0.00     0.233 C 
ATOM     36  H   H1S d  69       4.757   3.301  14.917  0.00  0.00     0.212 HD
ATOM     37  H   H1S d  69       8.160  -3.732   8.937  0.00  0.00     0.093 H 
ATOM     38  H   H1S d  69       1.834   2.211   9.908  0.00  0.00     0.231 HD
ATOM     39  H   H1S d  69       3.779   3.618   9.819  0.00  0.00     0.231 HD
ATOM     40  H   H1S d  69       4.230  -0.799  12.642  0.00  0.00     0.090 H 
ATOM     41  H   H1S d  69       6.208   0.532  10.486  0.00  0.00     0.089 H 
ATOM     42  H   H1S d  69       7.932   1.723  12.393  0.00  0.00     0.210 HD
ATOM     43  H   H1S d  69       8.328  -2.157  11.299  0.00  0.00     0.210 HD
ATOM     44  H   H1S d  69       3.976   0.270  11.433  0.00  0.00     0.140 HD
ATOM     45  H   H1S d  69       7.016  -0.327  13.214  0.00  0.00     0.091 H 
ATOM     46  H   H1S d  69       7.239  -5.200  10.694  0.00  0.00     0.085 H 
ATOM     47  H   H1S d  69       5.230  -0.846   9.926  0.00  0.00     0.134 H 
ATOM     48  H   H1S d  69       5.419   2.779  11.470  0.00  0.00     0.076 H 
ATOM     49  H   H1S d  69       6.056  -1.613  14.885  0.00  0.00     0.080 H 
ATOM     50  H   H1S d  69       5.187  -2.656  13.779  0.00  0.00     0.080 H 
ATOM     51  H   H1S d  69       4.335   0.798   7.951  0.00  0.00     0.231 HD
ATOM     52  H   H1S d  69       7.425  -1.203   8.976  0.00  0.00     0.097 H 
ATOM     53  H   H1S d  69       6.220   1.970  13.817  0.00  0.00     0.131 H 
ENDROOT
TORSDOF 16
ENDMDL
MODEL 36
REMARK VINA RESULT:      -4.7      3.353      8.353
REMARK  0 active torsions:
REMARK  status: ('A' for Active; 'I' for Inactive)
REMARK       I    between atoms: O15_1  and  C10_31 
REMARK       I    between atoms: C17_4  and  O25_18 
REMARK       I    between atoms: O28_6  and  S20_15 
REMARK       I    between atoms: O3_7  and  C1_22 
REMARK       I    between atoms: O3_7  and  C7_24 
REMARK       I    between atoms: O30_8  and  S20_15 
REMARK       I    between atoms: C2_10  and  C6_27 
REMARK       I    between atoms: O18_13  and  C12_30 
REMARK       I    between atoms: O18_13  and  S26_34 
REMARK       I    between atoms: S20_15  and  N14_20 
REMARK       I    between atoms: S20_15  and  O29_29 
REMARK       I    between atoms: C4_16  and  O9_17 
REMARK       I    between atoms: N14_20  and  C8_26 
REMARK       I    between atoms: C6_27  and  O11_28 
REMARK       I    between atoms: O11_28  and  S16_32 
REMARK       I    between atoms: C19_33  and  C27_35 
ROOT
ATOM      1  O15 H1S d  69       6.896  -0.394   4.572  0.00  0.00    -0.369 OA
ATOM      2  O22 H1S d  69       4.209   3.868   3.820  0.00  0.00    -0.572 OA
ATOM      3  O31 H1S d  69       6.309   0.398  13.995  0.00  0.00    -0.572 OA
ATOM      4  C17 H1S d  69       4.828   3.172  11.760  0.00  0.00     0.086 C 
ATOM      5  O5  H1S d  69       4.989   1.120   5.549  0.00  0.00    -0.350 OA
ATOM      6  O28 H1S d  69       4.405  -3.236   8.515  0.00  0.00    -0.296 OA
ATOM      7  O3  H1S d  69       5.051   2.325   9.180  0.00  0.00    -0.348 OA
ATOM      8  O30 H1S d  69       6.721  -2.842   8.572  0.00  0.00    -0.296 OA
ATOM      9  O32 H1S d  69       4.520   1.872  14.710  0.00  0.00    -0.572 OA
ATOM     10  C2  H1S d  69       4.437   1.712   6.799  0.00  0.00     0.091 C 
ATOM     11  O35 H1S d  69       0.539   2.478   9.286  0.00  0.00    -0.642 OA
ATOM     12  O13 H1S d  69       3.053   1.575   9.969  0.00  0.00    -0.311 OA
ATOM     13  O18 H1S d  69       4.421   0.854  12.486  0.00  0.00    -0.244 OA
ATOM     14  O21 H1S d  69       2.907   1.980   2.994  0.00  0.00    -0.572 OA
ATOM     15  S20 H1S d  69       5.422  -2.169   8.617  0.00  0.00     0.156 S 
ATOM     16  C4  H1S d  69       6.548   0.859   8.181  0.00  0.00     0.083 C 
ATOM     17  O9  H1S d  69       7.911   1.372   8.328  0.00  0.00    -0.391 OA
ATOM     18  O25 H1S d  69       5.874   3.917  11.126  0.00  0.00    -0.389 OA
ATOM     19  O34 H1S d  69       0.767   4.311  10.520  0.00  0.00    -0.642 OA
ATOM     20  N14 H1S d  69       5.199  -1.034   7.453  0.00  0.00    -0.210 NA
ATOM     21  O33 H1S d  69       4.074  -0.527  14.217  0.00  0.00    -0.572 OA
ATOM     22  C1  H1S d  69       5.544   1.987   7.880  0.00  0.00     0.095 C 
ATOM     23  C24 H1S d  69       3.395   3.607  11.309  0.00  0.00    -0.034 C 
ATOM     24  C7  H1S d  69       4.496   1.336  10.089  0.00  0.00     0.167 C 
ATOM     25  O23 H1S d  69       1.728   4.016   3.528  0.00  0.00    -0.572 OA
ATOM     26  C8  H1S d  69       6.405  -0.236   7.128  0.00  0.00     0.081 C 
ATOM     27  C6  H1S d  69       3.618   2.968   6.464  0.00  0.00     0.067 C 
ATOM     28  O11 H1S d  69       2.702   2.689   5.340  0.00  0.00    -0.254 OA
ATOM     29  O29 H1S d  69       5.302  -1.535   9.965  0.00  0.00    -0.296 OA
ATOM     30  C12 H1S d  69       5.066   1.665  11.480  0.00  0.00     0.135 C 
ATOM     31  C10 H1S d  69       6.319   0.445   5.722  0.00  0.00     0.147 C 
ATOM     32  S16 H1S d  69       2.880   3.138   3.946  0.00  0.00     0.251 S 
ATOM     33  C19 H1S d  69       2.608   2.788  10.459  0.00  0.00     0.147 C 
ATOM     34  S26 H1S d  69       4.841   0.674  13.869  0.00  0.00     0.252 S 
ATOM     35  C27 H1S d  69       1.193   3.228  10.057  0.00  0.00     0.233 C 
ATOM     36  H   H1S d  69       6.806   0.094   3.738  0.00  0.00     0.212 HD
ATOM     37  H   H1S d  69       4.865   3.373  12.810  0.00  0.00     0.093 H 
ATOM     38  H   H1S d  69       4.466  -3.660   7.645  0.00  0.00     0.231 HD
ATOM     39  H   H1S d  69       6.835  -3.267   7.708  0.00  0.00     0.231 HD
ATOM     40  H   H1S d  69       3.782   0.993   7.247  0.00  0.00     0.090 H 
ATOM     41  H   H1S d  69       6.323   0.418   9.130  0.00  0.00     0.089 H 
ATOM     42  H   H1S d  69       8.190   1.791   7.499  0.00  0.00     0.210 HD
ATOM     43  H   H1S d  69       5.857   3.748  10.171  0.00  0.00     0.210 HD
ATOM     44  H   H1S d  69       4.470  -0.394   7.768  0.00  0.00     0.140 HD
ATOM     45  H   H1S d  69       6.024   2.800   7.376  0.00  0.00     0.091 H 
ATOM     46  H   H1S d  69       3.013   4.508  11.637  0.00  0.00     0.085 H 
ATOM     47  H   H1S d  69       4.721   0.308   9.898  0.00  0.00     0.134 H 
ATOM     48  H   H1S d  69       7.245  -0.900   7.117  0.00  0.00     0.076 H 
ATOM     49  H   H1S d  69       4.282   3.761   6.191  0.00  0.00     0.080 H 
ATOM     50  H   H1S d  69       3.045   3.253   7.322  0.00  0.00     0.080 H 
ATOM     51  H   H1S d  69       5.435  -2.208  10.652  0.00  0.00     0.231 HD
ATOM     52  H   H1S d  69       6.115   1.453  11.508  0.00  0.00     0.097 H 
ATOM     53  H   H1S d  69       7.013   1.257   5.668  0.00  0.00     0.131 H 
ENDROOT
TORSDOF 16
ENDMDL
MODEL 37
REMARK VINA RESULT:      -4.7      2.555      6.922
REMARK  0 active torsions:
REMARK  status: ('A' for Active; 'I' for Inactive)
REMARK       I    between atoms: O15_1  and  C10_31 
REMARK       I    between atoms: C17_4  and  O25_18 
REMARK       I    between atoms: O28_6  and  S20_15 
REMARK       I    between atoms: O3_7  and  C1_22 
REMARK       I    between atoms: O3_7  and  C7_24 
REMARK       I    between atoms: O30_8  and  S20_15 
REMARK       I    between atoms: C2_10  and  C6_27 
REMARK       I    between atoms: O18_13  and  C12_30 
REMARK       I    between atoms: O18_13  and  S26_34 
REMARK       I    between atoms: S20_15  and  N14_20 
REMARK       I    between atoms: S20_15  and  O29_29 
REMARK       I    between atoms: C4_16  and  O9_17 
REMARK       I    between atoms: N14_20  and  C8_26 
REMARK       I    between atoms: C6_27  and  O11_28 
REMARK       I    between atoms: O11_28  and  S16_32 
REMARK       I    between atoms: C19_33  and  C27_35 
ROOT
ATOM      1  O15 H1S d  69       6.449  -4.516  16.106  0.00  0.00    -0.369 OA
ATOM      2  O22 H1S d  69       7.222  -5.964  11.283  0.00  0.00    -0.572 OA
ATOM      3  O31 H1S d  69       6.305   4.664  13.769  0.00  0.00    -0.572 OA
ATOM      4  C17 H1S d  69       7.051   2.025  11.055  0.00  0.00     0.086 C 
ATOM      5  O5  H1S d  69       5.974  -3.906  13.599  0.00  0.00    -0.350 OA
ATOM      6  O28 H1S d  69       2.616  -0.625  16.062  0.00  0.00    -0.296 OA
ATOM      7  O3  H1S d  69       6.725  -0.421  12.208  0.00  0.00    -0.348 OA
ATOM      8  O30 H1S d  69       4.624  -0.347  17.251  0.00  0.00    -0.296 OA
ATOM      9  O32 H1S d  69       5.900   5.032  11.406  0.00  0.00    -0.572 OA
ATOM     10  C2  H1S d  69       5.915  -2.787  12.617  0.00  0.00     0.091 C 
ATOM     11  O35 H1S d  69       3.411  -0.837   9.170  0.00  0.00    -0.642 OA
ATOM     12  O13 H1S d  69       4.706   0.206  11.369  0.00  0.00    -0.311 OA
ATOM     13  O18 H1S d  69       5.211   2.917  12.428  0.00  0.00    -0.244 OA
ATOM     14  O21 H1S d  69       5.021  -6.748  11.981  0.00  0.00    -0.572 OA
ATOM     15  S20 H1S d  69       4.081  -0.512  15.903  0.00  0.00     0.156 S 
ATOM     16  C4  H1S d  69       6.922  -1.103  14.418  0.00  0.00     0.083 C 
ATOM     17  O9  H1S d  69       8.285  -0.854  14.891  0.00  0.00    -0.391 OA
ATOM     18  O25 H1S d  69       8.343   1.445  11.262  0.00  0.00    -0.389 OA
ATOM     19  O34 H1S d  69       4.752   0.236   7.762  0.00  0.00    -0.642 OA
ATOM     20  N14 H1S d  69       4.681  -1.796  15.075  0.00  0.00    -0.210 NA
ATOM     21  O33 H1S d  69       4.006   4.722  12.991  0.00  0.00    -0.572 OA
ATOM     22  C1  H1S d  69       6.907  -1.621  12.968  0.00  0.00     0.095 C 
ATOM     23  C24 H1S d  69       6.262   1.378   9.870  0.00  0.00    -0.034 C 
ATOM     24  C7  H1S d  69       5.638   0.509  12.461  0.00  0.00     0.167 C 
ATOM     25  O23 H1S d  69       5.448  -6.545   9.615  0.00  0.00    -0.572 OA
ATOM     26  C8  H1S d  69       6.123  -2.057  15.301  0.00  0.00     0.081 C 
ATOM     27  C6  H1S d  69       6.125  -3.330  11.195  0.00  0.00     0.067 C 
ATOM     28  O11 H1S d  69       5.276  -4.517  10.977  0.00  0.00    -0.254 OA
ATOM     29  O29 H1S d  69       4.373   0.748  15.154  0.00  0.00    -0.296 OA
ATOM     30  C12 H1S d  69       6.252   1.918  12.381  0.00  0.00     0.135 C 
ATOM     31  C10 H1S d  69       6.535  -3.522  14.937  0.00  0.00     0.147 C 
ATOM     32  S16 H1S d  69       5.736  -5.919  10.956  0.00  0.00     0.251 S 
ATOM     33  C19 H1S d  69       5.151   0.526  10.101  0.00  0.00     0.147 C 
ATOM     34  S26 H1S d  69       5.378   4.349  12.633  0.00  0.00     0.252 S 
ATOM     35  C27 H1S d  69       4.378  -0.071   8.916  0.00  0.00     0.233 C 
ATOM     36  H   H1S d  69       6.719  -5.397  15.802  0.00  0.00     0.212 HD
ATOM     37  H   H1S d  69       7.186   3.049  10.776  0.00  0.00     0.093 H 
ATOM     38  H   H1S d  69       2.405  -1.439  16.547  0.00  0.00     0.231 HD
ATOM     39  H   H1S d  69       4.453  -1.149  17.770  0.00  0.00     0.231 HD
ATOM     40  H   H1S d  69       4.940  -2.350  12.670  0.00  0.00     0.090 H 
ATOM     41  H   H1S d  69       6.442  -0.148  14.467  0.00  0.00     0.089 H 
ATOM     42  H   H1S d  69       8.789  -1.682  14.876  0.00  0.00     0.210 HD
ATOM     43  H   H1S d  69       8.243   0.514  11.516  0.00  0.00     0.210 HD
ATOM     44  H   H1S d  69       4.541  -1.626  14.080  0.00  0.00     0.140 HD
ATOM     45  H   H1S d  69       7.814  -2.142  12.741  0.00  0.00     0.091 H 
ATOM     46  H   H1S d  69       6.555   1.574   8.901  0.00  0.00     0.085 H 
ATOM     47  H   H1S d  69       5.140   0.443  13.406  0.00  0.00     0.134 H 
ATOM     48  H   H1S d  69       6.324  -1.912  16.342  0.00  0.00     0.076 H 
ATOM     49  H   H1S d  69       7.152  -3.601  11.067  0.00  0.00     0.080 H 
ATOM     50  H   H1S d  69       5.858  -2.572  10.488  0.00  0.00     0.080 H 
ATOM     51  H   H1S d  69       4.018   1.506  15.645  0.00  0.00     0.231 HD
ATOM     52  H   H1S d  69       6.906   2.083  13.211  0.00  0.00     0.097 H 
ATOM     53  H   H1S d  69       7.593  -3.575  14.783  0.00  0.00     0.131 H 
ENDROOT
TORSDOF 16
ENDMDL
MODEL 38
REMARK VINA RESULT:      -4.7      2.744      7.494
REMARK  0 active torsions:
REMARK  status: ('A' for Active; 'I' for Inactive)
REMARK       I    between atoms: O15_1  and  C10_31 
REMARK       I    between atoms: C17_4  and  O25_18 
REMARK       I    between atoms: O28_6  and  S20_15 
REMARK       I    between atoms: O3_7  and  C1_22 
REMARK       I    between atoms: O3_7  and  C7_24 
REMARK       I    between atoms: O30_8  and  S20_15 
REMARK       I    between atoms: C2_10  and  C6_27 
REMARK       I    between atoms: O18_13  and  C12_30 
REMARK       I    between atoms: O18_13  and  S26_34 
REMARK       I    between atoms: S20_15  and  N14_20 
REMARK       I    between atoms: S20_15  and  O29_29 
REMARK       I    between atoms: C4_16  and  O9_17 
REMARK       I    between atoms: N14_20  and  C8_26 
REMARK       I    between atoms: C6_27  and  O11_28 
REMARK       I    between atoms: O11_28  and  S16_32 
REMARK       I    between atoms: C19_33  and  C27_35 
ROOT
ATOM      1  O15 H1S d  69       6.527  -7.684  13.407  0.00  0.00    -0.369 OA
ATOM      2  O22 H1S d  69       6.328  -7.411   8.323  0.00  0.00    -0.572 OA
ATOM      3  O31 H1S d  69       8.257   1.592  14.257  0.00  0.00    -0.572 OA
ATOM      4  C17 H1S d  69       8.016   0.020  10.742  0.00  0.00     0.086 C 
ATOM      5  O5  H1S d  69       5.900  -6.138  11.381  0.00  0.00    -0.350 OA
ATOM      6  O28 H1S d  69       3.742  -3.425  15.393  0.00  0.00    -0.296 OA
ATOM      7  O3  H1S d  69       7.270  -2.579  11.078  0.00  0.00    -0.348 OA
ATOM      8  O30 H1S d  69       5.892  -3.954  16.183  0.00  0.00    -0.296 OA
ATOM      9  O32 H1S d  69       7.658   2.852  12.272  0.00  0.00    -0.572 OA
ATOM     10  C2  H1S d  69       5.983  -4.750  10.849  0.00  0.00     0.091 C 
ATOM     11  O35 H1S d  69       3.598  -1.279   8.794  0.00  0.00    -0.642 OA
ATOM     12  O13 H1S d  69       5.367  -1.344  10.908  0.00  0.00    -0.311 OA
ATOM     13  O18 H1S d  69       6.624   0.669  12.667  0.00  0.00    -0.244 OA
ATOM     14  O21 H1S d  69       4.110  -7.990   9.152  0.00  0.00    -0.572 OA
ATOM     15  S20 H1S d  69       5.161  -3.524  14.991  0.00  0.00     0.156 S 
ATOM     16  C4  H1S d  69       7.575  -4.034  12.861  0.00  0.00     0.083 C 
ATOM     17  O9  H1S d  69       9.007  -4.217  13.107  0.00  0.00    -0.391 OA
ATOM     18  O25 H1S d  69       9.151  -0.815  10.488  0.00  0.00    -0.389 OA
ATOM     19  O34 H1S d  69       4.968  -0.026   7.574  0.00  0.00    -0.642 OA
ATOM     20  N14 H1S d  69       5.334  -4.508  13.690  0.00  0.00    -0.210 NA
ATOM     21  O33 H1S d  69       5.957   2.332  14.014  0.00  0.00    -0.572 OA
ATOM     22  C1  H1S d  69       7.258  -3.983  11.355  0.00  0.00     0.095 C 
ATOM     23  C24 H1S d  69       6.955  -0.007   9.594  0.00  0.00    -0.034 C 
ATOM     24  C7  H1S d  69       6.473  -1.625  11.831  0.00  0.00     0.167 C 
ATOM     25  O23 H1S d  69       4.274  -7.028   6.945  0.00  0.00    -0.572 OA
ATOM     26  C8  H1S d  69       6.690  -5.084  13.526  0.00  0.00     0.081 C 
ATOM     27  C6  H1S d  69       5.880  -4.772   9.316  0.00  0.00     0.067 C 
ATOM     28  O11 H1S d  69       4.755  -5.631   8.898  0.00  0.00    -0.254 OA
ATOM     29  O29 H1S d  69       5.646  -2.151  14.650  0.00  0.00    -0.296 OA
ATOM     30  C12 H1S d  69       7.386  -0.415  12.092  0.00  0.00     0.135 C 
ATOM     31  C10 H1S d  69       6.698  -6.368  12.632  0.00  0.00     0.147 C 
ATOM     32  S16 H1S d  69       4.866  -6.988   8.331  0.00  0.00     0.251 S 
ATOM     33  C19 H1S d  69       5.713  -0.673   9.751  0.00  0.00     0.147 C 
ATOM     34  S26 H1S d  69       7.148   1.877  13.289  0.00  0.00     0.252 S 
ATOM     35  C27 H1S d  69       4.679  -0.657   8.615  0.00  0.00     0.233 C 
ATOM     36  H   H1S d  69       6.542  -8.429  12.786  0.00  0.00     0.212 HD
ATOM     37  H   H1S d  69       8.352   1.034  10.790  0.00  0.00     0.093 H 
ATOM     38  H   H1S d  69       3.408  -4.308  15.619  0.00  0.00     0.231 HD
ATOM     39  H   H1S d  69       5.602  -4.845  16.436  0.00  0.00     0.231 HD
ATOM     40  H   H1S d  69       5.152  -4.196  11.234  0.00  0.00     0.090 H 
ATOM     41  H   H1S d  69       7.343  -3.092  13.312  0.00  0.00     0.089 H 
ATOM     42  H   H1S d  69       9.295  -5.059  12.724  0.00  0.00     0.210 HD
ATOM     43  H   H1S d  69       8.866  -1.741  10.440  0.00  0.00     0.210 HD
ATOM     44  H   H1S d  69       5.115  -3.969  12.852  0.00  0.00     0.140 HD
ATOM     45  H   H1S d  69       7.980  -4.539  10.795  0.00  0.00     0.091 H 
ATOM     46  H   H1S d  69       7.162   0.470   8.702  0.00  0.00     0.085 H 
ATOM     47  H   H1S d  69       6.095  -1.938  12.782  0.00  0.00     0.134 H 
ATOM     48  H   H1S d  69       7.048  -5.361  14.496  0.00  0.00     0.076 H 
ATOM     49  H   H1S d  69       6.790  -5.156   8.906  0.00  0.00     0.080 H 
ATOM     50  H   H1S d  69       5.713  -3.776   8.961  0.00  0.00     0.080 H 
ATOM     51  H   H1S d  69       5.543  -1.571  15.421  0.00  0.00     0.231 HD
ATOM     52  H   H1S d  69       8.159  -0.678  12.784  0.00  0.00     0.097 H 
ATOM     53  H   H1S d  69       7.685  -6.548  12.262  0.00  0.00     0.131 H 
ENDROOT
TORSDOF 16
ENDMDL
MODEL 39
REMARK VINA RESULT:      -4.7      4.037      8.883
REMARK  0 active torsions:
REMARK  status: ('A' for Active; 'I' for Inactive)
REMARK       I    between atoms: O15_1  and  C10_31 
REMARK       I    between atoms: C17_4  and  O25_18 
REMARK       I    between atoms: O28_6  and  S20_15 
REMARK       I    between atoms: O3_7  and  C1_22 
REMARK       I    between atoms: O3_7  and  C7_24 
REMARK       I    between atoms: O30_8  and  S20_15 
REMARK       I    between atoms: C2_10  and  C6_27 
REMARK       I    between atoms: O18_13  and  C12_30 
REMARK       I    between atoms: O18_13  and  S26_34 
REMARK       I    between atoms: S20_15  and  N14_20 
REMARK       I    between atoms: S20_15  and  O29_29 
REMARK       I    between atoms: C4_16  and  O9_17 
REMARK       I    between atoms: N14_20  and  C8_26 
REMARK       I    between atoms: C6_27  and  O11_28 
REMARK       I    between atoms: O11_28  and  S16_32 
REMARK       I    between atoms: C19_33  and  C27_35 
ROOT
ATOM      1  O15 H1S d  69       6.578   0.350   4.346  0.00  0.00    -0.369 OA
ATOM      2  O22 H1S d  69       3.040   3.877   3.348  0.00  0.00    -0.572 OA
ATOM      3  O31 H1S d  69       6.779   2.553  13.559  0.00  0.00    -0.572 OA
ATOM      4  C17 H1S d  69       4.565   4.612  11.162  0.00  0.00     0.086 C 
ATOM      5  O5  H1S d  69       4.515   1.635   5.336  0.00  0.00    -0.350 OA
ATOM      6  O28 H1S d  69       5.101  -2.210   8.939  0.00  0.00    -0.296 OA
ATOM      7  O3  H1S d  69       4.695   3.409   8.721  0.00  0.00    -0.348 OA
ATOM      8  O30 H1S d  69       7.287  -1.401   8.642  0.00  0.00    -0.296 OA
ATOM      9  O32 H1S d  69       4.813   3.777  14.282  0.00  0.00    -0.572 OA
ATOM     10  C2  H1S d  69       3.983   2.314   6.550  0.00  0.00     0.091 C 
ATOM     11  O35 H1S d  69       0.275   2.760   9.381  0.00  0.00    -0.642 OA
ATOM     12  O13 H1S d  69       2.974   2.450   9.857  0.00  0.00    -0.311 OA
ATOM     13  O18 H1S d  69       4.699   2.409  12.255  0.00  0.00    -0.244 OA
ATOM     14  O21 H1S d  69       2.062   1.675   2.972  0.00  0.00    -0.572 OA
ATOM     15  S20 H1S d  69       5.892  -0.976   8.757  0.00  0.00     0.156 S 
ATOM     16  C4  H1S d  69       6.347   2.093   7.756  0.00  0.00     0.083 C 
ATOM     17  O9  H1S d  69       7.590   2.861   7.653  0.00  0.00    -0.391 OA
ATOM     18  O25 H1S d  69       5.375   5.419  10.300  0.00  0.00    -0.389 OA
ATOM     19  O34 H1S d  69       0.256   4.780  10.304  0.00  0.00    -0.642 OA
ATOM     20  N14 H1S d  69       5.335  -0.105   7.482  0.00  0.00    -0.210 NA
ATOM     21  O33 H1S d  69       4.805   1.289  14.195  0.00  0.00    -0.572 OA
ATOM     22  C1  H1S d  69       5.115   2.957   7.429  0.00  0.00     0.095 C 
ATOM     23  C24 H1S d  69       3.037   4.701  10.842  0.00  0.00    -0.034 C 
ATOM     24  C7  H1S d  69       4.440   2.498   9.824  0.00  0.00     0.167 C 
ATOM     25  O23 H1S d  69       0.562   3.525   3.359  0.00  0.00    -0.572 OA
ATOM     26  C8  H1S d  69       6.321   0.834   6.896  0.00  0.00     0.081 C 
ATOM     27  C6  H1S d  69       2.903   3.329   6.147  0.00  0.00     0.067 C 
ATOM     28  O11 H1S d  69       1.954   2.710   5.201  0.00  0.00    -0.254 OA
ATOM     29  O29 H1S d  69       5.782  -0.162  10.006  0.00  0.00    -0.296 OA
ATOM     30  C12 H1S d  69       5.068   3.147  11.070  0.00  0.00     0.135 C 
ATOM     31  C10 H1S d  69       5.963   1.249   5.430  0.00  0.00     0.147 C 
ATOM     32  S16 H1S d  69       1.901   2.950   3.746  0.00  0.00     0.251 S 
ATOM     33  C19 H1S d  69       2.348   3.626  10.224  0.00  0.00     0.147 C 
ATOM     34  S26 H1S d  69       5.280   2.536  13.584  0.00  0.00     0.252 S 
ATOM     35  C27 H1S d  69       0.841   3.732   9.948  0.00  0.00     0.233 C 
ATOM     36  H   H1S d  69       6.311   0.671   3.471  0.00  0.00     0.212 HD
ATOM     37  H   H1S d  69       4.665   4.985  12.160  0.00  0.00     0.093 H 
ATOM     38  H   H1S d  69       5.159  -2.753   8.137  0.00  0.00     0.231 HD
ATOM     39  H   H1S d  69       7.398  -1.934   7.839  0.00  0.00     0.231 HD
ATOM     40  H   H1S d  69       3.531   1.571   7.174  0.00  0.00     0.090 H 
ATOM     41  H   H1S d  69       6.309   1.781   8.779  0.00  0.00     0.089 H 
ATOM     42  H   H1S d  69       7.696   3.182   6.744  0.00  0.00     0.210 HD
ATOM     43  H   H1S d  69       5.298   5.096   9.388  0.00  0.00     0.210 HD
ATOM     44  H   H1S d  69       4.528   0.435   7.794  0.00  0.00     0.140 HD
ATOM     45  H   H1S d  69       5.373   3.749   6.758  0.00  0.00     0.091 H 
ATOM     46  H   H1S d  69       2.519   5.559  11.085  0.00  0.00     0.085 H 
ATOM     47  H   H1S d  69       4.844   1.510   9.754  0.00  0.00     0.134 H 
ATOM     48  H   H1S d  69       7.270   0.339   6.871  0.00  0.00     0.076 H 
ATOM     49  H   H1S d  69       3.366   4.174   5.682  0.00  0.00     0.080 H 
ATOM     50  H   H1S d  69       2.372   3.643   7.022  0.00  0.00     0.080 H 
ATOM     51  H   H1S d  69       6.113  -0.678  10.758  0.00  0.00     0.231 HD
ATOM     52  H   H1S d  69       6.136   3.135  10.993  0.00  0.00     0.097 H 
ATOM     53  H   H1S d  69       6.474   2.153   5.173  0.00  0.00     0.131 H 
ENDROOT
TORSDOF 16
ENDMDL
MODEL 40
REMARK VINA RESULT:      -4.6      3.388      7.737
REMARK  0 active torsions:
REMARK  status: ('A' for Active; 'I' for Inactive)
REMARK       I    between atoms: O15_1  and  C10_31 
REMARK       I    between atoms: C17_4  and  O25_18 
REMARK       I    between atoms: O28_6  and  S20_15 
REMARK       I    between atoms: O3_7  and  C1_22 
REMARK       I    between atoms: O3_7  and  C7_24 
REMARK       I    between atoms: O30_8  and  S20_15 
REMARK       I    between atoms: C2_10  and  C6_27 
REMARK       I    between atoms: O18_13  and  C12_30 
REMARK       I    between atoms: O18_13  and  S26_34 
REMARK       I    between atoms: S20_15  and  N14_20 
REMARK       I    between atoms: S20_15  and  O29_29 
REMARK       I    between atoms: C4_16  and  O9_17 
REMARK       I    between atoms: N14_20  and  C8_26 
REMARK       I    between atoms: C6_27  and  O11_28 
REMARK       I    between atoms: O11_28  and  S16_32 
REMARK       I    between atoms: C19_33  and  C27_35 
ROOT
ATOM      1  O15 H1S d  69       7.750   0.098   3.636  0.00  0.00    -0.369 OA
ATOM      2  O22 H1S d  69       5.191   4.418   4.500  0.00  0.00    -0.572 OA
ATOM      3  O31 H1S d  69       6.629  -2.846  12.571  0.00  0.00    -0.572 OA
ATOM      4  C17 H1S d  69       5.333   0.640  11.544  0.00  0.00     0.086 C 
ATOM      5  O5  H1S d  69       5.817   1.183   5.042  0.00  0.00    -0.350 OA
ATOM      6  O28 H1S d  69       4.981  -3.960   6.022  0.00  0.00    -0.296 OA
ATOM      7  O3  H1S d  69       5.690   0.864   8.852  0.00  0.00    -0.348 OA
ATOM      8  O30 H1S d  69       7.297  -3.713   6.337  0.00  0.00    -0.296 OA
ATOM      9  O32 H1S d  69       4.830  -1.700  13.726  0.00  0.00    -0.572 OA
ATOM     10  C2  H1S d  69       5.205   1.259   6.397  0.00  0.00     0.091 C 
ATOM     11  O35 H1S d  69       1.183   1.144   8.800  0.00  0.00    -0.642 OA
ATOM     12  O13 H1S d  69       3.636  -0.055   9.189  0.00  0.00    -0.311 OA
ATOM     13  O18 H1S d  69       4.842  -1.759  11.279  0.00  0.00    -0.244 OA
ATOM     14  O21 H1S d  69       3.904   3.058   2.938  0.00  0.00    -0.572 OA
ATOM     15  S20 H1S d  69       6.010  -3.060   6.582  0.00  0.00     0.156 S 
ATOM     16  C4  H1S d  69       7.215  -0.151   7.427  0.00  0.00     0.083 C 
ATOM     17  O9  H1S d  69       8.577   0.208   7.827  0.00  0.00    -0.391 OA
ATOM     18  O25 H1S d  69       6.428   1.531  11.303  0.00  0.00    -0.389 OA
ATOM     19  O34 H1S d  69       1.372   2.334  10.666  0.00  0.00    -0.642 OA
ATOM     20  N14 H1S d  69       5.876  -1.552   5.951  0.00  0.00    -0.210 NA
ATOM     21  O33 H1S d  69       4.369  -3.694  12.308  0.00  0.00    -0.572 OA
ATOM     22  C1  H1S d  69       6.251   1.044   7.548  0.00  0.00     0.095 C 
ATOM     23  C24 H1S d  69       3.937   1.273  11.235  0.00  0.00    -0.034 C 
ATOM     24  C7  H1S d  69       5.065  -0.379   9.272  0.00  0.00     0.167 C 
ATOM     25  O23 H1S d  69       2.734   4.768   4.175  0.00  0.00    -0.572 OA
ATOM     26  C8  H1S d  69       7.114  -0.739   6.023  0.00  0.00     0.081 C 
ATOM     27  C6  H1S d  69       4.430   2.577   6.545  0.00  0.00     0.067 C 
ATOM     28  O11 H1S d  69       3.576   2.798   5.361  0.00  0.00    -0.254 OA
ATOM     29  O29 H1S d  69       5.824  -3.001   8.064  0.00  0.00    -0.296 OA
ATOM     30  C12 H1S d  69       5.559  -0.645  10.704  0.00  0.00     0.135 C 
ATOM     31  C10 H1S d  69       7.122   0.442   4.996  0.00  0.00     0.147 C 
ATOM     32  S16 H1S d  69       3.843   3.751   4.267  0.00  0.00     0.251 S 
ATOM     33  C19 H1S d  69       3.186   0.885  10.096  0.00  0.00     0.147 C 
ATOM     34  S26 H1S d  69       5.176  -2.484  12.497  0.00  0.00     0.252 S 
ATOM     35  C27 H1S d  69       1.805   1.504   9.834  0.00  0.00     0.233 C 
ATOM     36  H   H1S d  69       7.717   0.877   3.059  0.00  0.00     0.212 HD
ATOM     37  H   H1S d  69       5.312   0.411  12.589  0.00  0.00     0.093 H 
ATOM     38  H   H1S d  69       5.085  -4.011   5.059  0.00  0.00     0.231 HD
ATOM     39  H   H1S d  69       7.454  -3.769   5.381  0.00  0.00     0.231 HD
ATOM     40  H   H1S d  69       4.512   0.449   6.494  0.00  0.00     0.090 H 
ATOM     41  H   H1S d  69       6.928  -0.919   8.114  0.00  0.00     0.089 H 
ATOM     42  H   H1S d  69       8.911   0.907   7.244  0.00  0.00     0.210 HD
ATOM     43  H   H1S d  69       6.464   1.751  10.359  0.00  0.00     0.210 HD
ATOM     44  H   H1S d  69       5.142  -1.058   6.458  0.00  0.00     0.140 HD
ATOM     45  H   H1S d  69       6.776   1.969   7.428  0.00  0.00     0.091 H 
ATOM     46  H   H1S d  69       3.553   1.988  11.873  0.00  0.00     0.085 H 
ATOM     47  H   H1S d  69       5.282  -1.258   8.702  0.00  0.00     0.134 H 
ATOM     48  H   H1S d  69       7.940  -1.378   5.790  0.00  0.00     0.076 H 
ATOM     49  H   H1S d  69       5.123   3.387   6.638  0.00  0.00     0.080 H 
ATOM     50  H   H1S d  69       3.814   2.526   7.419  0.00  0.00     0.080 H 
ATOM     51  H   H1S d  69       5.904  -3.894   8.436  0.00  0.00     0.231 HD
ATOM     52  H   H1S d  69       6.600  -0.893  10.695  0.00  0.00     0.097 H 
ATOM     53  H   H1S d  69       7.834   1.182   5.298  0.00  0.00     0.131 H 
ENDROOT
TORSDOF 16
ENDMDL
MODEL 41
REMARK VINA RESULT:      -4.6      1.999      2.262
REMARK  0 active torsions:
REMARK  status: ('A' for Active; 'I' for Inactive)
REMARK       I    between atoms: O15_1  and  C10_31 
REMARK       I    between atoms: C17_4  and  O25_18 
REMARK       I    between atoms: O28_6  and  S20_15 
REMARK       I    between atoms: O3_7  and  C1_22 
REMARK       I    between atoms: O3_7  and  C7_24 
REMARK       I    between atoms: O30_8  and  S20_15 
REMARK       I    between atoms: C2_10  and  C6_27 
REMARK       I    between atoms: O18_13  and  C12_30 
REMARK       I    between atoms: O18_13  and  S26_34 
REMARK       I    between atoms: S20_15  and  N14_20 
REMARK       I    between atoms: S20_15  and  O29_29 
REMARK       I    between atoms: C4_16  and  O9_17 
REMARK       I    between atoms: N14_20  and  C8_26 
REMARK       I    between atoms: C6_27  and  O11_28 
REMARK       I    between atoms: O11_28  and  S16_32 
REMARK       I    between atoms: C19_33  and  C27_35 
ROOT
ATOM      1  O15 H1S d  69       7.498   1.481  14.305  0.00  0.00    -0.369 OA
ATOM      2  O22 H1S d  69       8.511  -2.822  16.836  0.00  0.00    -0.572 OA
ATOM      3  O31 H1S d  69       6.115  -3.143   6.153  0.00  0.00    -0.572 OA
ATOM      4  C17 H1S d  69       7.245  -5.102   9.279  0.00  0.00     0.086 C 
ATOM      5  O5  H1S d  69       6.969  -1.085  14.437  0.00  0.00    -0.350 OA
ATOM      6  O28 H1S d  69       3.166   0.534  11.116  0.00  0.00    -0.296 OA
ATOM      7  O3  H1S d  69       7.247  -3.348  11.364  0.00  0.00    -0.348 OA
ATOM      8  O30 H1S d  69       5.105   1.558  10.269  0.00  0.00    -0.296 OA
ATOM      9  O32 H1S d  69       5.687  -5.510   6.469  0.00  0.00    -0.572 OA
ATOM     10  C2  H1S d  69       6.766  -2.320  13.629  0.00  0.00     0.091 C 
ATOM     11  O35 H1S d  69       4.052  -6.089  12.999  0.00  0.00    -0.642 OA
ATOM     12  O13 H1S d  69       5.169  -4.268  11.255  0.00  0.00    -0.311 OA
ATOM     13  O18 H1S d  69       5.286  -3.959   8.319  0.00  0.00    -0.244 OA
ATOM     14  O21 H1S d  69       6.432  -1.889  17.703  0.00  0.00    -0.572 OA
ATOM     15  S20 H1S d  69       4.603   0.313  10.850  0.00  0.00     0.156 S 
ATOM     16  C4  H1S d  69       7.513  -1.043  11.416  0.00  0.00     0.083 C 
ATOM     17  O9  H1S d  69       8.824  -0.686  10.870  0.00  0.00    -0.391 OA
ATOM     18  O25 H1S d  69       8.602  -4.786   9.605  0.00  0.00    -0.389 OA
ATOM     19  O34 H1S d  69       5.247  -7.760  12.155  0.00  0.00    -0.642 OA
ATOM     20  N14 H1S d  69       5.382  -0.171  12.211  0.00  0.00    -0.210 NA
ATOM     21  O33 H1S d  69       3.837  -3.850   6.611  0.00  0.00    -0.572 OA
ATOM     22  C1  H1S d  69       7.584  -2.309  12.289  0.00  0.00     0.095 C 
ATOM     23  C24 H1S d  69       6.564  -6.058  10.312  0.00  0.00    -0.034 C 
ATOM     24  C7  H1S d  69       6.040  -3.315  10.555  0.00  0.00     0.167 C 
ATOM     25  O23 H1S d  69       6.851  -4.237  18.065  0.00  0.00    -0.572 OA
ATOM     26  C8  H1S d  69       6.844   0.077  12.207  0.00  0.00     0.081 C 
ATOM     27  C6  H1S d  69       7.063  -3.559  14.488  0.00  0.00     0.067 C 
ATOM     28  O11 H1S d  69       6.387  -3.441  15.796  0.00  0.00    -0.254 OA
ATOM     29  O29 H1S d  69       4.727  -0.744   9.799  0.00  0.00    -0.296 OA
ATOM     30  C12 H1S d  69       6.455  -3.773   9.146  0.00  0.00     0.135 C 
ATOM     31  C10 H1S d  69       7.458   0.094  13.646  0.00  0.00     0.147 C 
ATOM     32  S16 H1S d  69       7.036  -3.111  17.079  0.00  0.00     0.251 S 
ATOM     33  C19 H1S d  69       5.578  -5.587  11.217  0.00  0.00     0.147 C 
ATOM     34  S26 H1S d  69       5.252  -4.135   6.874  0.00  0.00     0.252 S 
ATOM     35  C27 H1S d  69       4.907  -6.556  12.201  0.00  0.00     0.233 C 
ATOM     36  H   H1S d  69       7.890   1.408  15.189  0.00  0.00     0.212 HD
ATOM     37  H   H1S d  69       7.240  -5.639   8.354  0.00  0.00     0.093 H 
ATOM     38  H   H1S d  69       3.065   1.217  11.797  0.00  0.00     0.231 HD
ATOM     39  H   H1S d  69       5.040   2.270  10.925  0.00  0.00     0.231 HD
ATOM     40  H   H1S d  69       5.739  -2.357  13.330  0.00  0.00     0.090 H 
ATOM     41  H   H1S d  69       6.906  -1.230  10.555  0.00  0.00     0.089 H 
ATOM     42  H   H1S d  69       9.437  -0.500  11.598  0.00  0.00     0.210 HD
ATOM     43  H   H1S d  69       8.628  -4.297  10.443  0.00  0.00     0.210 HD
ATOM     44  H   H1S d  69       5.230  -1.172  12.326  0.00  0.00     0.140 HD
ATOM     45  H   H1S d  69       8.556  -2.417  12.723  0.00  0.00     0.091 H 
ATOM     46  H   H1S d  69       6.837  -7.053  10.337  0.00  0.00     0.085 H 
ATOM     47  H   H1S d  69       5.546  -2.373  10.441  0.00  0.00     0.134 H 
ATOM     48  H   H1S d  69       7.012   1.039  11.771  0.00  0.00     0.076 H 
ATOM     49  H   H1S d  69       8.118  -3.640  14.642  0.00  0.00     0.080 H 
ATOM     50  H   H1S d  69       6.701  -4.431  13.984  0.00  0.00     0.080 H 
ATOM     51  H   H1S d  69       4.266  -0.456   8.996  0.00  0.00     0.231 HD
ATOM     52  H   H1S d  69       7.071  -3.031   8.684  0.00  0.00     0.097 H 
ATOM     53  H   H1S d  69       8.514  -0.069  13.593  0.00  0.00     0.131 H 
ENDROOT
TORSDOF 16
ENDMDL
MODEL 42
REMARK VINA RESULT:      -4.6      3.701      5.471
REMARK  0 active torsions:
REMARK  status: ('A' for Active; 'I' for Inactive)
REMARK       I    between atoms: O15_1  and  C10_31 
REMARK       I    between atoms: C17_4  and  O25_18 
REMARK       I    between atoms: O28_6  and  S20_15 
REMARK       I    between atoms: O3_7  and  C1_22 
REMARK       I    between atoms: O3_7  and  C7_24 
REMARK       I    between atoms: O30_8  and  S20_15 
REMARK       I    between atoms: C2_10  and  C6_27 
REMARK       I    between atoms: O18_13  and  C12_30 
REMARK       I    between atoms: O18_13  and  S26_34 
REMARK       I    between atoms: S20_15  and  N14_20 
REMARK       I    between atoms: S20_15  and  O29_29 
REMARK       I    between atoms: C4_16  and  O9_17 
REMARK       I    between atoms: N14_20  and  C8_26 
REMARK       I    between atoms: C6_27  and  O11_28 
REMARK       I    between atoms: O11_28  and  S16_32 
REMARK       I    between atoms: C19_33  and  C27_35 
ROOT
ATOM      1  O15 H1S d  69       8.840   1.723  15.430  0.00  0.00    -0.369 OA
ATOM      2  O22 H1S d  69       4.929  -1.537  15.592  0.00  0.00    -0.572 OA
ATOM      3  O31 H1S d  69       7.710   3.271   6.152  0.00  0.00    -0.572 OA
ATOM      4  C17 H1S d  69       5.476   0.677   7.930  0.00  0.00     0.086 C 
ATOM      5  O5  H1S d  69       6.510   1.140  14.374  0.00  0.00    -0.350 OA
ATOM      6  O28 H1S d  69       7.291   6.004  12.413  0.00  0.00    -0.296 OA
ATOM      7  O3  H1S d  69       6.051   0.816  10.589  0.00  0.00    -0.348 OA
ATOM      8  O30 H1S d  69       9.346   4.927  12.038  0.00  0.00    -0.296 OA
ATOM      9  O32 H1S d  69       5.514   2.631   5.346  0.00  0.00    -0.572 OA
ATOM     10  C2  H1S d  69       5.753   1.045  13.095  0.00  0.00     0.091 C 
ATOM     11  O35 H1S d  69       1.738   2.113  10.925  0.00  0.00    -0.642 OA
ATOM     12  O13 H1S d  69       4.386   2.310  10.178  0.00  0.00    -0.311 OA
ATOM     13  O18 H1S d  69       5.829   3.106   7.727  0.00  0.00    -0.244 OA
ATOM     14  O21 H1S d  69       4.348   0.431  16.909  0.00  0.00    -0.572 OA
ATOM     15  S20 H1S d  69       7.898   4.723  11.996  0.00  0.00     0.156 S 
ATOM     16  C4  H1S d  69       7.979   1.477  11.699  0.00  0.00     0.083 C 
ATOM     17  O9  H1S d  69       9.093   0.609  11.312  0.00  0.00    -0.391 OA
ATOM     18  O25 H1S d  69       6.239  -0.479   8.290  0.00  0.00    -0.389 OA
ATOM     19  O34 H1S d  69       1.310   0.625   9.333  0.00  0.00    -0.642 OA
ATOM     20  N14 H1S d  69       7.353   3.486  12.927  0.00  0.00    -0.210 NA
ATOM     21  O33 H1S d  69       5.898   4.875   6.351  0.00  0.00    -0.572 OA
ATOM     22  C1  H1S d  69       6.671   0.684  11.873  0.00  0.00     0.095 C 
ATOM     23  C24 H1S d  69       3.995   0.626   8.431  0.00  0.00    -0.034 C 
ATOM     24  C7  H1S d  69       5.822   2.105   9.958  0.00  0.00     0.167 C 
ATOM     25  O23 H1S d  69       2.548  -0.960  16.105  0.00  0.00    -0.572 OA
ATOM     26  C8  H1S d  69       8.240   2.298  12.958  0.00  0.00     0.081 C 
ATOM     27  C6  H1S d  69       4.578   0.068  13.257  0.00  0.00     0.067 C 
ATOM     28  O11 H1S d  69       3.843   0.363  14.503  0.00  0.00    -0.254 OA
ATOM     29  O29 H1S d  69       7.531   4.475  10.568  0.00  0.00    -0.296 OA
ATOM     30  C12 H1S d  69       6.206   1.932   8.478  0.00  0.00     0.135 C 
ATOM     31  C10 H1S d  69       7.981   1.384  14.202  0.00  0.00     0.147 C 
ATOM     32  S16 H1S d  69       3.910  -0.418  15.753  0.00  0.00     0.251 S 
ATOM     33  C19 H1S d  69       3.550   1.439   9.505  0.00  0.00     0.147 C 
ATOM     34  S26 H1S d  69       6.238   3.449   6.372  0.00  0.00     0.252 S 
ATOM     35  C27 H1S d  69       2.083   1.387   9.956  0.00  0.00     0.233 C 
ATOM     36  H   H1S d  69       8.623   1.115  16.154  0.00  0.00     0.212 HD
ATOM     37  H   H1S d  69       5.410   0.714   6.863  0.00  0.00     0.093 H 
ATOM     38  H   H1S d  69       7.518   6.183  13.339  0.00  0.00     0.231 HD
ATOM     39  H   H1S d  69       9.623   5.091  12.953  0.00  0.00     0.231 HD
ATOM     40  H   H1S d  69       5.356   2.013  12.871  0.00  0.00     0.090 H 
ATOM     41  H   H1S d  69       7.880   2.166  10.886  0.00  0.00     0.089 H 
ATOM     42  H   H1S d  69       9.245  -0.050  12.007  0.00  0.00     0.210 HD
ATOM     43  H   H1S d  69       6.311  -0.530   9.256  0.00  0.00     0.210 HD
ATOM     44  H   H1S d  69       6.444   3.194  12.568  0.00  0.00     0.140 HD
ATOM     45  H   H1S d  69       6.874  -0.329  12.151  0.00  0.00     0.091 H 
ATOM     46  H   H1S d  69       3.328  -0.014   7.972  0.00  0.00     0.085 H 
ATOM     47  H   H1S d  69       6.379   2.941  10.326  0.00  0.00     0.134 H 
ATOM     48  H   H1S d  69       9.251   2.646  13.015  0.00  0.00     0.076 H 
ATOM     49  H   H1S d  69       4.953  -0.933  13.296  0.00  0.00     0.080 H 
ATOM     50  H   H1S d  69       3.915   0.175  12.424  0.00  0.00     0.080 H 
ATOM     51  H   H1S d  69       7.854   5.207  10.019  0.00  0.00     0.231 HD
ATOM     52  H   H1S d  69       7.264   1.805   8.384  0.00  0.00     0.097 H 
ATOM     53  H   H1S d  69       8.372   0.405  14.020  0.00  0.00     0.131 H 
ENDROOT
TORSDOF 16
ENDMDL
MODEL 43
REMARK VINA RESULT:      -4.6      3.098      6.431
REMARK  0 active torsions:
REMARK  status: ('A' for Active; 'I' for Inactive)
REMARK       I    between atoms: O15_1  and  C10_31 
REMARK       I    between atoms: C17_4  and  O25_18 
REMARK       I    between atoms: O28_6  and  S20_15 
REMARK       I    between atoms: O3_7  and  C1_22 
REMARK       I    between atoms: O3_7  and  C7_24 
REMARK       I    between atoms: O30_8  and  S20_15 
REMARK       I    between atoms: C2_10  and  C6_27 
REMARK       I    between atoms: O18_13  and  C12_30 
REMARK       I    between atoms: O18_13  and  S26_34 
REMARK       I    between atoms: S20_15  and  N14_20 
REMARK       I    between atoms: S20_15  and  O29_29 
REMARK       I    between atoms: C4_16  and  O9_17 
REMARK       I    between atoms: N14_20  and  C8_26 
REMARK       I    between atoms: C6_27  and  O11_28 
REMARK       I    between atoms: O11_28  and  S16_32 
REMARK       I    between atoms: C19_33  and  C27_35 
ROOT
ATOM      1  O15 H1S d  69       5.671  -0.549  19.032  0.00  0.00    -0.369 OA
ATOM      2  O22 H1S d  69       4.719   4.370  18.112  0.00  0.00    -0.572 OA
ATOM      3  O31 H1S d  69       4.464  -2.917   9.939  0.00  0.00    -0.572 OA
ATOM      4  C17 H1S d  69       3.852   0.726  11.049  0.00  0.00     0.086 C 
ATOM      5  O5  H1S d  69       5.869   1.359  17.241  0.00  0.00    -0.350 OA
ATOM      6  O28 H1S d  69       8.963  -2.358  15.067  0.00  0.00    -0.296 OA
ATOM      7  O3  H1S d  69       4.575   0.896  13.671  0.00  0.00    -0.348 OA
ATOM      8  O30 H1S d  69       7.034  -3.547  15.689  0.00  0.00    -0.296 OA
ATOM      9  O32 H1S d  69       4.635  -1.020   8.437  0.00  0.00    -0.572 OA
ATOM     10  C2  H1S d  69       5.709   1.680  15.796  0.00  0.00     0.091 C 
ATOM     11  O35 H1S d  69       7.671   3.781  12.094  0.00  0.00    -0.642 OA
ATOM     12  O13 H1S d  69       6.427   1.342  12.427  0.00  0.00    -0.311 OA
ATOM     13  O18 H1S d  69       5.664  -0.894  10.654  0.00  0.00    -0.244 OA
ATOM     14  O21 H1S d  69       7.049   4.151  18.796  0.00  0.00    -0.572 OA
ATOM     15  S20 H1S d  69       7.488  -2.282  15.111  0.00  0.00     0.156 S 
ATOM     16  C4  H1S d  69       4.638  -0.715  15.341  0.00  0.00     0.083 C 
ATOM     17  O9  H1S d  69       3.295  -1.258  15.552  0.00  0.00    -0.391 OA
ATOM     18  O25 H1S d  69       2.664   0.816  11.844  0.00  0.00    -0.389 OA
ATOM     19  O34 H1S d  69       6.098   4.489  10.694  0.00  0.00    -0.642 OA
ATOM     20  N14 H1S d  69       6.994  -0.943  15.920  0.00  0.00    -0.210 NA
ATOM     21  O33 H1S d  69       6.670  -2.248   9.177  0.00  0.00    -0.572 OA
ATOM     22  C1  H1S d  69       4.607   0.805  15.099  0.00  0.00     0.095 C 
ATOM     23  C24 H1S d  69       4.623   2.082  10.930  0.00  0.00    -0.034 C 
ATOM     24  C7  H1S d  69       5.551   0.233  12.822  0.00  0.00     0.167 C 
ATOM     25  O23 H1S d  69       6.417   6.124  17.559  0.00  0.00    -0.572 OA
ATOM     26  C8  H1S d  69       5.618  -1.024  16.469  0.00  0.00     0.081 C 
ATOM     27  C6  H1S d  69       5.461   3.187  15.622  0.00  0.00     0.067 C 
ATOM     28  O11 H1S d  69       6.435   3.955  16.422  0.00  0.00    -0.254 OA
ATOM     29  O29 H1S d  69       6.980  -2.234  13.705  0.00  0.00    -0.296 OA
ATOM     30  C12 H1S d  69       4.758  -0.378  11.654  0.00  0.00     0.135 C 
ATOM     31  C10 H1S d  69       5.369  -0.003  17.628  0.00  0.00     0.147 C 
ATOM     32  S16 H1S d  69       6.156   4.645  17.696  0.00  0.00     0.251 S 
ATOM     33  C19 H1S d  69       5.848   2.297  11.613  0.00  0.00     0.147 C 
ATOM     34  S26 H1S d  69       5.332  -1.764   9.534  0.00  0.00     0.252 S 
ATOM     35  C27 H1S d  69       6.597   3.628  11.454  0.00  0.00     0.233 C 
ATOM     36  H   H1S d  69       5.493   0.140  19.692  0.00  0.00     0.212 HD
ATOM     37  H   H1S d  69       3.567   0.477  10.049  0.00  0.00     0.093 H 
ATOM     38  H   H1S d  69       9.312  -2.389  15.971  0.00  0.00     0.231 HD
ATOM     39  H   H1S d  69       7.345  -3.614  16.605  0.00  0.00     0.231 HD
ATOM     40  H   H1S d  69       6.622   1.430  15.297  0.00  0.00     0.090 H 
ATOM     41  H   H1S d  69       4.995  -1.214  14.465  0.00  0.00     0.089 H 
ATOM     42  H   H1S d  69       2.902  -0.850  16.339  0.00  0.00     0.210 HD
ATOM     43  H   H1S d  69       2.902   1.042  12.756  0.00  0.00     0.210 HD
ATOM     44  H   H1S d  69       7.033  -0.151  15.279  0.00  0.00     0.140 HD
ATOM     45  H   H1S d  69       3.759   1.249  15.578  0.00  0.00     0.091 H 
ATOM     46  H   H1S d  69       4.234   2.835  10.343  0.00  0.00     0.085 H 
ATOM     47  H   H1S d  69       6.125  -0.560  13.254  0.00  0.00     0.134 H 
ATOM     48  H   H1S d  69       5.482  -2.008  16.867  0.00  0.00     0.076 H 
ATOM     49  H   H1S d  69       4.470   3.423  15.949  0.00  0.00     0.080 H 
ATOM     50  H   H1S d  69       5.573   3.444  14.590  0.00  0.00     0.080 H 
ATOM     51  H   H1S d  69       7.273  -3.027  13.229  0.00  0.00     0.231 HD
ATOM     52  H   H1S d  69       4.155  -1.191  12.002  0.00  0.00     0.097 H 
ATOM     53  H   H1S d  69       4.318   0.150  17.758  0.00  0.00     0.131 H 
ENDROOT
TORSDOF 16
ENDMDL
MODEL 44
REMARK VINA RESULT:      -4.6      2.612      4.223
REMARK  0 active torsions:
REMARK  status: ('A' for Active; 'I' for Inactive)
REMARK       I    between atoms: O15_1  and  C10_31 
REMARK       I    between atoms: C17_4  and  O25_18 
REMARK       I    between atoms: O28_6  and  S20_15 
REMARK       I    between atoms: O3_7  and  C1_22 
REMARK       I    between atoms: O3_7  and  C7_24 
REMARK       I    between atoms: O30_8  and  S20_15 
REMARK       I    between atoms: C2_10  and  C6_27 
REMARK       I    between atoms: O18_13  and  C12_30 
REMARK       I    between atoms: O18_13  and  S26_34 
REMARK       I    between atoms: S20_15  and  N14_20 
REMARK       I    between atoms: S20_15  and  O29_29 
REMARK       I    between atoms: C4_16  and  O9_17 
REMARK       I    between atoms: N14_20  and  C8_26 
REMARK       I    between atoms: C6_27  and  O11_28 
REMARK       I    between atoms: O11_28  and  S16_32 
REMARK       I    between atoms: C19_33  and  C27_35 
ROOT
ATOM      1  O15 H1S d  69       6.977   2.460   9.606  0.00  0.00    -0.369 OA
ATOM      2  O22 H1S d  69       6.904   3.503  14.592  0.00  0.00    -0.572 OA
ATOM      3  O31 H1S d  69       7.514  -6.874  11.137  0.00  0.00    -0.572 OA
ATOM      4  C17 H1S d  69       7.580  -4.450  14.139  0.00  0.00     0.086 C 
ATOM      5  O5  H1S d  69       6.226   1.568  11.957  0.00  0.00    -0.350 OA
ATOM      6  O28 H1S d  69       3.625  -1.768   8.759  0.00  0.00    -0.296 OA
ATOM      7  O3  H1S d  69       7.152  -1.946  13.154  0.00  0.00    -0.348 OA
ATOM      8  O30 H1S d  69       5.798  -1.735   7.864  0.00  0.00    -0.296 OA
ATOM      9  O32 H1S d  69       6.825  -7.506  13.375  0.00  0.00    -0.572 OA
ATOM     10  C2  H1S d  69       6.153   0.359  12.823  0.00  0.00     0.091 C 
ATOM     11  O35 H1S d  69       3.420  -2.149  15.688  0.00  0.00    -0.642 OA
ATOM     12  O13 H1S d  69       5.117  -2.844  13.628  0.00  0.00    -0.311 OA
ATOM     13  O18 H1S d  69       6.059  -5.379  12.438  0.00  0.00    -0.244 OA
ATOM     14  O21 H1S d  69       4.750   4.135  13.641  0.00  0.00    -0.572 OA
ATOM     15  S20 H1S d  69       5.056  -1.754   9.126  0.00  0.00     0.156 S 
ATOM     16  C4  H1S d  69       7.580  -1.038  11.061  0.00  0.00     0.083 C 
ATOM     17  O9  H1S d  69       9.015  -1.108  10.778  0.00  0.00    -0.391 OA
ATOM     18  O25 H1S d  69       8.817  -3.731  14.175  0.00  0.00    -0.389 OA
ATOM     19  O34 H1S d  69       4.661  -3.219  17.187  0.00  0.00    -0.642 OA
ATOM     20  N14 H1S d  69       5.391  -0.505  10.136  0.00  0.00    -0.210 NA
ATOM     21  O33 H1S d  69       5.149  -7.228  11.556  0.00  0.00    -0.572 OA
ATOM     22  C1  H1S d  69       7.306  -0.667  12.530  0.00  0.00     0.095 C 
ATOM     23  C24 H1S d  69       6.566  -4.000  15.241  0.00  0.00    -0.034 C 
ATOM     24  C7  H1S d  69       6.220  -2.949  12.666  0.00  0.00     0.167 C 
ATOM     25  O23 H1S d  69       4.862   3.745  16.020  0.00  0.00    -0.572 OA
ATOM     26  C8  H1S d  69       6.813  -0.085  10.150  0.00  0.00     0.081 C 
ATOM     27  C6  H1S d  69       6.101   0.778  14.300  0.00  0.00     0.067 C 
ATOM     28  O11 H1S d  69       5.105   1.852  14.486  0.00  0.00    -0.254 OA
ATOM     29  O29 H1S d  69       5.378  -3.047   9.804  0.00  0.00    -0.296 OA
ATOM     30  C12 H1S d  69       6.967  -4.292  12.722  0.00  0.00     0.135 C 
ATOM     31  C10 H1S d  69       7.007   1.371  10.690  0.00  0.00     0.147 C 
ATOM     32  S16 H1S d  69       5.402   3.283  14.690  0.00  0.00     0.251 S 
ATOM     33  C19 H1S d  69       5.412  -3.241  14.918  0.00  0.00     0.147 C 
ATOM     34  S26 H1S d  69       6.409  -6.761  12.144  0.00  0.00     0.252 S 
ATOM     35  C27 H1S d  69       4.420  -2.838  16.019  0.00  0.00     0.233 C 
ATOM     36  H   H1S d  69       7.104   3.330  10.018  0.00  0.00     0.212 HD
ATOM     37  H   H1S d  69       7.786  -5.479  14.350  0.00  0.00     0.093 H 
ATOM     38  H   H1S d  69       3.396  -0.935   8.317  0.00  0.00     0.231 HD
ATOM     39  H   H1S d  69       5.614  -0.906   7.394  0.00  0.00     0.231 HD
ATOM     40  H   H1S d  69       5.248  -0.163  12.590  0.00  0.00     0.090 H 
ATOM     41  H   H1S d  69       7.219  -2.026  10.863  0.00  0.00     0.089 H 
ATOM     42  H   H1S d  69       9.418  -0.240  10.936  0.00  0.00     0.210 HD
ATOM     43  H   H1S d  69       8.651  -2.794  13.985  0.00  0.00     0.210 HD
ATOM     44  H   H1S d  69       5.132  -0.783  11.082  0.00  0.00     0.140 HD
ATOM     45  H   H1S d  69       8.109  -0.085  12.932  0.00  0.00     0.091 H 
ATOM     46  H   H1S d  69       6.740  -4.260  16.224  0.00  0.00     0.085 H 
ATOM     47  H   H1S d  69       5.855  -2.839  11.666  0.00  0.00     0.134 H 
ATOM     48  H   H1S d  69       7.172  -0.109   9.142  0.00  0.00     0.076 H 
ATOM     49  H   H1S d  69       7.064   1.134  14.602  0.00  0.00     0.080 H 
ATOM     50  H   H1S d  69       5.823  -0.066  14.896  0.00  0.00     0.080 H 
ATOM     51  H   H1S d  69       5.180  -3.784   9.205  0.00  0.00     0.231 HD
ATOM     52  H   H1S d  69       7.745  -4.313  11.987  0.00  0.00     0.097 H 
ATOM     53  H   H1S d  69       8.020   1.510  11.003  0.00  0.00     0.131 H 
ENDROOT
TORSDOF 16
ENDMDL
MODEL 45
REMARK VINA RESULT:      -4.6      3.068      6.202
REMARK  0 active torsions:
REMARK  status: ('A' for Active; 'I' for Inactive)
REMARK       I    between atoms: O15_1  and  C10_31 
REMARK       I    between atoms: C17_4  and  O25_18 
REMARK       I    between atoms: O28_6  and  S20_15 
REMARK       I    between atoms: O3_7  and  C1_22 
REMARK       I    between atoms: O3_7  and  C7_24 
REMARK       I    between atoms: O30_8  and  S20_15 
REMARK       I    between atoms: C2_10  and  C6_27 
REMARK       I    between atoms: O18_13  and  C12_30 
REMARK       I    between atoms: O18_13  and  S26_34 
REMARK       I    between atoms: S20_15  and  N14_20 
REMARK       I    between atoms: S20_15  and  O29_29 
REMARK       I    between atoms: C4_16  and  O9_17 
REMARK       I    between atoms: N14_20  and  C8_26 
REMARK       I    between atoms: C6_27  and  O11_28 
REMARK       I    between atoms: O11_28  and  S16_32 
REMARK       I    between atoms: C19_33  and  C27_35 
ROOT
ATOM      1  O15 H1S d  69       5.286   0.651  19.062  0.00  0.00    -0.369 OA
ATOM      2  O22 H1S d  69       6.202   4.938  16.467  0.00  0.00    -0.572 OA
ATOM      3  O31 H1S d  69       4.073  -4.389  11.132  0.00  0.00    -0.572 OA
ATOM      4  C17 H1S d  69       4.692  -0.588  10.891  0.00  0.00     0.086 C 
ATOM      5  O5  H1S d  69       6.288   1.620  16.840  0.00  0.00    -0.350 OA
ATOM      6  O28 H1S d  69       8.045  -3.377  16.614  0.00  0.00    -0.296 OA
ATOM      7  O3  H1S d  69       5.211   0.299  13.414  0.00  0.00    -0.348 OA
ATOM      8  O30 H1S d  69       5.777  -3.620  17.180  0.00  0.00    -0.296 OA
ATOM      9  O32 H1S d  69       5.023  -3.316   9.175  0.00  0.00    -0.572 OA
ATOM     10  C2  H1S d  69       6.370   1.425  15.366  0.00  0.00     0.091 C 
ATOM     11  O35 H1S d  69       9.242   1.338  11.662  0.00  0.00    -0.642 OA
ATOM     12  O13 H1S d  69       7.197  -0.317  12.491  0.00  0.00    -0.311 OA
ATOM     13  O18 H1S d  69       5.845  -2.705  11.398  0.00  0.00    -0.244 OA
ATOM     14  O21 H1S d  69       8.242   4.294  17.638  0.00  0.00    -0.572 OA
ATOM     15  S20 H1S d  69       6.692  -2.852  16.336  0.00  0.00     0.156 S 
ATOM     16  C4  H1S d  69       4.567  -0.531  15.484  0.00  0.00     0.083 C 
ATOM     17  O9  H1S d  69       3.106  -0.529  15.582  0.00  0.00    -0.391 OA
ATOM     18  O25 H1S d  69       3.551   0.136  11.361  0.00  0.00    -0.389 OA
ATOM     19  O34 H1S d  69       8.139   1.924   9.825  0.00  0.00    -0.642 OA
ATOM     20  N14 H1S d  69       6.635  -1.228  16.565  0.00  0.00    -0.210 NA
ATOM     21  O33 H1S d  69       6.428  -4.739  10.657  0.00  0.00    -0.572 OA
ATOM     22  C1  H1S d  69       5.092   0.730  14.773  0.00  0.00     0.095 C 
ATOM     23  C24 H1S d  69       5.898   0.331  10.508  0.00  0.00    -0.034 C 
ATOM     24  C7  H1S d  69       5.958  -0.887  13.031  0.00  0.00     0.167 C 
ATOM     25  O23 H1S d  69       8.448   5.772  15.742  0.00  0.00    -0.572 OA
ATOM     26  C8  H1S d  69       5.280  -0.687  16.824  0.00  0.00     0.081 C 
ATOM     27  C6  H1S d  69       6.682   2.764  14.679  0.00  0.00     0.067 C 
ATOM     28  O11 H1S d  69       7.796   3.441  15.374  0.00  0.00    -0.254 OA
ATOM     29  O29 H1S d  69       6.350  -3.169  14.915  0.00  0.00    -0.296 OA
ATOM     30  C12 H1S d  69       5.099  -1.614  11.981  0.00  0.00     0.135 C 
ATOM     31  C10 H1S d  69       5.311   0.711  17.527  0.00  0.00     0.147 C 
ATOM     32  S16 H1S d  69       7.674   4.597  16.283  0.00  0.00     0.251 S 
ATOM     33  C19 H1S d  69       7.060   0.402  11.319  0.00  0.00     0.147 C 
ATOM     34  S26 H1S d  69       5.321  -3.781  10.568  0.00  0.00     0.252 S 
ATOM     35  C27 H1S d  69       8.239   1.293  10.901  0.00  0.00     0.233 C 
ATOM     36  H   H1S d  69       5.307   1.552  19.422  0.00  0.00     0.212 HD
ATOM     37  H   H1S d  69       4.421  -1.087   9.984  0.00  0.00     0.093 H 
ATOM     38  H   H1S d  69       8.285  -3.180  17.533  0.00  0.00     0.231 HD
ATOM     39  H   H1S d  69       5.968  -3.438  18.113  0.00  0.00     0.231 HD
ATOM     40  H   H1S d  69       7.175   0.749  15.164  0.00  0.00     0.090 H 
ATOM     41  H   H1S d  69       4.796  -1.397  14.900  0.00  0.00     0.089 H 
ATOM     42  H   H1S d  69       2.818   0.236  16.103  0.00  0.00     0.210 HD
ATOM     43  H   H1S d  69       3.777   0.597  12.185  0.00  0.00     0.210 HD
ATOM     44  H   H1S d  69       7.004  -0.775  15.729  0.00  0.00     0.140 HD
ATOM     45  H   H1S d  69       4.418   1.551  14.908  0.00  0.00     0.091 H 
ATOM     46  H   H1S d  69       5.848   0.899   9.647  0.00  0.00     0.085 H 
ATOM     47  H   H1S d  69       6.179  -1.601  13.797  0.00  0.00     0.134 H 
ATOM     48  H   H1S d  69       4.774  -1.368  17.476  0.00  0.00     0.076 H 
ATOM     49  H   H1S d  69       5.815   3.389  14.710  0.00  0.00     0.080 H 
ATOM     50  H   H1S d  69       6.963   2.581  13.663  0.00  0.00     0.080 H 
ATOM     51  H   H1S d  69       6.384  -4.130  14.782  0.00  0.00     0.231 HD
ATOM     52  H   H1S d  69       4.223  -2.022  12.440  0.00  0.00     0.097 H 
ATOM     53  H   H1S d  69       4.374   1.208  17.389  0.00  0.00     0.131 H 
ENDROOT
TORSDOF 16
ENDMDL
MODEL 46
REMARK VINA RESULT:      -4.6      2.890      7.332
REMARK  0 active torsions:
REMARK  status: ('A' for Active; 'I' for Inactive)
REMARK       I    between atoms: O15_1  and  C10_31 
REMARK       I    between atoms: C17_4  and  O25_18 
REMARK       I    between atoms: O28_6  and  S20_15 
REMARK       I    between atoms: O3_7  and  C1_22 
REMARK       I    between atoms: O3_7  and  C7_24 
REMARK       I    between atoms: O30_8  and  S20_15 
REMARK       I    between atoms: C2_10  and  C6_27 
REMARK       I    between atoms: O18_13  and  C12_30 
REMARK       I    between atoms: O18_13  and  S26_34 
REMARK       I    between atoms: S20_15  and  N14_20 
REMARK       I    between atoms: S20_15  and  O29_29 
REMARK       I    between atoms: C4_16  and  O9_17 
REMARK       I    between atoms: N14_20  and  C8_26 
REMARK       I    between atoms: C6_27  and  O11_28 
REMARK       I    between atoms: O11_28  and  S16_32 
REMARK       I    between atoms: C19_33  and  C27_35 
ROOT
ATOM      1  O15 H1S d  69       2.020   3.305   6.247  0.00  0.00    -0.369 OA
ATOM      2  O22 H1S d  69       5.493   0.161   4.244  0.00  0.00    -0.572 OA
ATOM      3  O31 H1S d  69       3.361  -0.100  14.986  0.00  0.00    -0.572 OA
ATOM      4  C17 H1S d  69       5.248  -1.688  12.019  0.00  0.00     0.086 C 
ATOM      5  O5  H1S d  69       4.262   2.029   6.725  0.00  0.00    -0.350 OA
ATOM      6  O28 H1S d  69       4.101   5.323  10.876  0.00  0.00    -0.296 OA
ATOM      7  O3  H1S d  69       4.688  -0.183   9.818  0.00  0.00    -0.348 OA
ATOM      8  O30 H1S d  69       1.929   4.429  10.803  0.00  0.00    -0.296 OA
ATOM      9  O32 H1S d  69       5.462  -1.288  15.226  0.00  0.00    -0.572 OA
ATOM     10  C2  H1S d  69       5.005   1.229   7.738  0.00  0.00     0.091 C 
ATOM     11  O35 H1S d  69       9.128   0.638   9.887  0.00  0.00    -0.642 OA
ATOM     12  O13 H1S d  69       6.528   0.720  10.804  0.00  0.00    -0.311 OA
ATOM     13  O18 H1S d  69       5.202   0.340  13.416  0.00  0.00    -0.244 OA
ATOM     14  O21 H1S d  69       6.312   2.448   4.036  0.00  0.00    -0.572 OA
ATOM     15  S20 H1S d  69       3.341   4.078  10.645  0.00  0.00     0.156 S 
ATOM     16  C4  H1S d  69       2.854   1.145   9.306  0.00  0.00     0.083 C 
ATOM     17  O9  H1S d  69       1.642   0.324   9.285  0.00  0.00    -0.391 OA
ATOM     18  O25 H1S d  69       4.345  -2.421  11.185  0.00  0.00    -0.389 OA
ATOM     19  O34 H1S d  69       9.371  -1.481  10.506  0.00  0.00    -0.642 OA
ATOM     20  N14 H1S d  69       3.724   3.418   9.192  0.00  0.00    -0.210 NA
ATOM     21  O33 H1S d  69       5.359   1.185  15.487  0.00  0.00    -0.572 OA
ATOM     22  C1  H1S d  69       4.053   0.408   8.680  0.00  0.00     0.095 C 
ATOM     23  C24 H1S d  69       6.709  -1.641  11.462  0.00  0.00    -0.034 C 
ATOM     24  C7  H1S d  69       5.078   0.588  10.986  0.00  0.00     0.167 C 
ATOM     25  O23 H1S d  69       7.926   0.658   3.930  0.00  0.00    -0.572 OA
ATOM     26  C8  H1S d  69       2.695   2.506   8.636  0.00  0.00     0.081 C 
ATOM     27  C6  H1S d  69       6.048   0.342   7.039  0.00  0.00     0.067 C 
ATOM     28  O11 H1S d  69       6.811   1.138   6.057  0.00  0.00    -0.254 OA
ATOM     29  O29 H1S d  69       3.678   3.114  11.737  0.00  0.00    -0.296 OA
ATOM     30  C12 H1S d  69       4.680  -0.257  12.209  0.00  0.00     0.135 C 
ATOM     31  C10 H1S d  69       2.833   2.311   7.090  0.00  0.00     0.147 C 
ATOM     32  S16 H1S d  69       6.643   1.095   4.592  0.00  0.00     0.251 S 
ATOM     33  C19 H1S d  69       7.250  -0.454  10.904  0.00  0.00     0.147 C 
ATOM     34  S26 H1S d  69       4.843   0.004  14.787  0.00  0.00     0.252 S 
ATOM     35  C27 H1S d  69       8.697  -0.432  10.392  0.00  0.00     0.233 C 
ATOM     36  H   H1S d  69       2.158   3.119   5.305  0.00  0.00     0.212 HD
ATOM     37  H   H1S d  69       5.322  -2.194  12.958  0.00  0.00     0.093 H 
ATOM     38  H   H1S d  69       3.896   5.962  10.176  0.00  0.00     0.231 HD
ATOM     39  H   H1S d  69       1.672   5.056  10.107  0.00  0.00     0.231 HD
ATOM     40  H   H1S d  69       5.521   1.909   8.384  0.00  0.00     0.090 H 
ATOM     41  H   H1S d  69       3.041   1.322  10.344  0.00  0.00     0.089 H 
ATOM     42  H   H1S d  69       1.406   0.120   8.367  0.00  0.00     0.210 HD
ATOM     43  H   H1S d  69       4.265  -1.977  10.326  0.00  0.00     0.210 HD
ATOM     44  H   H1S d  69       4.590   2.890   9.300  0.00  0.00     0.140 HD
ATOM     45  H   H1S d  69       3.723  -0.303   7.951  0.00  0.00     0.091 H 
ATOM     46  H   H1S d  69       7.293  -2.491  11.502  0.00  0.00     0.085 H 
ATOM     47  H   H1S d  69       4.629   1.550  11.116  0.00  0.00     0.134 H 
ATOM     48  H   H1S d  69       1.735   2.942   8.824  0.00  0.00     0.076 H 
ATOM     49  H   H1S d  69       5.550  -0.460   6.536  0.00  0.00     0.080 H 
ATOM     50  H   H1S d  69       6.721  -0.051   7.772  0.00  0.00     0.080 H 
ATOM     51  H   H1S d  69       3.450   3.506  12.595  0.00  0.00     0.231 HD
ATOM     52  H   H1S d  69       3.614  -0.300  12.297  0.00  0.00     0.097 H 
ATOM     53  H   H1S d  69       2.324   1.419   6.789  0.00  0.00     0.131 H 
ENDROOT
TORSDOF 16
ENDMDL
MODEL 47
REMARK VINA RESULT:      -4.6      4.148      8.532
REMARK  0 active torsions:
REMARK  status: ('A' for Active; 'I' for Inactive)
REMARK       I    between atoms: O15_1  and  C10_31 
REMARK       I    between atoms: C17_4  and  O25_18 
REMARK       I    between atoms: O28_6  and  S20_15 
REMARK       I    between atoms: O3_7  and  C1_22 
REMARK       I    between atoms: O3_7  and  C7_24 
REMARK       I    between atoms: O30_8  and  S20_15 
REMARK       I    between atoms: C2_10  and  C6_27 
REMARK       I    between atoms: O18_13  and  C12_30 
REMARK       I    between atoms: O18_13  and  S26_34 
REMARK       I    between atoms: S20_15  and  N14_20 
REMARK       I    between atoms: S20_15  and  O29_29 
REMARK       I    between atoms: C4_16  and  O9_17 
REMARK       I    between atoms: N14_20  and  C8_26 
REMARK       I    between atoms: C6_27  and  O11_28 
REMARK       I    between atoms: O11_28  and  S16_32 
REMARK       I    between atoms: C19_33  and  C27_35 
ROOT
ATOM      1  O15 H1S d  69       0.987   2.750   5.655  0.00  0.00    -0.369 OA
ATOM      2  O22 H1S d  69       5.688   2.829   3.692  0.00  0.00    -0.572 OA
ATOM      3  O31 H1S d  69       4.191   0.683  14.329  0.00  0.00    -0.572 OA
ATOM      4  C17 H1S d  69       6.679   0.909  11.389  0.00  0.00     0.086 C 
ATOM      5  O5  H1S d  69       3.504   3.274   6.180  0.00  0.00    -0.350 OA
ATOM      6  O28 H1S d  69       1.150   5.411  10.423  0.00  0.00    -0.296 OA
ATOM      7  O3  H1S d  69       5.275   1.762   9.216  0.00  0.00    -0.348 OA
ATOM      8  O30 H1S d  69       0.132   3.301  10.237  0.00  0.00    -0.296 OA
ATOM      9  O32 H1S d  69       6.546   1.191  14.613  0.00  0.00    -0.572 OA
ATOM     10  C2  H1S d  69       4.583   3.126   7.196  0.00  0.00     0.091 C 
ATOM     11  O35 H1S d  69       8.027   5.331   9.484  0.00  0.00    -0.642 OA
ATOM     12  O13 H1S d  69       6.032   3.612  10.301  0.00  0.00    -0.311 OA
ATOM     13  O18 H1S d  69       5.279   2.316  12.847  0.00  0.00    -0.244 OA
ATOM     14  O21 H1S d  69       4.770   5.086   3.588  0.00  0.00    -0.572 OA
ATOM     15  S20 H1S d  69       1.418   3.989  10.123  0.00  0.00     0.156 S 
ATOM     16  C4  H1S d  69       3.027   1.551   8.675  0.00  0.00     0.083 C 
ATOM     17  O9  H1S d  69       2.674   0.133   8.582  0.00  0.00    -0.391 OA
ATOM     18  O25 H1S d  69       6.504  -0.198  10.498  0.00  0.00    -0.389 OA
ATOM     19  O34 H1S d  69       9.620   3.888  10.045  0.00  0.00    -0.642 OA
ATOM     20  N14 H1S d  69       2.156   3.826   8.667  0.00  0.00    -0.210 NA
ATOM     21  O33 H1S d  69       4.814   2.947  14.947  0.00  0.00    -0.572 OA
ATOM     22  C1  H1S d  69       4.416   1.834   8.073  0.00  0.00     0.095 C 
ATOM     23  C24 H1S d  69       7.740   1.946  10.892  0.00  0.00    -0.034 C 
ATOM     24  C7  H1S d  69       5.040   2.537  10.422  0.00  0.00     0.167 C 
ATOM     25  O23 H1S d  69       7.168   4.837   3.488  0.00  0.00    -0.572 OA
ATOM     26  C8  H1S d  69       2.004   2.489   8.043  0.00  0.00     0.081 C 
ATOM     27  C6  H1S d  69       5.957   3.197   6.511  0.00  0.00     0.067 C 
ATOM     28  O11 H1S d  69       6.001   4.345   5.584  0.00  0.00    -0.254 OA
ATOM     29  O29 H1S d  69       2.304   3.444  11.197  0.00  0.00    -0.296 OA
ATOM     30  C12 H1S d  69       5.299   1.584  11.602  0.00  0.00     0.135 C 
ATOM     31  C10 H1S d  69       2.250   2.512   6.498  0.00  0.00     0.147 C 
ATOM     32  S16 H1S d  69       5.917   4.274   4.113  0.00  0.00     0.251 S 
ATOM     33  C19 H1S d  69       7.353   3.216  10.392  0.00  0.00     0.147 C 
ATOM     34  S26 H1S d  69       5.225   1.760  14.191  0.00  0.00     0.252 S 
ATOM     35  C27 H1S d  69       8.419   4.224   9.938  0.00  0.00     0.233 C 
ATOM     36  H   H1S d  69       1.222   2.751   4.714  0.00  0.00     0.212 HD
ATOM     37  H   H1S d  69       7.065   0.535  12.314  0.00  0.00     0.093 H 
ATOM     38  H   H1S d  69       0.576   5.783   9.736  0.00  0.00     0.231 HD
ATOM     39  H   H1S d  69      -0.472   3.629   9.552  0.00  0.00     0.231 HD
ATOM     40  H   H1S d  69       4.508   3.943   7.883  0.00  0.00     0.090 H 
ATOM     41  H   H1S d  69       3.039   1.756   9.725  0.00  0.00     0.089 H 
ATOM     42  H   H1S d  69       2.643  -0.131   7.649  0.00  0.00     0.210 HD
ATOM     43  H   H1S d  69       6.155   0.121   9.651  0.00  0.00     0.210 HD
ATOM     44  H   H1S d  69       3.152   4.006   8.792  0.00  0.00     0.140 HD
ATOM     45  H   H1S d  69       4.652   1.121   7.311  0.00  0.00     0.091 H 
ATOM     46  H   H1S d  69       8.741   1.701  10.928  0.00  0.00     0.085 H 
ATOM     47  H   H1S d  69       4.062   2.947  10.565  0.00  0.00     0.134 H 
ATOM     48  H   H1S d  69       0.998   2.163   8.207  0.00  0.00     0.076 H 
ATOM     49  H   H1S d  69       6.127   2.294   5.963  0.00  0.00     0.080 H 
ATOM     50  H   H1S d  69       6.715   3.318   7.256  0.00  0.00     0.080 H 
ATOM     51  H   H1S d  69       1.866   3.541  12.058  0.00  0.00     0.231 HD
ATOM     52  H   H1S d  69       4.534   0.837  11.647  0.00  0.00     0.097 H 
ATOM     53  H   H1S d  69       2.470   1.525   6.150  0.00  0.00     0.131 H 
ENDROOT
TORSDOF 16
ENDMDL
MODEL 48
REMARK VINA RESULT:      -4.6      3.079      5.862
REMARK  0 active torsions:
REMARK  status: ('A' for Active; 'I' for Inactive)
REMARK       I    between atoms: O15_1  and  C10_31 
REMARK       I    between atoms: C17_4  and  O25_18 
REMARK       I    between atoms: O28_6  and  S20_15 
REMARK       I    between atoms: O3_7  and  C1_22 
REMARK       I    between atoms: O3_7  and  C7_24 
REMARK       I    between atoms: O30_8  and  S20_15 
REMARK       I    between atoms: C2_10  and  C6_27 
REMARK       I    between atoms: O18_13  and  C12_30 
REMARK       I    between atoms: O18_13  and  S26_34 
REMARK       I    between atoms: S20_15  and  N14_20 
REMARK       I    between atoms: S20_15  and  O29_29 
REMARK       I    between atoms: C4_16  and  O9_17 
REMARK       I    between atoms: N14_20  and  C8_26 
REMARK       I    between atoms: C6_27  and  O11_28 
REMARK       I    between atoms: O11_28  and  S16_32 
REMARK       I    between atoms: C19_33  and  C27_35 
ROOT
ATOM      1  O15 H1S d  69       5.439  -4.000  15.535  0.00  0.00    -0.369 OA
ATOM      2  O22 H1S d  69       6.233   0.634  13.573  0.00  0.00    -0.572 OA
ATOM      3  O31 H1S d  69       4.442  -7.918   6.967  0.00  0.00    -0.572 OA
ATOM      4  C17 H1S d  69       4.940  -4.104   7.264  0.00  0.00     0.086 C 
ATOM      5  O5  H1S d  69       6.423  -2.699  13.480  0.00  0.00    -0.350 OA
ATOM      6  O28 H1S d  69       8.343  -7.559  12.580  0.00  0.00    -0.296 OA
ATOM      7  O3  H1S d  69       5.413  -3.562   9.892  0.00  0.00    -0.348 OA
ATOM      8  O30 H1S d  69       6.080  -7.948  13.081  0.00  0.00    -0.296 OA
ATOM      9  O32 H1S d  69       5.370  -6.553   5.189  0.00  0.00    -0.572 OA
ATOM     10  C2  H1S d  69       6.522  -2.683  11.994  0.00  0.00     0.091 C 
ATOM     11  O35 H1S d  69       9.419  -2.163   8.347  0.00  0.00    -0.642 OA
ATOM     12  O13 H1S d  69       7.424  -3.980   8.915  0.00  0.00    -0.311 OA
ATOM     13  O18 H1S d  69       6.157  -6.233   7.485  0.00  0.00    -0.244 OA
ATOM     14  O21 H1S d  69       8.284  -0.103  14.665  0.00  0.00    -0.572 OA
ATOM     15  S20 H1S d  69       6.976  -7.041  12.362  0.00  0.00     0.156 S 
ATOM     16  C4  H1S d  69       4.782  -4.692  11.819  0.00  0.00     0.083 C 
ATOM     17  O9  H1S d  69       3.321  -4.750  11.900  0.00  0.00    -0.391 OA
ATOM     18  O25 H1S d  69       3.772  -3.488   7.819  0.00  0.00    -0.389 OA
ATOM     19  O34 H1S d  69       8.310  -1.360   6.598  0.00  0.00    -0.642 OA
ATOM     20  N14 H1S d  69       6.865  -5.468  12.815  0.00  0.00    -0.210 NA
ATOM     21  O33 H1S d  69       6.811  -8.125   6.473  0.00  0.00    -0.572 OA
ATOM     22  C1  H1S d  69       5.271  -3.328  11.297  0.00  0.00     0.095 C 
ATOM     23  C24 H1S d  69       6.117  -3.103   7.027  0.00  0.00    -0.034 C 
ATOM     24  C7  H1S d  69       6.200  -4.659   9.356  0.00  0.00     0.167 C 
ATOM     25  O23 H1S d  69       8.455   1.631  12.996  0.00  0.00    -0.572 OA
ATOM     26  C8  H1S d  69       5.491  -5.011  13.132  0.00  0.00     0.081 C 
ATOM     27  C6  H1S d  69       6.795  -1.253  11.505  0.00  0.00     0.067 C 
ATOM     28  O11 H1S d  69       7.881  -0.645  12.300  0.00  0.00    -0.254 OA
ATOM     29  O29 H1S d  69       6.654  -7.168  10.908  0.00  0.00    -0.296 OA
ATOM     30  C12 H1S d  69       5.373  -5.259   8.206  0.00  0.00     0.135 C 
ATOM     31  C10 H1S d  69       5.472  -3.725  14.024  0.00  0.00     0.147 C 
ATOM     32  S16 H1S d  69       7.716   0.368  13.359  0.00  0.00     0.251 S 
ATOM     33  C19 H1S d  69       7.271  -3.110   7.853  0.00  0.00     0.147 C 
ATOM     34  S26 H1S d  69       5.674  -7.198   6.507  0.00  0.00     0.252 S 
ATOM     35  C27 H1S d  69       8.423  -2.133   7.576  0.00  0.00     0.233 C 
ATOM     36  H   H1S d  69       5.428  -3.158  16.016  0.00  0.00     0.212 HD
ATOM     37  H   H1S d  69       4.690  -4.480   6.294  0.00  0.00     0.093 H 
ATOM     38  H   H1S d  69       8.571  -7.484  13.520  0.00  0.00     0.231 HD
ATOM     39  H   H1S d  69       6.260  -7.893  14.033  0.00  0.00     0.231 HD
ATOM     40  H   H1S d  69       7.349  -3.300  11.710  0.00  0.00     0.090 H 
ATOM     41  H   H1S d  69       5.043  -5.461  11.122  0.00  0.00     0.089 H 
ATOM     42  H   H1S d  69       3.005  -4.075  12.520  0.00  0.00     0.210 HD
ATOM     43  H   H1S d  69       3.978  -3.140   8.700  0.00  0.00     0.210 HD
ATOM     44  H   H1S d  69       7.224  -4.892  12.054  0.00  0.00     0.140 HD
ATOM     45  H   H1S d  69       4.570  -2.556  11.537  0.00  0.00     0.091 H 
ATOM     46  H   H1S d  69       6.054  -2.423   6.253  0.00  0.00     0.085 H 
ATOM     47  H   H1S d  69       6.439  -5.466  10.018  0.00  0.00     0.134 H 
ATOM     48  H   H1S d  69       5.003  -5.792  13.677  0.00  0.00     0.076 H 
ATOM     49  H   H1S d  69       5.907  -0.666  11.613  0.00  0.00     0.080 H 
ATOM     50  H   H1S d  69       7.088  -1.283  10.476  0.00  0.00     0.080 H 
ATOM     51  H   H1S d  69       6.720  -8.099  10.642  0.00  0.00     0.231 HD
ATOM     52  H   H1S d  69       4.507  -5.754   8.593  0.00  0.00     0.097 H 
ATOM     53  H   H1S d  69       4.521  -3.243  13.945  0.00  0.00     0.131 H 
ENDROOT
TORSDOF 16
ENDMDL
MODEL 49
REMARK VINA RESULT:      -4.5      2.245      6.922
REMARK  0 active torsions:
REMARK  status: ('A' for Active; 'I' for Inactive)
REMARK       I    between atoms: O15_1  and  C10_31 
REMARK       I    between atoms: C17_4  and  O25_18 
REMARK       I    between atoms: O28_6  and  S20_15 
REMARK       I    between atoms: O3_7  and  C1_22 
REMARK       I    between atoms: O3_7  and  C7_24 
REMARK       I    between atoms: O30_8  and  S20_15 
REMARK       I    between atoms: C2_10  and  C6_27 
REMARK       I    between atoms: O18_13  and  C12_30 
REMARK       I    between atoms: O18_13  and  S26_34 
REMARK       I    between atoms: S20_15  and  N14_20 
REMARK       I    between atoms: S20_15  and  O29_29 
REMARK       I    between atoms: C4_16  and  O9_17 
REMARK       I    between atoms: N14_20  and  C8_26 
REMARK       I    between atoms: C6_27  and  O11_28 
REMARK       I    between atoms: O11_28  and  S16_32 
REMARK       I    between atoms: C19_33  and  C27_35 
ROOT
ATOM      1  O15 H1S d  69       4.296   1.622   8.795  0.00  0.00    -0.369 OA
ATOM      2  O22 H1S d  69       3.925  -3.327   7.646  0.00  0.00    -0.572 OA
ATOM      3  O31 H1S d  69       6.301  -0.204  17.872  0.00  0.00    -0.572 OA
ATOM      4  C17 H1S d  69       5.478  -3.121  15.486  0.00  0.00     0.086 C 
ATOM      5  O5  H1S d  69       5.191  -0.773   9.385  0.00  0.00    -0.350 OA
ATOM      6  O28 H1S d  69       8.707   2.252  11.954  0.00  0.00    -0.296 OA
ATOM      7  O3  H1S d  69       5.230  -2.064  12.987  0.00  0.00    -0.348 OA
ATOM      8  O30 H1S d  69       6.638   3.197  12.545  0.00  0.00    -0.296 OA
ATOM      9  O32 H1S d  69       7.067  -2.477  18.233  0.00  0.00    -0.572 OA
ATOM     10  C2  H1S d  69       5.567  -1.680  10.505  0.00  0.00     0.091 C 
ATOM     11  O35 H1S d  69       8.794  -4.688  12.087  0.00  0.00    -0.642 OA
ATOM     12  O13 H1S d  69       7.419  -2.614  13.276  0.00  0.00    -0.311 OA
ATOM     13  O18 H1S d  69       7.248  -1.488  16.001  0.00  0.00    -0.244 OA
ATOM     14  O21 H1S d  69       5.851  -2.404   6.469  0.00  0.00    -0.572 OA
ATOM     15  S20 H1S d  69       7.316   1.919  12.326  0.00  0.00     0.156 S 
ATOM     16  C4  H1S d  69       4.634   0.067  12.285  0.00  0.00     0.083 C 
ATOM     17  O9  H1S d  69       3.283   0.380  12.755  0.00  0.00    -0.391 OA
ATOM     18  O25 H1S d  69       4.090  -3.105  15.134  0.00  0.00    -0.389 OA
ATOM     19  O34 H1S d  69       7.849  -6.193  13.419  0.00  0.00    -0.642 OA
ATOM     20  N14 H1S d  69       6.620   0.959  11.193  0.00  0.00    -0.210 NA
ATOM     21  O33 H1S d  69       8.658  -0.688  17.550  0.00  0.00    -0.572 OA
ATOM     22  C1  H1S d  69       4.750  -1.395  11.816  0.00  0.00     0.095 C 
ATOM     23  C24 H1S d  69       6.294  -4.231  14.745  0.00  0.00    -0.034 C 
ATOM     24  C7  H1S d  69       6.417  -1.631  13.705  0.00  0.00     0.167 C 
ATOM     25  O23 H1S d  69       5.776  -4.791   6.813  0.00  0.00    -0.572 OA
ATOM     26  C8  H1S d  69       5.138   0.991  11.181  0.00  0.00     0.081 C 
ATOM     27  C6  H1S d  69       5.455  -3.143  10.049  0.00  0.00     0.067 C 
ATOM     28  O11 H1S d  69       6.112  -3.316   8.738  0.00  0.00    -0.254 OA
ATOM     29  O29 H1S d  69       7.342   1.206  13.640  0.00  0.00    -0.296 OA
ATOM     30  C12 H1S d  69       6.067  -1.714  15.201  0.00  0.00     0.135 C 
ATOM     31  C10 H1S d  69       4.533   0.505   9.822  0.00  0.00     0.147 C 
ATOM     32  S16 H1S d  69       5.426  -3.466   7.440  0.00  0.00     0.251 S 
ATOM     33  C19 H1S d  69       7.204  -3.909  13.706  0.00  0.00     0.147 C 
ATOM     34  S26 H1S d  69       7.301  -1.231  17.434  0.00  0.00     0.252 S 
ATOM     35  C27 H1S d  69       8.012  -5.019  13.017  0.00  0.00     0.233 C 
ATOM     36  H   H1S d  69       3.923   1.243   7.984  0.00  0.00     0.212 HD
ATOM     37  H   H1S d  69       5.556  -3.361  16.525  0.00  0.00     0.093 H 
ATOM     38  H   H1S d  69       8.711   2.717  11.102  0.00  0.00     0.231 HD
ATOM     39  H   H1S d  69       6.601   3.691  11.710  0.00  0.00     0.231 HD
ATOM     40  H   H1S d  69       6.587  -1.485  10.762  0.00  0.00     0.090 H 
ATOM     41  H   H1S d  69       5.259   0.224  13.140  0.00  0.00     0.089 H 
ATOM     42  H   H1S d  69       2.653   0.260  12.029  0.00  0.00     0.210 HD
ATOM     43  H   H1S d  69       3.997  -2.889  14.193  0.00  0.00     0.210 HD
ATOM     44  H   H1S d  69       6.915  -0.002  11.364  0.00  0.00     0.140 HD
ATOM     45  H   H1S d  69       3.806  -1.759  11.468  0.00  0.00     0.091 H 
ATOM     46  H   H1S d  69       6.167  -5.218  15.018  0.00  0.00     0.085 H 
ATOM     47  H   H1S d  69       6.769  -0.637  13.525  0.00  0.00     0.134 H 
ATOM     48  H   H1S d  69       4.831   2.006  11.329  0.00  0.00     0.076 H 
ATOM     49  H   H1S d  69       4.423  -3.411   9.966  0.00  0.00     0.080 H 
ATOM     50  H   H1S d  69       5.937  -3.773  10.769  0.00  0.00     0.080 H 
ATOM     51  H   H1S d  69       7.754   1.776  14.309  0.00  0.00     0.231 HD
ATOM     52  H   H1S d  69       5.348  -0.963  15.454  0.00  0.00     0.097 H 
ATOM     53  H   H1S d  69       3.512   0.219   9.960  0.00  0.00     0.131 H 
ENDROOT
TORSDOF 16
ENDMDL
MODEL 50
REMARK VINA RESULT:      -4.5      2.913      6.098
REMARK  0 active torsions:
REMARK  status: ('A' for Active; 'I' for Inactive)
REMARK       I    between atoms: O15_1  and  C10_31 
REMARK       I    between atoms: C17_4  and  O25_18 
REMARK       I    between atoms: O28_6  and  S20_15 
REMARK       I    between atoms: O3_7  and  C1_22 
REMARK       I    between atoms: O3_7  and  C7_24 
REMARK       I    between atoms: O30_8  and  S20_15 
REMARK       I    between atoms: C2_10  and  C6_27 
REMARK       I    between atoms: O18_13  and  C12_30 
REMARK       I    between atoms: O18_13  and  S26_34 
REMARK       I    between atoms: S20_15  and  N14_20 
REMARK       I    between atoms: S20_15  and  O29_29 
REMARK       I    between atoms: C4_16  and  O9_17 
REMARK       I    between atoms: N14_20  and  C8_26 
REMARK       I    between atoms: C6_27  and  O11_28 
REMARK       I    between atoms: O11_28  and  S16_32 
REMARK       I    between atoms: C19_33  and  C27_35 
ROOT
ATOM      1  O15 H1S d  69       6.521  -4.171  14.635  0.00  0.00    -0.369 OA
ATOM      2  O22 H1S d  69       3.899  -1.073  17.713  0.00  0.00    -0.572 OA
ATOM      3  O31 H1S d  69       4.870   1.271   7.057  0.00  0.00    -0.572 OA
ATOM      4  C17 H1S d  69       3.270   2.195  10.444  0.00  0.00     0.086 C 
ATOM      5  O5  H1S d  69       5.830  -1.675  15.057  0.00  0.00    -0.350 OA
ATOM      6  O28 H1S d  69       9.623  -1.044  11.405  0.00  0.00    -0.296 OA
ATOM      7  O3  H1S d  69       4.264   0.463  12.297  0.00  0.00    -0.348 OA
ATOM      8  O30 H1S d  69       8.295  -2.771  10.522  0.00  0.00    -0.296 OA
ATOM      9  O32 H1S d  69       4.199   3.527   7.642  0.00  0.00    -0.572 OA
ATOM     10  C2  H1S d  69       5.371  -0.421  14.398  0.00  0.00     0.091 C 
ATOM     11  O35 H1S d  69       5.995   4.215  14.119  0.00  0.00    -0.642 OA
ATOM     12  O13 H1S d  69       5.673   2.247  12.214  0.00  0.00    -0.311 OA
ATOM     13  O18 H1S d  69       5.435   2.182   9.270  0.00  0.00    -0.244 OA
ATOM     14  O21 H1S d  69       6.245  -1.009  18.371  0.00  0.00    -0.572 OA
ATOM     15  S20 H1S d  69       8.225  -1.492  11.230  0.00  0.00     0.156 S 
ATOM     16  C4  H1S d  69       5.084  -1.697  12.079  0.00  0.00     0.083 C 
ATOM     17  O9  H1S d  69       4.036  -2.571  11.549  0.00  0.00    -0.391 OA
ATOM     18  O25 H1S d  69       2.244   1.258  10.786  0.00  0.00    -0.389 OA
ATOM     19  O34 H1S d  69       4.095   5.209  13.537  0.00  0.00    -0.642 OA
ATOM     20  N14 H1S d  69       7.443  -1.548  12.671  0.00  0.00    -0.210 NA
ATOM     21  O33 H1S d  69       6.606   2.909   7.502  0.00  0.00    -0.572 OA
ATOM     22  C1  H1S d  69       4.526  -0.691  13.102  0.00  0.00     0.095 C 
ATOM     23  C24 H1S d  69       3.534   3.262  11.557  0.00  0.00    -0.034 C 
ATOM     24  C7  H1S d  69       5.271   1.066  11.441  0.00  0.00     0.167 C 
ATOM     25  O23 H1S d  69       4.837   0.835  19.034  0.00  0.00    -0.572 OA
ATOM     26  C8  H1S d  69       6.262  -2.444  12.699  0.00  0.00     0.081 C 
ATOM     27  C6  H1S d  69       4.624   0.457  15.414  0.00  0.00     0.067 C 
ATOM     28  O11 H1S d  69       5.398   0.550  16.668  0.00  0.00    -0.254 OA
ATOM     29  O29 H1S d  69       7.535  -0.525  10.322  0.00  0.00    -0.296 OA
ATOM     30  C12 H1S d  69       4.563   1.402  10.117  0.00  0.00     0.135 C 
ATOM     31  C10 H1S d  69       5.861  -2.871  14.150  0.00  0.00     0.147 C 
ATOM     32  S16 H1S d  69       5.094  -0.156  17.927  0.00  0.00     0.251 S 
ATOM     33  C19 H1S d  69       4.706   3.223  12.355  0.00  0.00     0.147 C 
ATOM     34  S26 H1S d  69       5.249   2.480   7.857  0.00  0.00     0.252 S 
ATOM     35  C27 H1S d  69       4.950   4.302  13.421  0.00  0.00     0.233 C 
ATOM     36  H   H1S d  69       6.223  -4.367  15.538  0.00  0.00     0.212 HD
ATOM     37  H   H1S d  69       2.943   2.753   9.592  0.00  0.00     0.093 H 
ATOM     38  H   H1S d  69      10.088  -1.660  11.993  0.00  0.00     0.231 HD
ATOM     39  H   H1S d  69       8.738  -3.427  11.083  0.00  0.00     0.231 HD
ATOM     40  H   H1S d  69       6.235   0.114  14.063  0.00  0.00     0.090 H 
ATOM     41  H   H1S d  69       5.456  -1.174  11.222  0.00  0.00     0.089 H 
ATOM     42  H   H1S d  69       3.646  -3.084  12.274  0.00  0.00     0.210 HD
ATOM     43  H   H1S d  69       2.522   0.741  11.559  0.00  0.00     0.210 HD
ATOM     44  H   H1S d  69       7.131  -0.605  12.901  0.00  0.00     0.140 HD
ATOM     45  H   H1S d  69       3.657  -1.085  13.587  0.00  0.00     0.091 H 
ATOM     46  H   H1S d  69       2.841   4.011  11.714  0.00  0.00     0.085 H 
ATOM     47  H   H1S d  69       6.127   0.474  11.192  0.00  0.00     0.134 H 
ATOM     48  H   H1S d  69       6.511  -3.332  12.155  0.00  0.00     0.076 H 
ATOM     49  H   H1S d  69       3.667   0.025  15.620  0.00  0.00     0.080 H 
ATOM     50  H   H1S d  69       4.498   1.438  15.005  0.00  0.00     0.080 H 
ATOM     51  H   H1S d  69       7.999  -0.494   9.471  0.00  0.00     0.231 HD
ATOM     52  H   H1S d  69       4.313   0.503   9.594  0.00  0.00     0.097 H 
ATOM     53  H   H1S d  69       4.847  -3.213  14.161  0.00  0.00     0.131 H 
ENDROOT
TORSDOF 16
ENDMDL
MODEL 51
REMARK VINA RESULT:      -4.5      2.566      6.155
REMARK  0 active torsions:
REMARK  status: ('A' for Active; 'I' for Inactive)
REMARK       I    between atoms: O15_1  and  C10_31 
REMARK       I    between atoms: C17_4  and  O25_18 
REMARK       I    between atoms: O28_6  and  S20_15 
REMARK       I    between atoms: O3_7  and  C1_22 
REMARK       I    between atoms: O3_7  and  C7_24 
REMARK       I    between atoms: O30_8  and  S20_15 
REMARK       I    between atoms: C2_10  and  C6_27 
REMARK       I    between atoms: O18_13  and  C12_30 
REMARK       I    between atoms: O18_13  and  S26_34 
REMARK       I    between atoms: S20_15  and  N14_20 
REMARK       I    between atoms: S20_15  and  O29_29 
REMARK       I    between atoms: C4_16  and  O9_17 
REMARK       I    between atoms: N14_20  and  C8_26 
REMARK       I    between atoms: C6_27  and  O11_28 
REMARK       I    between atoms: O11_28  and  S16_32 
REMARK       I    between atoms: C19_33  and  C27_35 
ROOT
ATOM      1  O15 H1S d  69       6.936  -4.746  10.161  0.00  0.00    -0.369 OA
ATOM      2  O22 H1S d  69       4.818  -2.911  14.415  0.00  0.00    -0.572 OA
ATOM      3  O31 H1S d  69       3.356   2.243   4.861  0.00  0.00    -0.572 OA
ATOM      4  C17 H1S d  69       2.448   2.043   8.605  0.00  0.00     0.086 C 
ATOM      5  O5  H1S d  69       6.182  -2.553  11.388  0.00  0.00    -0.350 OA
ATOM      6  O28 H1S d  69       9.066  -0.523   7.429  0.00  0.00    -0.296 OA
ATOM      7  O3  H1S d  69       3.926   0.023   9.680  0.00  0.00    -0.348 OA
ATOM      8  O30 H1S d  69       7.703  -2.109   6.356  0.00  0.00    -0.296 OA
ATOM      9  O32 H1S d  69       2.671   4.167   6.170  0.00  0.00    -0.572 OA
ATOM     10  C2  H1S d  69       5.509  -1.237  11.206  0.00  0.00     0.091 C 
ATOM     11  O35 H1S d  69       5.742   3.351  12.133  0.00  0.00    -0.642 OA
ATOM     12  O13 H1S d  69       5.161   1.926   9.844  0.00  0.00    -0.311 OA
ATOM     13  O18 H1S d  69       4.312   2.605   7.097  0.00  0.00    -0.244 OA
ATOM     14  O21 H1S d  69       7.241  -2.732  14.621  0.00  0.00    -0.572 OA
ATOM     15  S20 H1S d  69       7.697  -1.079   7.395  0.00  0.00     0.156 S 
ATOM     16  C4  H1S d  69       4.827  -1.886   8.715  0.00  0.00     0.083 C 
ATOM     17  O9  H1S d  69       3.753  -2.714   8.163  0.00  0.00    -0.391 OA
ATOM     18  O25 H1S d  69       1.583   0.929   8.853  0.00  0.00    -0.389 OA
ATOM     19  O34 H1S d  69       3.699   4.220  12.214  0.00  0.00    -0.642 OA
ATOM     20  N14 H1S d  69       7.242  -1.607   8.880  0.00  0.00    -0.210 NA
ATOM     21  O33 H1S d  69       5.031   3.909   5.421  0.00  0.00    -0.572 OA
ATOM     22  C1  H1S d  69       4.430  -1.261  10.064  0.00  0.00     0.095 C 
ATOM     23  C24 H1S d  69       2.866   2.805   9.905  0.00  0.00    -0.034 C 
ATOM     24  C7  H1S d  69       4.686   0.949   8.858  0.00  0.00     0.167 C 
ATOM     25  O23 H1S d  69       5.881  -1.315  16.023  0.00  0.00    -0.572 OA
ATOM     26  C8  H1S d  69       6.157  -2.618   8.871  0.00  0.00     0.081 C 
ATOM     27  C6  H1S d  69       4.935  -0.755  12.547  0.00  0.00     0.067 C 
ATOM     28  O11 H1S d  69       5.948  -0.899  13.611  0.00  0.00    -0.254 OA
ATOM     29  O29 H1S d  69       6.766  -0.001   6.939  0.00  0.00    -0.296 OA
ATOM     30  C12 H1S d  69       3.693   1.529   7.836  0.00  0.00     0.135 C 
ATOM     31  C10 H1S d  69       6.102  -3.456  10.192  0.00  0.00     0.147 C 
ATOM     32  S16 H1S d  69       5.966  -1.941  14.655  0.00  0.00     0.251 S 
ATOM     33  C19 H1S d  69       4.180   2.704  10.430  0.00  0.00     0.147 C 
ATOM     34  S26 H1S d  69       3.812   3.238   5.885  0.00  0.00     0.252 S 
ATOM     35  C27 H1S d  69       4.570   3.487  11.692  0.00  0.00     0.233 C 
ATOM     36  H   H1S d  69       6.851  -5.207  11.011  0.00  0.00     0.212 HD
ATOM     37  H   H1S d  69       1.910   2.760   8.020  0.00  0.00     0.093 H 
ATOM     38  H   H1S d  69       9.686  -1.209   7.723  0.00  0.00     0.231 HD
ATOM     39  H   H1S d  69       8.298  -2.829   6.617  0.00  0.00     0.231 HD
ATOM     40  H   H1S d  69       6.244  -0.530  10.881  0.00  0.00     0.090 H 
ATOM     41  H   H1S d  69       4.973  -1.115   7.987  0.00  0.00     0.089 H 
ATOM     42  H   H1S d  69       3.561  -3.443   8.773  0.00  0.00     0.210 HD
ATOM     43  H   H1S d  69       2.053   0.267   9.383  0.00  0.00     0.210 HD
ATOM     44  H   H1S d  69       6.922  -0.803   9.420  0.00  0.00     0.140 HD
ATOM     45  H   H1S d  69       3.712  -1.872  10.570  0.00  0.00     0.091 H 
ATOM     46  H   H1S d  69       2.173   3.395  10.391  0.00  0.00     0.085 H 
ATOM     47  H   H1S d  69       5.509   0.553   8.299  0.00  0.00     0.134 H 
ATOM     48  H   H1S d  69       6.346  -3.294   8.064  0.00  0.00     0.076 H 
ATOM     49  H   H1S d  69       4.076  -1.341  12.796  0.00  0.00     0.080 H 
ATOM     50  H   H1S d  69       4.660   0.276  12.461  0.00  0.00     0.080 H 
ATOM     51  H   H1S d  69       7.037   0.310   6.061  0.00  0.00     0.231 HD
ATOM     52  H   H1S d  69       3.400   0.775   7.136  0.00  0.00     0.097 H 
ATOM     53  H   H1S d  69       5.139  -3.912  10.293  0.00  0.00     0.131 H 
ENDROOT
TORSDOF 16
ENDMDL
MODEL 52
REMARK VINA RESULT:      -4.5      2.922      7.046
REMARK  0 active torsions:
REMARK  status: ('A' for Active; 'I' for Inactive)
REMARK       I    between atoms: O15_1  and  C10_31 
REMARK       I    between atoms: C17_4  and  O25_18 
REMARK       I    between atoms: O28_6  and  S20_15 
REMARK       I    between atoms: O3_7  and  C1_22 
REMARK       I    between atoms: O3_7  and  C7_24 
REMARK       I    between atoms: O30_8  and  S20_15 
REMARK       I    between atoms: C2_10  and  C6_27 
REMARK       I    between atoms: O18_13  and  C12_30 
REMARK       I    between atoms: O18_13  and  S26_34 
REMARK       I    between atoms: S20_15  and  N14_20 
REMARK       I    between atoms: S20_15  and  O29_29 
REMARK       I    between atoms: C4_16  and  O9_17 
REMARK       I    between atoms: N14_20  and  C8_26 
REMARK       I    between atoms: C6_27  and  O11_28 
REMARK       I    between atoms: O11_28  and  S16_32 
REMARK       I    between atoms: C19_33  and  C27_35 
ROOT
ATOM      1  O15 H1S d  69       5.021   4.854  13.263  0.00  0.00    -0.369 OA
ATOM      2  O22 H1S d  69       1.848   1.859  10.634  0.00  0.00    -0.572 OA
ATOM      3  O31 H1S d  69       7.546  -2.200  19.062  0.00  0.00    -0.572 OA
ATOM      4  C17 H1S d  69       4.831  -2.817  16.392  0.00  0.00     0.086 C 
ATOM      5  O5  H1S d  69       4.602   2.396  12.445  0.00  0.00    -0.350 OA
ATOM      6  O28 H1S d  69       9.624   2.037  14.105  0.00  0.00    -0.296 OA
ATOM      7  O3  H1S d  69       4.681  -0.563  14.869  0.00  0.00    -0.348 OA
ATOM      8  O30 H1S d  69       8.547   3.168  15.861  0.00  0.00    -0.296 OA
ATOM      9  O32 H1S d  69       7.040  -4.394  18.160  0.00  0.00    -0.572 OA
ATOM     10  C2  H1S d  69       4.656   0.963  12.846  0.00  0.00     0.091 C 
ATOM     11  O35 H1S d  69       6.029  -3.330  11.564  0.00  0.00    -0.642 OA
ATOM     12  O13 H1S d  69       6.245  -1.917  13.922  0.00  0.00    -0.311 OA
ATOM     13  O18 H1S d  69       7.259  -2.489  16.637  0.00  0.00    -0.244 OA
ATOM     14  O21 H1S d  69       3.681   2.516   9.167  0.00  0.00    -0.572 OA
ATOM     15  S20 H1S d  69       8.380   2.076  14.901  0.00  0.00     0.156 S 
ATOM     16  C4  H1S d  69       5.182   1.648  15.365  0.00  0.00     0.083 C 
ATOM     17  O9  H1S d  69       4.334   2.110  16.466  0.00  0.00    -0.391 OA
ATOM     18  O25 H1S d  69       3.627  -2.119  16.730  0.00  0.00    -0.389 OA
ATOM     19  O34 H1S d  69       4.723  -4.863  12.502  0.00  0.00    -0.642 OA
ATOM     20  N14 H1S d  69       7.066   2.215  13.929  0.00  0.00    -0.210 NA
ATOM     21  O33 H1S d  69       9.159  -3.230  17.569  0.00  0.00    -0.572 OA
ATOM     22  C1  H1S d  69       4.403   0.754  14.382  0.00  0.00     0.095 C 
ATOM     23  C24 H1S d  69       4.759  -3.545  15.009  0.00  0.00    -0.034 C 
ATOM     24  C7  H1S d  69       6.033  -1.049  15.087  0.00  0.00     0.167 C 
ATOM     25  O23 H1S d  69       2.419   0.544   8.582  0.00  0.00    -0.572 OA
ATOM     26  C8  H1S d  69       5.862   2.773  14.591  0.00  0.00     0.081 C 
ATOM     27  C6  H1S d  69       3.692   0.142  11.975  0.00  0.00     0.067 C 
ATOM     28  O11 H1S d  69       3.873   0.493  10.553  0.00  0.00    -0.254 OA
ATOM     29  O29 H1S d  69       8.289   0.809  15.689  0.00  0.00    -0.296 OA
ATOM     30  C12 H1S d  69       6.005  -1.804  16.427  0.00  0.00     0.135 C 
ATOM     31  C10 H1S d  69       4.830   3.361  13.572  0.00  0.00     0.147 C 
ATOM     32  S16 H1S d  69       2.966   1.331   9.746  0.00  0.00     0.251 S 
ATOM     33  C19 H1S d  69       5.467  -3.058  13.881  0.00  0.00     0.147 C 
ATOM     34  S26 H1S d  69       7.731  -3.096  17.875  0.00  0.00     0.252 S 
ATOM     35  C27 H1S d  69       5.400  -3.811  12.544  0.00  0.00     0.233 C 
ATOM     36  H   H1S d  69       4.346   5.141  12.628  0.00  0.00     0.212 HD
ATOM     37  H   H1S d  69       4.979  -3.595  17.111  0.00  0.00     0.093 H 
ATOM     38  H   H1S d  69       9.701   2.853  13.585  0.00  0.00     0.231 HD
ATOM     39  H   H1S d  69       8.609   4.011  15.385  0.00  0.00     0.231 HD
ATOM     40  H   H1S d  69       5.650   0.607  12.675  0.00  0.00     0.090 H 
ATOM     41  H   H1S d  69       5.952   1.078  15.840  0.00  0.00     0.089 H 
ATOM     42  H   H1S d  69       3.604   2.640  16.111  0.00  0.00     0.210 HD
ATOM     43  H   H1S d  69       3.474  -1.408  16.088  0.00  0.00     0.210 HD
ATOM     44  H   H1S d  69       6.832   1.287  13.575  0.00  0.00     0.140 HD
ATOM     45  H   H1S d  69       3.363   1.004  14.383  0.00  0.00     0.091 H 
ATOM     46  H   H1S d  69       4.186  -4.398  14.916  0.00  0.00     0.085 H 
ATOM     47  H   H1S d  69       6.814  -0.322  15.158  0.00  0.00     0.134 H 
ATOM     48  H   H1S d  69       6.180   3.571  15.229  0.00  0.00     0.076 H 
ATOM     49  H   H1S d  69       2.685   0.351  12.267  0.00  0.00     0.080 H 
ATOM     50  H   H1S d  69       3.900  -0.900  12.109  0.00  0.00     0.080 H 
ATOM     51  H   H1S d  69       9.067   0.730  16.264  0.00  0.00     0.231 HD
ATOM     52  H   H1S d  69       5.866  -1.117  17.235  0.00  0.00     0.097 H 
ATOM     53  H   H1S d  69       3.867   3.432  14.032  0.00  0.00     0.131 H 
ENDROOT
TORSDOF 16
ENDMDL
MODEL 53
REMARK VINA RESULT:      -4.5      3.629      6.104
REMARK  0 active torsions:
REMARK  status: ('A' for Active; 'I' for Inactive)
REMARK       I    between atoms: O15_1  and  C10_31 
REMARK       I    between atoms: C17_4  and  O25_18 
REMARK       I    between atoms: O28_6  and  S20_15 
REMARK       I    between atoms: O3_7  and  C1_22 
REMARK       I    between atoms: O3_7  and  C7_24 
REMARK       I    between atoms: O30_8  and  S20_15 
REMARK       I    between atoms: C2_10  and  C6_27 
REMARK       I    between atoms: O18_13  and  C12_30 
REMARK       I    between atoms: O18_13  and  S26_34 
REMARK       I    between atoms: S20_15  and  N14_20 
REMARK       I    between atoms: S20_15  and  O29_29 
REMARK       I    between atoms: C4_16  and  O9_17 
REMARK       I    between atoms: N14_20  and  C8_26 
REMARK       I    between atoms: C6_27  and  O11_28 
REMARK       I    between atoms: O11_28  and  S16_32 
REMARK       I    between atoms: C19_33  and  C27_35 
ROOT
ATOM      1  O15 H1S d  69       5.673   2.471  18.605  0.00  0.00    -0.369 OA
ATOM      2  O22 H1S d  69       5.498  -2.366  17.018  0.00  0.00    -0.572 OA
ATOM      3  O31 H1S d  69       8.852   5.547  10.227  0.00  0.00    -0.572 OA
ATOM      4  C17 H1S d  69       8.351   1.764  10.796  0.00  0.00     0.086 C 
ATOM      5  O5  H1S d  69       5.289   0.929  16.517  0.00  0.00    -0.350 OA
ATOM      6  O28 H1S d  69       3.606   5.586  14.623  0.00  0.00    -0.296 OA
ATOM      7  O3  H1S d  69       7.205   1.469  13.249  0.00  0.00    -0.348 OA
ATOM      8  O30 H1S d  69       5.648   6.121  15.656  0.00  0.00    -0.296 OA
ATOM      9  O32 H1S d  69       8.452   3.971   8.427  0.00  0.00    -0.572 OA
ATOM     10  C2  H1S d  69       5.589   0.760  15.069  0.00  0.00     0.091 C 
ATOM     11  O35 H1S d  69       3.775  -0.250  10.867  0.00  0.00    -0.642 OA
ATOM     12  O13 H1S d  69       5.520   1.700  11.738  0.00  0.00    -0.311 OA
ATOM     13  O18 H1S d  69       7.087   3.850  10.456  0.00  0.00    -0.244 OA
ATOM     14  O21 H1S d  69       3.219  -1.612  17.446  0.00  0.00    -0.572 OA
ATOM     15  S20 H1S d  69       4.989   5.109  14.830  0.00  0.00     0.156 S 
ATOM     16  C4  H1S d  69       7.283   2.814  15.140  0.00  0.00     0.083 C 
ATOM     17  O9  H1S d  69       8.669   2.942  15.595  0.00  0.00    -0.391 OA
ATOM     18  O25 H1S d  69       9.338   1.258  11.701  0.00  0.00    -0.389 OA
ATOM     19  O34 H1S d  69       5.321  -1.175   9.568  0.00  0.00    -0.642 OA
ATOM     20  N14 H1S d  69       4.999   3.596  15.464  0.00  0.00    -0.210 NA
ATOM     21  O33 H1S d  69       6.698   5.600   9.109  0.00  0.00    -0.572 OA
ATOM     22  C1  H1S d  69       6.971   1.384  14.659  0.00  0.00     0.095 C 
ATOM     23  C24 H1S d  69       7.294   0.694  10.367  0.00  0.00    -0.034 C 
ATOM     24  C7  H1S d  69       6.572   2.472  12.410  0.00  0.00     0.167 C 
ATOM     25  O23 H1S d  69       3.525  -3.512  15.989  0.00  0.00    -0.572 OA
ATOM     26  C8  H1S d  69       6.246   3.232  16.178  0.00  0.00     0.081 C 
ATOM     27  C6  H1S d  69       5.478  -0.723  14.683  0.00  0.00     0.067 C 
ATOM     28  O11 H1S d  69       4.229  -1.294  15.225  0.00  0.00    -0.254 OA
ATOM     29  O29 H1S d  69       5.684   5.103  13.506  0.00  0.00    -0.296 OA
ATOM     30  C12 H1S d  69       7.666   2.988  11.459  0.00  0.00     0.135 C 
ATOM     31  C10 H1S d  69       6.046   2.045  17.177  0.00  0.00     0.147 C 
ATOM     32  S16 H1S d  69       4.121  -2.188  16.394  0.00  0.00     0.251 S 
ATOM     33  C19 H1S d  69       5.962   0.734  10.855  0.00  0.00     0.147 C 
ATOM     34  S26 H1S d  69       7.798   4.732   9.540  0.00  0.00     0.252 S 
ATOM     35  C27 H1S d  69       4.940  -0.314  10.393  0.00  0.00     0.233 C 
ATOM     36  H   H1S d  69       5.567   1.683  19.161  0.00  0.00     0.212 HD
ATOM     37  H   H1S d  69       8.844   2.050   9.890  0.00  0.00     0.093 H 
ATOM     38  H   H1S d  69       3.137   5.597  15.472  0.00  0.00     0.231 HD
ATOM     39  H   H1S d  69       5.222   6.155  16.527  0.00  0.00     0.231 HD
ATOM     40  H   H1S d  69       4.858   1.308  14.512  0.00  0.00     0.090 H 
ATOM     41  H   H1S d  69       7.205   3.497  14.320  0.00  0.00     0.089 H 
ATOM     42  H   H1S d  69       8.819   2.347  16.346  0.00  0.00     0.210 HD
ATOM     43  H   H1S d  69       8.910   0.992  12.530  0.00  0.00     0.210 HD
ATOM     44  H   H1S d  69       4.864   2.931  14.702  0.00  0.00     0.140 HD
ATOM     45  H   H1S d  69       7.594   0.671  15.157  0.00  0.00     0.091 H 
ATOM     46  H   H1S d  69       7.570  -0.057   9.716  0.00  0.00     0.085 H 
ATOM     47  H   H1S d  69       6.153   3.330  12.894  0.00  0.00     0.134 H 
ATOM     48  H   H1S d  69       6.560   4.085  16.744  0.00  0.00     0.076 H 
ATOM     49  H   H1S d  69       6.314  -1.257  15.083  0.00  0.00     0.080 H 
ATOM     50  H   H1S d  69       5.469  -0.809  13.616  0.00  0.00     0.080 H 
ATOM     51  H   H1S d  69       5.678   5.999  13.133  0.00  0.00     0.231 HD
ATOM     52  H   H1S d  69       8.390   3.556  12.004  0.00  0.00     0.097 H 
ATOM     53  H   H1S d  69       6.991   1.598  17.404  0.00  0.00     0.131 H 
ENDROOT
TORSDOF 16
ENDMDL
MODEL 54
REMARK VINA RESULT:      -4.4      2.903      6.013
REMARK  0 active torsions:
REMARK  status: ('A' for Active; 'I' for Inactive)
REMARK       I    between atoms: O15_1  and  C10_31 
REMARK       I    between atoms: C17_4  and  O25_18 
REMARK       I    between atoms: O28_6  and  S20_15 
REMARK       I    between atoms: O3_7  and  C1_22 
REMARK       I    between atoms: O3_7  and  C7_24 
REMARK       I    between atoms: O30_8  and  S20_15 
REMARK       I    between atoms: C2_10  and  C6_27 
REMARK       I    between atoms: O18_13  and  C12_30 
REMARK       I    between atoms: O18_13  and  S26_34 
REMARK       I    between atoms: S20_15  and  N14_20 
REMARK       I    between atoms: S20_15  and  O29_29 
REMARK       I    between atoms: C4_16  and  O9_17 
REMARK       I    between atoms: N14_20  and  C8_26 
REMARK       I    between atoms: C6_27  and  O11_28 
REMARK       I    between atoms: O11_28  and  S16_32 
REMARK       I    between atoms: C19_33  and  C27_35 
ROOT
ATOM      1  O15 H1S d  69       5.555  -7.955  13.161  0.00  0.00    -0.369 OA
ATOM      2  O22 H1S d  69       4.245  -3.623  15.501  0.00  0.00    -0.572 OA
ATOM      3  O31 H1S d  69       6.098  -3.717   4.705  0.00  0.00    -0.572 OA
ATOM      4  C17 H1S d  69       4.929  -1.691   7.773  0.00  0.00     0.086 C 
ATOM      5  O5  H1S d  69       5.836  -5.346  13.123  0.00  0.00    -0.350 OA
ATOM      6  O28 H1S d  69       9.620  -6.794   9.703  0.00  0.00    -0.296 OA
ATOM      7  O3  H1S d  69       5.195  -3.309   9.949  0.00  0.00    -0.348 OA
ATOM      8  O30 H1S d  69       7.753  -8.046   9.016  0.00  0.00    -0.296 OA
ATOM      9  O32 H1S d  69       6.307  -1.306   4.867  0.00  0.00    -0.572 OA
ATOM     10  C2  H1S d  69       5.879  -4.148  12.239  0.00  0.00     0.091 C 
ATOM     11  O35 H1S d  69       8.180  -0.185  11.261  0.00  0.00    -0.642 OA
ATOM     12  O13 H1S d  69       7.166  -2.205   9.681  0.00  0.00    -0.311 OA
ATOM     13  O18 H1S d  69       6.944  -2.698   6.777  0.00  0.00    -0.244 OA
ATOM     14  O21 H1S d  69       6.443  -4.301  16.308  0.00  0.00    -0.572 OA
ATOM     15  S20 H1S d  69       8.157  -6.726   9.501  0.00  0.00     0.156 S 
ATOM     16  C4  H1S d  69       5.158  -5.622  10.142  0.00  0.00     0.083 C 
ATOM     17  O9  H1S d  69       3.864  -6.133   9.686  0.00  0.00    -0.391 OA
ATOM     18  O25 H1S d  69       3.625  -2.114   8.186  0.00  0.00    -0.389 OA
ATOM     19  O34 H1S d  69       6.789   1.313  10.390  0.00  0.00    -0.642 OA
ATOM     20  N14 H1S d  69       7.398  -6.239  10.872  0.00  0.00    -0.210 NA
ATOM     21  O33 H1S d  69       8.314  -2.772   5.004  0.00  0.00    -0.572 OA
ATOM     22  C1  H1S d  69       5.004  -4.317  10.946  0.00  0.00     0.095 C 
ATOM     23  C24 H1S d  69       5.561  -0.614   8.715  0.00  0.00    -0.034 C 
ATOM     24  C7  H1S d  69       6.361  -3.275   9.082  0.00  0.00     0.167 C 
ATOM     25  O23 H1S d  69       5.814  -1.986  16.561  0.00  0.00    -0.572 OA
ATOM     26  C8  H1S d  69       5.969  -6.623  10.958  0.00  0.00     0.081 C 
ATOM     27  C6  H1S d  69       5.503  -2.894  13.043  0.00  0.00     0.067 C 
ATOM     28  O11 H1S d  69       6.247  -2.869  14.318  0.00  0.00    -0.254 OA
ATOM     29  O29 H1S d  69       7.882  -5.752   8.401  0.00  0.00    -0.296 OA
ATOM     30  C12 H1S d  69       5.838  -2.944   7.673  0.00  0.00     0.135 C 
ATOM     31  C10 H1S d  69       5.428  -6.612  12.426  0.00  0.00     0.147 C 
ATOM     32  S16 H1S d  69       5.694  -3.181  15.650  0.00  0.00     0.251 S 
ATOM     33  C19 H1S d  69       6.629  -0.935   9.592  0.00  0.00     0.147 C 
ATOM     34  S26 H1S d  69       6.892  -2.607   5.324  0.00  0.00     0.252 S 
ATOM     35  C27 H1S d  69       7.247   0.151  10.484  0.00  0.00     0.233 C 
ATOM     36  H   H1S d  69       5.199  -7.866  14.060  0.00  0.00     0.212 HD
ATOM     37  H   H1S d  69       4.838  -1.212   6.821  0.00  0.00     0.093 H 
ATOM     38  H   H1S d  69       9.819  -7.423  10.414  0.00  0.00     0.231 HD
ATOM     39  H   H1S d  69       7.917  -8.708   9.706  0.00  0.00     0.231 HD
ATOM     40  H   H1S d  69       6.883  -4.033  11.885  0.00  0.00     0.090 H 
ATOM     41  H   H1S d  69       5.703  -5.430   9.241  0.00  0.00     0.089 H 
ATOM     42  H   H1S d  69       3.306  -6.332  10.453  0.00  0.00     0.210 HD
ATOM     43  H   H1S d  69       3.687  -2.552   9.050  0.00  0.00     0.210 HD
ATOM     44  H   H1S d  69       7.457  -5.222  10.923  0.00  0.00     0.140 HD
ATOM     45  H   H1S d  69       4.048  -4.276  11.424  0.00  0.00     0.091 H 
ATOM     46  H   H1S d  69       5.193   0.350   8.699  0.00  0.00     0.085 H 
ATOM     47  H   H1S d  69       6.938  -4.172   8.994  0.00  0.00     0.134 H 
ATOM     48  H   H1S d  69       5.876  -7.622  10.584  0.00  0.00     0.076 H 
ATOM     49  H   H1S d  69       4.453  -2.905  13.247  0.00  0.00     0.080 H 
ATOM     50  H   H1S d  69       5.754  -2.024  12.473  0.00  0.00     0.080 H 
ATOM     51  H   H1S d  69       8.331  -6.042   7.592  0.00  0.00     0.231 HD
ATOM     52  H   H1S d  69       5.276  -3.768   7.285  0.00  0.00     0.097 H 
ATOM     53  H   H1S d  69       4.360  -6.553  12.419  0.00  0.00     0.131 H 
ENDROOT
TORSDOF 16
ENDMDL
MODEL 55
REMARK VINA RESULT:      -4.4      2.869      3.987
REMARK  0 active torsions:
REMARK  status: ('A' for Active; 'I' for Inactive)
REMARK       I    between atoms: O15_1  and  C10_31 
REMARK       I    between atoms: C17_4  and  O25_18 
REMARK       I    between atoms: O28_6  and  S20_15 
REMARK       I    between atoms: O3_7  and  C1_22 
REMARK       I    between atoms: O3_7  and  C7_24 
REMARK       I    between atoms: O30_8  and  S20_15 
REMARK       I    between atoms: C2_10  and  C6_27 
REMARK       I    between atoms: O18_13  and  C12_30 
REMARK       I    between atoms: O18_13  and  S26_34 
REMARK       I    between atoms: S20_15  and  N14_20 
REMARK       I    between atoms: S20_15  and  O29_29 
REMARK       I    between atoms: C4_16  and  O9_17 
REMARK       I    between atoms: N14_20  and  C8_26 
REMARK       I    between atoms: C6_27  and  O11_28 
REMARK       I    between atoms: O11_28  and  S16_32 
REMARK       I    between atoms: C19_33  and  C27_35 
ROOT
ATOM      1  O15 H1S d  69       3.256   4.262  11.812  0.00  0.00    -0.369 OA
ATOM      2  O22 H1S d  69       5.953   0.634  14.162  0.00  0.00    -0.572 OA
ATOM      3  O31 H1S d  69       6.520   1.750   3.280  0.00  0.00    -0.572 OA
ATOM      4  C17 H1S d  69       7.856  -0.039   6.426  0.00  0.00     0.086 C 
ATOM      5  O5  H1S d  69       4.258   1.850  11.554  0.00  0.00    -0.350 OA
ATOM      6  O28 H1S d  69       1.027   2.028   7.354  0.00  0.00    -0.296 OA
ATOM      7  O3  H1S d  69       6.419   0.890   8.546  0.00  0.00    -0.348 OA
ATOM      8  O30 H1S d  69       2.173   4.077   7.250  0.00  0.00    -0.296 OA
ATOM      9  O32 H1S d  69       7.449  -0.491   3.245  0.00  0.00    -0.572 OA
ATOM     10  C2  H1S d  69       4.968   0.930  10.623  0.00  0.00     0.091 C 
ATOM     11  O35 H1S d  69       5.073  -3.409   8.856  0.00  0.00    -0.642 OA
ATOM     12  O13 H1S d  69       5.307  -0.911   7.712  0.00  0.00    -0.311 OA
ATOM     13  O18 H1S d  69       5.855   0.122   4.999  0.00  0.00    -0.244 OA
ATOM     14  O21 H1S d  69       3.584   0.114  14.406  0.00  0.00    -0.572 OA
ATOM     15  S20 H1S d  69       2.353   2.654   7.537  0.00  0.00     0.156 S 
ATOM     16  C4  H1S d  69       5.316   2.907   8.873  0.00  0.00     0.083 C 
ATOM     17  O9  H1S d  69       6.276   4.010   8.799  0.00  0.00    -0.391 OA
ATOM     18  O25 H1S d  69       8.688   0.842   7.188  0.00  0.00    -0.389 OA
ATOM     19  O34 H1S d  69       7.151  -3.957   8.294  0.00  0.00    -0.642 OA
ATOM     20  N14 H1S d  69       2.955   2.327   9.028  0.00  0.00    -0.210 NA
ATOM     21  O33 H1S d  69       5.007  -0.119   2.938  0.00  0.00    -0.572 OA
ATOM     22  C1  H1S d  69       5.902   1.690   9.614  0.00  0.00     0.095 C 
ATOM     23  C24 H1S d  69       7.633  -1.429   7.109  0.00  0.00    -0.034 C 
ATOM     24  C7  H1S d  69       5.612   0.491   7.405  0.00  0.00     0.167 C 
ATOM     25  O23 H1S d  69       5.168  -1.685  14.682  0.00  0.00    -0.572 OA
ATOM     26  C8  H1S d  69       3.980   3.286   9.505  0.00  0.00     0.081 C 
ATOM     27  C6  H1S d  69       5.721  -0.143  11.425  0.00  0.00     0.067 C 
ATOM     28  O11 H1S d  69       4.835  -0.716  12.458  0.00  0.00    -0.254 OA
ATOM     29  O29 H1S d  69       3.275   2.108   6.493  0.00  0.00    -0.296 OA
ATOM     30  C12 H1S d  69       6.504   0.675   6.164  0.00  0.00     0.135 C 
ATOM     31  C10 H1S d  69       4.151   3.264  11.060  0.00  0.00     0.147 C 
ATOM     32  S16 H1S d  69       4.891  -0.424  13.903  0.00  0.00     0.251 S 
ATOM     33  C19 H1S d  69       6.387  -1.772   7.694  0.00  0.00     0.147 C 
ATOM     34  S26 H1S d  69       6.238   0.314   3.607  0.00  0.00     0.252 S 
ATOM     35  C27 H1S d  69       6.190  -3.156   8.331  0.00  0.00     0.233 C 
ATOM     36  H   H1S d  69       3.420   4.188  12.766  0.00  0.00     0.212 HD
ATOM     37  H   H1S d  69       8.355  -0.256   5.505  0.00  0.00     0.093 H 
ATOM     38  H   H1S d  69       0.414   2.370   8.024  0.00  0.00     0.231 HD
ATOM     39  H   H1S d  69       1.579   4.467   7.909  0.00  0.00     0.231 HD
ATOM     40  H   H1S d  69       4.235   0.443  10.014  0.00  0.00     0.090 H 
ATOM     41  H   H1S d  69       5.123   2.650   7.852  0.00  0.00     0.089 H 
ATOM     42  H   H1S d  69       6.502   4.301   9.696  0.00  0.00     0.210 HD
ATOM     43  H   H1S d  69       8.253   1.050   8.030  0.00  0.00     0.210 HD
ATOM     44  H   H1S d  69       3.376   1.398   9.004  0.00  0.00     0.140 HD
ATOM     45  H   H1S d  69       6.643   1.997  10.322  0.00  0.00     0.091 H 
ATOM     46  H   H1S d  69       8.407  -2.110   7.134  0.00  0.00     0.085 H 
ATOM     47  H   H1S d  69       4.711   1.038   7.221  0.00  0.00     0.134 H 
ATOM     48  H   H1S d  69       3.664   4.269   9.226  0.00  0.00     0.076 H 
ATOM     49  H   H1S d  69       6.574   0.298  11.895  0.00  0.00     0.080 H 
ATOM     50  H   H1S d  69       6.034  -0.922  10.761  0.00  0.00     0.080 H 
ATOM     51  H   H1S d  69       2.917   2.303   5.613  0.00  0.00     0.231 HD
ATOM     52  H   H1S d  69       6.674   1.716   5.984  0.00  0.00     0.097 H 
ATOM     53  H   H1S d  69       5.095   3.689  11.328  0.00  0.00     0.131 H 
ENDROOT
TORSDOF 16
ENDMDL
MODEL 56
REMARK VINA RESULT:      -4.4      3.568      4.583
REMARK  0 active torsions:
REMARK  status: ('A' for Active; 'I' for Inactive)
REMARK       I    between atoms: O15_1  and  C10_31 
REMARK       I    between atoms: C17_4  and  O25_18 
REMARK       I    between atoms: O28_6  and  S20_15 
REMARK       I    between atoms: O3_7  and  C1_22 
REMARK       I    between atoms: O3_7  and  C7_24 
REMARK       I    between atoms: O30_8  and  S20_15 
REMARK       I    between atoms: C2_10  and  C6_27 
REMARK       I    between atoms: O18_13  and  C12_30 
REMARK       I    between atoms: O18_13  and  S26_34 
REMARK       I    between atoms: S20_15  and  N14_20 
REMARK       I    between atoms: S20_15  and  O29_29 
REMARK       I    between atoms: C4_16  and  O9_17 
REMARK       I    between atoms: N14_20  and  C8_26 
REMARK       I    between atoms: C6_27  and  O11_28 
REMARK       I    between atoms: O11_28  and  S16_32 
REMARK       I    between atoms: C19_33  and  C27_35 
ROOT
ATOM      1  O15 H1S d  69       2.184   6.105  11.274  0.00  0.00    -0.369 OA
ATOM      2  O22 H1S d  69       5.989   5.921  14.656  0.00  0.00    -0.572 OA
ATOM      3  O31 H1S d  69       6.395  -0.171   5.562  0.00  0.00    -0.572 OA
ATOM      4  C17 H1S d  69       8.222   1.026   8.742  0.00  0.00     0.086 C 
ATOM      5  O5  H1S d  69       4.033   4.562  12.315  0.00  0.00    -0.350 OA
ATOM      6  O28 H1S d  69       1.096   0.978   9.739  0.00  0.00    -0.296 OA
ATOM      7  O3  H1S d  69       6.480   2.607  10.118  0.00  0.00    -0.348 OA
ATOM      8  O30 H1S d  69       1.381   2.691   8.156  0.00  0.00    -0.296 OA
ATOM      9  O32 H1S d  69       8.106  -1.473   6.685  0.00  0.00    -0.572 OA
ATOM     10  C2  H1S d  69       5.066   3.535  12.004  0.00  0.00     0.091 C 
ATOM     11  O35 H1S d  69       6.860  -0.606  13.269  0.00  0.00    -0.642 OA
ATOM     12  O13 H1S d  69       6.160   0.469  10.828  0.00  0.00    -0.311 OA
ATOM     13  O18 H1S d  69       6.351  -0.398   8.010  0.00  0.00    -0.244 OA
ATOM     14  O21 H1S d  69       3.989   4.990  15.694  0.00  0.00    -0.572 OA
ATOM     15  S20 H1S d  69       2.080   1.939   9.199  0.00  0.00     0.156 S 
ATOM     16  C4  H1S d  69       4.686   3.888   9.392  0.00  0.00     0.083 C 
ATOM     17  O9  H1S d  69       5.156   4.905   8.449  0.00  0.00    -0.391 OA
ATOM     18  O25 H1S d  69       8.635   2.389   8.600  0.00  0.00    -0.389 OA
ATOM     19  O34 H1S d  69       9.005  -0.715  12.703  0.00  0.00    -0.642 OA
ATOM     20  N14 H1S d  69       2.719   2.860  10.396  0.00  0.00    -0.210 NA
ATOM     21  O33 H1S d  69       5.716  -2.160   6.778  0.00  0.00    -0.572 OA
ATOM     22  C1  H1S d  69       5.668   3.698  10.563  0.00  0.00     0.095 C 
ATOM     23  C24 H1S d  69       8.524   0.430  10.156  0.00  0.00    -0.034 C 
ATOM     24  C7  H1S d  69       5.918   1.342   9.673  0.00  0.00     0.167 C 
ATOM     25  O23 H1S d  69       6.130   4.399  16.638  0.00  0.00    -0.572 OA
ATOM     26  C8  H1S d  69       3.289   4.152   9.946  0.00  0.00     0.081 C 
ATOM     27  C6  H1S d  69       6.146   3.535  13.096  0.00  0.00     0.067 C 
ATOM     28  O11 H1S d  69       5.516   3.533  14.431  0.00  0.00    -0.254 OA
ATOM     29  O29 H1S d  69       3.168   1.165   8.526  0.00  0.00    -0.296 OA
ATOM     30  C12 H1S d  69       6.708   0.941   8.415  0.00  0.00     0.135 C 
ATOM     31  C10 H1S d  69       3.411   5.196  11.105  0.00  0.00     0.147 C 
ATOM     32  S16 H1S d  69       5.416   4.689  15.342  0.00  0.00     0.251 S 
ATOM     33  C19 H1S d  69       7.486   0.187  11.093  0.00  0.00     0.147 C 
ATOM     34  S26 H1S d  69       6.671  -1.048   6.747  0.00  0.00     0.252 S 
ATOM     35  C27 H1S d  69       7.811  -0.426  12.463  0.00  0.00     0.233 C 
ATOM     36  H   H1S d  69       2.337   6.721  12.009  0.00  0.00     0.212 HD
ATOM     37  H   H1S d  69       8.791   0.431   8.059  0.00  0.00     0.093 H 
ATOM     38  H   H1S d  69       0.380   1.462  10.181  0.00  0.00     0.231 HD
ATOM     39  H   H1S d  69       0.664   3.209   8.556  0.00  0.00     0.231 HD
ATOM     40  H   H1S d  69       4.590   2.576  12.002  0.00  0.00     0.090 H 
ATOM     41  H   H1S d  69       4.633   2.989   8.814  0.00  0.00     0.089 H 
ATOM     42  H   H1S d  69       5.230   5.757   8.904  0.00  0.00     0.210 HD
ATOM     43  H   H1S d  69       8.130   2.946   9.212  0.00  0.00     0.210 HD
ATOM     44  H   H1S d  69       3.461   2.326  10.847  0.00  0.00     0.140 HD
ATOM     45  H   H1S d  69       6.218   4.597  10.747  0.00  0.00     0.091 H 
ATOM     46  H   H1S d  69       9.498   0.208  10.414  0.00  0.00     0.085 H 
ATOM     47  H   H1S d  69       4.882   1.329   9.405  0.00  0.00     0.134 H 
ATOM     48  H   H1S d  69       2.630   4.561   9.208  0.00  0.00     0.076 H 
ATOM     49  H   H1S d  69       6.754   4.409  12.993  0.00  0.00     0.080 H 
ATOM     50  H   H1S d  69       6.751   2.658  12.992  0.00  0.00     0.080 H 
ATOM     51  H   H1S d  69       2.788   0.621   7.818  0.00  0.00     0.231 HD
ATOM     52  H   H1S d  69       6.475   1.603   7.607  0.00  0.00     0.097 H 
ATOM     53  H   H1S d  69       4.115   5.956  10.838  0.00  0.00     0.131 H 
ENDROOT
TORSDOF 16
ENDMDL
MODEL 57
REMARK VINA RESULT:      -4.4      2.895      7.412
REMARK  0 active torsions:
REMARK  status: ('A' for Active; 'I' for Inactive)
REMARK       I    between atoms: O15_1  and  C10_31 
REMARK       I    between atoms: C17_4  and  O25_18 
REMARK       I    between atoms: O28_6  and  S20_15 
REMARK       I    between atoms: O3_7  and  C1_22 
REMARK       I    between atoms: O3_7  and  C7_24 
REMARK       I    between atoms: O30_8  and  S20_15 
REMARK       I    between atoms: C2_10  and  C6_27 
REMARK       I    between atoms: O18_13  and  C12_30 
REMARK       I    between atoms: O18_13  and  S26_34 
REMARK       I    between atoms: S20_15  and  N14_20 
REMARK       I    between atoms: S20_15  and  O29_29 
REMARK       I    between atoms: C4_16  and  O9_17 
REMARK       I    between atoms: N14_20  and  C8_26 
REMARK       I    between atoms: C6_27  and  O11_28 
REMARK       I    between atoms: O11_28  and  S16_32 
REMARK       I    between atoms: C19_33  and  C27_35 
ROOT
ATOM      1  O15 H1S d  69       6.114  -1.566   5.126  0.00  0.00    -0.369 OA
ATOM      2  O22 H1S d  69       6.161  -6.657   4.936  0.00  0.00    -0.572 OA
ATOM      3  O31 H1S d  69       4.408  -1.510  14.445  0.00  0.00    -0.572 OA
ATOM      4  C17 H1S d  69       4.544  -4.873  12.560  0.00  0.00     0.086 C 
ATOM      5  O5  H1S d  69       6.680  -3.741   6.480  0.00  0.00    -0.350 OA
ATOM      6  O28 H1S d  69       8.955  -0.057   9.540  0.00  0.00    -0.296 OA
ATOM      7  O3  H1S d  69       5.300  -4.325  10.001  0.00  0.00    -0.348 OA
ATOM      8  O30 H1S d  69       6.830   0.841   9.091  0.00  0.00    -0.296 OA
ATOM      9  O32 H1S d  69       4.947  -3.617  15.518  0.00  0.00    -0.572 OA
ATOM     10  C2  H1S d  69       6.580  -4.394   7.815  0.00  0.00     0.091 C 
ATOM     11  O35 H1S d  69       8.903  -6.826  11.079  0.00  0.00    -0.642 OA
ATOM     12  O13 H1S d  69       7.197  -4.662  11.210  0.00  0.00    -0.311 OA
ATOM     13  O18 H1S d  69       5.993  -3.057  13.377  0.00  0.00    -0.244 OA
ATOM     14  O21 H1S d  69       8.403  -5.845   4.429  0.00  0.00    -0.572 OA
ATOM     15  S20 H1S d  69       7.525  -0.407   9.409  0.00  0.00     0.156 S 
ATOM     16  C4  H1S d  69       5.049  -2.410   8.714  0.00  0.00     0.083 C 
ATOM     17  O9  H1S d  69       3.625  -2.105   8.558  0.00  0.00    -0.391 OA
ATOM     18  O25 H1S d  69       3.402  -5.017  11.708  0.00  0.00    -0.389 OA
ATOM     19  O34 H1S d  69       7.496  -8.113  12.219  0.00  0.00    -0.642 OA
ATOM     20  N14 H1S d  69       7.313  -1.608   8.312  0.00  0.00    -0.210 NA
ATOM     21  O33 H1S d  69       6.699  -1.887  15.154  0.00  0.00    -0.572 OA
ATOM     22  C1  H1S d  69       5.321  -3.923   8.627  0.00  0.00     0.095 C 
ATOM     23  C24 H1S d  69       5.571  -6.046  12.427  0.00  0.00    -0.034 C 
ATOM     24  C7  H1S d  69       6.119  -3.686  11.017  0.00  0.00     0.167 C 
ATOM     25  O23 H1S d  69       8.173  -8.124   5.187  0.00  0.00    -0.572 OA
ATOM     26  C8  H1S d  69       5.953  -1.678   7.727  0.00  0.00     0.081 C 
ATOM     27  C6  H1S d  69       6.637  -5.921   7.654  0.00  0.00     0.067 C 
ATOM     28  O11 H1S d  69       7.750  -6.293   6.757  0.00  0.00    -0.254 OA
ATOM     29  O29 H1S d  69       7.030  -0.856  10.746  0.00  0.00    -0.296 OA
ATOM     30  C12 H1S d  69       5.214  -3.509  12.248  0.00  0.00     0.135 C 
ATOM     31  C10 H1S d  69       5.919  -2.452   6.367  0.00  0.00     0.147 C 
ATOM     32  S16 H1S d  69       7.622  -6.731   5.354  0.00  0.00     0.251 S 
ATOM     33  C19 H1S d  69       6.817  -5.865  11.774  0.00  0.00     0.147 C 
ATOM     34  S26 H1S d  69       5.487  -2.532  14.638  0.00  0.00     0.252 S 
ATOM     35  C27 H1S d  69       7.817  -7.027  11.684  0.00  0.00     0.233 C 
ATOM     36  H   H1S d  69       6.080  -2.116   4.328  0.00  0.00     0.212 HD
ATOM     37  H   H1S d  69       4.209  -4.907  13.576  0.00  0.00     0.093 H 
ATOM     38  H   H1S d  69       9.296   0.237   8.681  0.00  0.00     0.231 HD
ATOM     39  H   H1S d  69       7.127   1.165   8.225  0.00  0.00     0.231 HD
ATOM     40  H   H1S d  69       7.422  -4.086   8.399  0.00  0.00     0.090 H 
ATOM     41  H   H1S d  69       5.294  -2.053   9.693  0.00  0.00     0.089 H 
ATOM     42  H   H1S d  69       3.325  -2.402   7.685  0.00  0.00     0.210 HD
ATOM     43  H   H1S d  69       3.686  -4.989  10.781  0.00  0.00     0.210 HD
ATOM     44  H   H1S d  69       7.508  -2.497   8.771  0.00  0.00     0.140 HD
ATOM     45  H   H1S d  69       4.582  -4.408   8.024  0.00  0.00     0.091 H 
ATOM     46  H   H1S d  69       5.337  -6.970  12.821  0.00  0.00     0.085 H 
ATOM     47  H   H1S d  69       6.525  -2.722  10.791  0.00  0.00     0.134 H 
ATOM     48  H   H1S d  69       5.624  -0.677   7.539  0.00  0.00     0.076 H 
ATOM     49  H   H1S d  69       5.716  -6.268   7.236  0.00  0.00     0.080 H 
ATOM     50  H   H1S d  69       6.794  -6.370   8.613  0.00  0.00     0.080 H 
ATOM     51  H   H1S d  69       7.155  -0.144  11.393  0.00  0.00     0.231 HD
ATOM     52  H   H1S d  69       4.462  -2.774  12.051  0.00  0.00     0.097 H 
ATOM     53  H   H1S d  69       4.921  -2.774   6.157  0.00  0.00     0.131 H 
ENDROOT
TORSDOF 16
ENDMDL
MODEL 58
REMARK VINA RESULT:      -4.4      2.624      6.094
REMARK  0 active torsions:
REMARK  status: ('A' for Active; 'I' for Inactive)
REMARK       I    between atoms: O15_1  and  C10_31 
REMARK       I    between atoms: C17_4  and  O25_18 
REMARK       I    between atoms: O28_6  and  S20_15 
REMARK       I    between atoms: O3_7  and  C1_22 
REMARK       I    between atoms: O3_7  and  C7_24 
REMARK       I    between atoms: O30_8  and  S20_15 
REMARK       I    between atoms: C2_10  and  C6_27 
REMARK       I    between atoms: O18_13  and  C12_30 
REMARK       I    between atoms: O18_13  and  S26_34 
REMARK       I    between atoms: S20_15  and  N14_20 
REMARK       I    between atoms: S20_15  and  O29_29 
REMARK       I    between atoms: C4_16  and  O9_17 
REMARK       I    between atoms: N14_20  and  C8_26 
REMARK       I    between atoms: C6_27  and  O11_28 
REMARK       I    between atoms: O11_28  and  S16_32 
REMARK       I    between atoms: C19_33  and  C27_35 
ROOT
ATOM      1  O15 H1S d  69       4.847  -1.042  13.526  0.00  0.00    -0.369 OA
ATOM      2  O22 H1S d  69       2.310   1.427   9.863  0.00  0.00    -0.572 OA
ATOM      3  O31 H1S d  69       7.219  -8.122   7.693  0.00  0.00    -0.572 OA
ATOM      4  C17 H1S d  69       4.931  -5.292   6.412  0.00  0.00     0.086 C 
ATOM      5  O5  H1S d  69       4.752  -0.577  10.945  0.00  0.00    -0.350 OA
ATOM      6  O28 H1S d  69       9.534  -2.829  11.364  0.00  0.00    -0.296 OA
ATOM      7  O3  H1S d  69       4.780  -3.427   8.393  0.00  0.00    -0.348 OA
ATOM      8  O30 H1S d  69       8.147  -4.253  12.616  0.00  0.00    -0.296 OA
ATOM      9  O32 H1S d  69       7.025  -7.522   5.351  0.00  0.00    -0.572 OA
ATOM     10  C2  H1S d  69       4.880  -1.201   9.599  0.00  0.00     0.091 C 
ATOM     11  O35 H1S d  69       6.776  -0.771   5.335  0.00  0.00    -0.642 OA
ATOM     12  O13 H1S d  69       6.565  -2.887   7.090  0.00  0.00    -0.311 OA
ATOM     13  O18 H1S d  69       7.270  -5.755   7.027  0.00  0.00    -0.244 OA
ATOM     14  O21 H1S d  69       4.251   2.762  10.491  0.00  0.00    -0.572 OA
ATOM     15  S20 H1S d  69       8.200  -3.463  11.386  0.00  0.00     0.156 S 
ATOM     16  C4  H1S d  69       5.018  -3.625  10.694  0.00  0.00     0.083 C 
ATOM     17  O9  H1S d  69       4.000  -4.537  11.218  0.00  0.00    -0.391 OA
ATOM     18  O25 H1S d  69       3.638  -5.378   7.020  0.00  0.00    -0.389 OA
ATOM     19  O34 H1S d  69       5.500  -1.783   3.825  0.00  0.00    -0.642 OA
ATOM     20  N14 H1S d  69       7.013  -2.339  11.242  0.00  0.00    -0.210 NA
ATOM     21  O33 H1S d  69       9.093  -6.999   6.634  0.00  0.00    -0.572 OA
ATOM     22  C1  H1S d  69       4.453  -2.712   9.589  0.00  0.00     0.095 C 
ATOM     23  C24 H1S d  69       5.100  -4.041   5.488  0.00  0.00    -0.034 C 
ATOM     24  C7  H1S d  69       6.130  -3.870   8.089  0.00  0.00     0.167 C 
ATOM     25  O23 H1S d  69       3.251   3.169   8.332  0.00  0.00    -0.572 OA
ATOM     26  C8  H1S d  69       5.691  -2.766  11.760  0.00  0.00     0.081 C 
ATOM     27  C6  H1S d  69       4.111  -0.366   8.563  0.00  0.00     0.067 C 
ATOM     28  O11 H1S d  69       4.440   1.064   8.721  0.00  0.00    -0.254 OA
ATOM     29  O29 H1S d  69       8.121  -4.425  10.244  0.00  0.00    -0.296 OA
ATOM     30  C12 H1S d  69       5.998  -5.300   7.538  0.00  0.00     0.135 C 
ATOM     31  C10 H1S d  69       4.750  -1.558  12.082  0.00  0.00     0.147 C 
ATOM     32  S16 H1S d  69       3.574   2.089   9.334  0.00  0.00     0.251 S 
ATOM     33  C19 H1S d  69       5.901  -2.937   5.879  0.00  0.00     0.147 C 
ATOM     34  S26 H1S d  69       7.632  -7.117   6.660  0.00  0.00     0.252 S 
ATOM     35  C27 H1S d  69       6.071  -1.736   4.937  0.00  0.00     0.233 C 
ATOM     36  H   H1S d  69       4.237  -0.298  13.645  0.00  0.00     0.212 HD
ATOM     37  H   H1S d  69       5.054  -6.136   5.767  0.00  0.00     0.093 H 
ATOM     38  H   H1S d  69       9.605  -2.200  12.099  0.00  0.00     0.231 HD
ATOM     39  H   H1S d  69       8.196  -3.661  13.383  0.00  0.00     0.231 HD
ATOM     40  H   H1S d  69       5.916  -1.201   9.330  0.00  0.00     0.090 H 
ATOM     41  H   H1S d  69       5.769  -4.267  10.283  0.00  0.00     0.089 H 
ATOM     42  H   H1S d  69       3.278  -4.023  11.610  0.00  0.00     0.210 HD
ATOM     43  H   H1S d  69       3.506  -4.620   7.610  0.00  0.00     0.210 HD
ATOM     44  H   H1S d  69       6.909  -2.111  10.254  0.00  0.00     0.140 HD
ATOM     45  H   H1S d  69       3.403  -2.557   9.725  0.00  0.00     0.091 H 
ATOM     46  H   H1S d  69       4.620  -4.018   4.575  0.00  0.00     0.085 H 
ATOM     47  H   H1S d  69       6.830  -3.914   8.898  0.00  0.00     0.134 H 
ATOM     48  H   H1S d  69       5.854  -3.303  12.671  0.00  0.00     0.076 H 
ATOM     49  H   H1S d  69       3.060  -0.506   8.705  0.00  0.00     0.080 H 
ATOM     50  H   H1S d  69       4.390  -0.684   7.580  0.00  0.00     0.080 H 
ATOM     51  H   H1S d  69       8.823  -5.089  10.331  0.00  0.00     0.231 HD
ATOM     52  H   H1S d  69       5.697  -5.970   8.317  0.00  0.00     0.097 H 
ATOM     53  H   H1S d  69       3.733  -1.888  12.116  0.00  0.00     0.131 H 
ENDROOT
TORSDOF 16
ENDMDL
MODEL 59
REMARK VINA RESULT:      -4.4      2.519      5.931
REMARK  0 active torsions:
REMARK  status: ('A' for Active; 'I' for Inactive)
REMARK       I    between atoms: O15_1  and  C10_31 
REMARK       I    between atoms: C17_4  and  O25_18 
REMARK       I    between atoms: O28_6  and  S20_15 
REMARK       I    between atoms: O3_7  and  C1_22 
REMARK       I    between atoms: O3_7  and  C7_24 
REMARK       I    between atoms: O30_8  and  S20_15 
REMARK       I    between atoms: C2_10  and  C6_27 
REMARK       I    between atoms: O18_13  and  C12_30 
REMARK       I    between atoms: O18_13  and  S26_34 
REMARK       I    between atoms: S20_15  and  N14_20 
REMARK       I    between atoms: S20_15  and  O29_29 
REMARK       I    between atoms: C4_16  and  O9_17 
REMARK       I    between atoms: N14_20  and  C8_26 
REMARK       I    between atoms: C6_27  and  O11_28 
REMARK       I    between atoms: O11_28  and  S16_32 
REMARK       I    between atoms: C19_33  and  C27_35 
ROOT
ATOM      1  O15 H1S d  69       4.780  -5.749  13.020  0.00  0.00    -0.369 OA
ATOM      2  O22 H1S d  69       2.876  -2.134  16.062  0.00  0.00    -0.572 OA
ATOM      3  O31 H1S d  69       7.574   0.579   6.547  0.00  0.00    -0.572 OA
ATOM      4  C17 H1S d  69       5.615   1.774   9.648  0.00  0.00     0.086 C 
ATOM      5  O5  H1S d  69       5.054  -3.257  13.794  0.00  0.00    -0.350 OA
ATOM      6  O28 H1S d  69       9.625  -3.993  11.209  0.00  0.00    -0.296 OA
ATOM      7  O3  H1S d  69       5.288  -0.390  11.270  0.00  0.00    -0.348 OA
ATOM      8  O30 H1S d  69       8.016  -4.870   9.737  0.00  0.00    -0.296 OA
ATOM      9  O32 H1S d  69       7.725   2.833   7.431  0.00  0.00    -0.572 OA
ATOM     10  C2  H1S d  69       5.331  -1.870  13.327  0.00  0.00     0.091 C 
ATOM     11  O35 H1S d  69       7.799   2.030  14.139  0.00  0.00    -0.642 OA
ATOM     12  O13 H1S d  69       7.255   0.597  11.846  0.00  0.00    -0.311 OA
ATOM     13  O18 H1S d  69       7.826   0.930   8.967  0.00  0.00    -0.244 OA
ATOM     14  O21 H1S d  69       4.776  -3.167  17.188  0.00  0.00    -0.572 OA
ATOM     15  S20 H1S d  69       8.271  -3.765  10.662  0.00  0.00     0.156 S 
ATOM     16  C4  H1S d  69       5.207  -2.659  10.786  0.00  0.00     0.083 C 
ATOM     17  O9  H1S d  69       4.085  -2.930   9.885  0.00  0.00    -0.391 OA
ATOM     18  O25 H1S d  69       4.249   1.351   9.572  0.00  0.00    -0.389 OA
ATOM     19  O34 H1S d  69       6.691   3.806  13.396  0.00  0.00    -0.642 OA
ATOM     20  N14 H1S d  69       7.169  -3.615  11.868  0.00  0.00    -0.210 NA
ATOM     21  O33 H1S d  69       9.625   1.242   7.666  0.00  0.00    -0.572 OA
ATOM     22  C1  H1S d  69       4.838  -1.616  11.857  0.00  0.00     0.095 C 
ATOM     23  C24 H1S d  69       5.966   2.504  10.986  0.00  0.00    -0.034 C 
ATOM     24  C7  H1S d  69       6.645  -0.208  10.782  0.00  0.00     0.167 C 
ATOM     25  O23 H1S d  69       4.095  -0.967  17.911  0.00  0.00    -0.572 OA
ATOM     26  C8  H1S d  69       5.771  -3.902  11.468  0.00  0.00     0.081 C 
ATOM     27  C6  H1S d  69       4.748  -0.858  14.325  0.00  0.00     0.067 C 
ATOM     28  O11 H1S d  69       5.120  -1.236  15.703  0.00  0.00    -0.254 OA
ATOM     29  O29 H1S d  69       8.300  -2.510   9.850  0.00  0.00    -0.296 OA
ATOM     30  C12 H1S d  69       6.520   0.532   9.438  0.00  0.00     0.135 C 
ATOM     31  C10 H1S d  69       4.853  -4.251  12.687  0.00  0.00     0.147 C 
ATOM     32  S16 H1S d  69       4.229  -1.857  16.701  0.00  0.00     0.251 S 
ATOM     33  C19 H1S d  69       6.758   1.879  11.983  0.00  0.00     0.147 C 
ATOM     34  S26 H1S d  69       8.169   1.417   7.638  0.00  0.00     0.252 S 
ATOM     35  C27 H1S d  69       7.110   2.632  13.274  0.00  0.00     0.233 C 
ATOM     36  H   H1S d  69       4.195  -5.883  13.782  0.00  0.00     0.212 HD
ATOM     37  H   H1S d  69       5.783   2.499   8.880  0.00  0.00     0.093 H 
ATOM     38  H   H1S d  69       9.626  -4.804  11.741  0.00  0.00     0.231 HD
ATOM     39  H   H1S d  69       7.990  -5.705  10.230  0.00  0.00     0.231 HD
ATOM     40  H   H1S d  69       6.392  -1.737  13.293  0.00  0.00     0.090 H 
ATOM     41  H   H1S d  69       5.974  -2.270  10.151  0.00  0.00     0.089 H 
ATOM     42  H   H1S d  69       3.342  -3.290  10.393  0.00  0.00     0.210 HD
ATOM     43  H   H1S d  69       4.076   0.692  10.262  0.00  0.00     0.210 HD
ATOM     44  H   H1S d  69       7.209  -2.658  12.218  0.00  0.00     0.140 HD
ATOM     45  H   H1S d  69       3.788  -1.636  12.062  0.00  0.00     0.091 H 
ATOM     46  H   H1S d  69       5.614   3.460  11.147  0.00  0.00     0.085 H 
ATOM     47  H   H1S d  69       7.227  -1.087  10.598  0.00  0.00     0.134 H 
ATOM     48  H   H1S d  69       5.784  -4.752  10.817  0.00  0.00     0.076 H 
ATOM     49  H   H1S d  69       3.682  -0.847  14.237  0.00  0.00     0.080 H 
ATOM     50  H   H1S d  69       5.141   0.114  14.109  0.00  0.00     0.080 H 
ATOM     51  H   H1S d  69       8.952  -2.602   9.137  0.00  0.00     0.231 HD
ATOM     52  H   H1S d  69       6.087  -0.112   8.702  0.00  0.00     0.097 H 
ATOM     53  H   H1S d  69       3.826  -4.114  12.419  0.00  0.00     0.131 H 
ENDROOT
TORSDOF 16
ENDMDL
MODEL 60
REMARK VINA RESULT:      -4.4      2.719      7.174
REMARK  0 active torsions:
REMARK  status: ('A' for Active; 'I' for Inactive)
REMARK       I    between atoms: O15_1  and  C10_31 
REMARK       I    between atoms: C17_4  and  O25_18 
REMARK       I    between atoms: O28_6  and  S20_15 
REMARK       I    between atoms: O3_7  and  C1_22 
REMARK       I    between atoms: O3_7  and  C7_24 
REMARK       I    between atoms: O30_8  and  S20_15 
REMARK       I    between atoms: C2_10  and  C6_27 
REMARK       I    between atoms: O18_13  and  C12_30 
REMARK       I    between atoms: O18_13  and  S26_34 
REMARK       I    between atoms: S20_15  and  N14_20 
REMARK       I    between atoms: S20_15  and  O29_29 
REMARK       I    between atoms: C4_16  and  O9_17 
REMARK       I    between atoms: N14_20  and  C8_26 
REMARK       I    between atoms: C6_27  and  O11_28 
REMARK       I    between atoms: O11_28  and  S16_32 
REMARK       I    between atoms: C19_33  and  C27_35 
ROOT
ATOM      1  O15 H1S d  69       6.027  -0.987   4.525  0.00  0.00    -0.369 OA
ATOM      2  O22 H1S d  69       3.643  -4.736   7.018  0.00  0.00    -0.572 OA
ATOM      3  O31 H1S d  69       5.366   4.913  11.908  0.00  0.00    -0.572 OA
ATOM      4  C17 H1S d  69       3.730   1.425  12.112  0.00  0.00     0.086 C 
ATOM      5  O5  H1S d  69       5.612  -2.041   6.891  0.00  0.00    -0.350 OA
ATOM      6  O28 H1S d  69       9.615   1.262   7.975  0.00  0.00    -0.296 OA
ATOM      7  O3  H1S d  69       4.431   0.079   9.849  0.00  0.00    -0.348 OA
ATOM      8  O30 H1S d  69       8.138   2.587   6.715  0.00  0.00    -0.296 OA
ATOM      9  O32 H1S d  69       4.935   3.765  14.001  0.00  0.00    -0.572 OA
ATOM     10  C2  H1S d  69       5.331  -1.730   8.320  0.00  0.00     0.091 C 
ATOM     11  O35 H1S d  69       6.499  -2.689  12.757  0.00  0.00    -0.642 OA
ATOM     12  O13 H1S d  69       6.039  -0.330  11.405  0.00  0.00    -0.311 OA
ATOM     13  O18 H1S d  69       5.931   2.531  12.136  0.00  0.00    -0.244 OA
ATOM     14  O21 H1S d  69       5.949  -5.420   6.618  0.00  0.00    -0.572 OA
ATOM     15  S20 H1S d  69       8.185   1.569   7.764  0.00  0.00     0.156 S 
ATOM     16  C4  H1S d  69       5.006   0.848   7.736  0.00  0.00     0.083 C 
ATOM     17  O9  H1S d  69       3.888   1.603   7.166  0.00  0.00    -0.391 OA
ATOM     18  O25 H1S d  69       2.588   1.356  11.253  0.00  0.00    -0.389 OA
ATOM     19  O34 H1S d  69       4.756  -2.363  14.094  0.00  0.00    -0.642 OA
ATOM     20  N14 H1S d  69       7.336   0.204   7.433  0.00  0.00    -0.210 NA
ATOM     21  O33 H1S d  69       7.258   4.028  13.147  0.00  0.00    -0.572 OA
ATOM     22  C1  H1S d  69       4.521  -0.397   8.502  0.00  0.00     0.095 C 
ATOM     23  C24 H1S d  69       4.064   0.067  12.813  0.00  0.00    -0.034 C 
ATOM     24  C7  H1S d  69       5.540   0.733  10.525  0.00  0.00     0.167 C 
ATOM     25  O23 H1S d  69       4.734  -6.525   8.386  0.00  0.00    -0.572 OA
ATOM     26  C8  H1S d  69       6.059   0.430   6.714  0.00  0.00     0.081 C 
ATOM     27  C6  H1S d  69       4.645  -2.931   8.990  0.00  0.00     0.067 C 
ATOM     28  O11 H1S d  69       5.366  -4.175   8.658  0.00  0.00    -0.254 OA
ATOM     29  O29 H1S d  69       7.654   2.200   9.011  0.00  0.00    -0.296 OA
ATOM     30  C12 H1S d  69       4.936   1.931  11.278  0.00  0.00     0.135 C 
ATOM     31  C10 H1S d  69       5.545  -0.852   5.977  0.00  0.00     0.147 C 
ATOM     32  S16 H1S d  69       4.925  -5.200   7.693  0.00  0.00     0.251 S 
ATOM     33  C19 H1S d  69       5.186  -0.709  12.423  0.00  0.00     0.147 C 
ATOM     34  S26 H1S d  69       5.846   3.818  12.812  0.00  0.00     0.252 S 
ATOM     35  C27 H1S d  69       5.504  -2.024  13.150  0.00  0.00     0.233 C 
ATOM     36  H   H1S d  69       5.668  -1.802   4.140  0.00  0.00     0.212 HD
ATOM     37  H   H1S d  69       3.509   2.104  12.908  0.00  0.00     0.093 H 
ATOM     38  H   H1S d  69       9.979   0.851   7.175  0.00  0.00     0.231 HD
ATOM     39  H   H1S d  69       8.476   2.213   5.886  0.00  0.00     0.231 HD
ATOM     40  H   H1S d  69       6.266  -1.559   8.813  0.00  0.00     0.090 H 
ATOM     41  H   H1S d  69       5.474   1.531   8.413  0.00  0.00     0.089 H 
ATOM     42  H   H1S d  69       3.409   1.044   6.534  0.00  0.00     0.210 HD
ATOM     43  H   H1S d  69       2.769   0.743  10.523  0.00  0.00     0.210 HD
ATOM     44  H   H1S d  69       7.125  -0.262   8.315  0.00  0.00     0.140 HD
ATOM     45  H   H1S d  69       3.591  -0.749   8.107  0.00  0.00     0.091 H 
ATOM     46  H   H1S d  69       3.456  -0.272  13.574  0.00  0.00     0.085 H 
ATOM     47  H   H1S d  69       6.332   1.117   9.917  0.00  0.00     0.134 H 
ATOM     48  H   H1S d  69       6.228   1.184   5.974  0.00  0.00     0.076 H 
ATOM     49  H   H1S d  69       3.636  -3.002   8.641  0.00  0.00     0.080 H 
ATOM     50  H   H1S d  69       4.652  -2.793  10.051  0.00  0.00     0.080 H 
ATOM     51  H   H1S d  69       8.157   3.006   9.205  0.00  0.00     0.231 HD
ATOM     52  H   H1S d  69       4.608   2.676  10.583  0.00  0.00     0.097 H 
ATOM     53  H   H1S d  69       4.500  -0.759   5.773  0.00  0.00     0.131 H 
ENDROOT
TORSDOF 16
ENDMDL
MODEL 61
REMARK VINA RESULT:      -4.3      3.427      7.686
REMARK  0 active torsions:
REMARK  status: ('A' for Active; 'I' for Inactive)
REMARK       I    between atoms: O15_1  and  C10_31 
REMARK       I    between atoms: C17_4  and  O25_18 
REMARK       I    between atoms: O28_6  and  S20_15 
REMARK       I    between atoms: O3_7  and  C1_22 
REMARK       I    between atoms: O3_7  and  C7_24 
REMARK       I    between atoms: O30_8  and  S20_15 
REMARK       I    between atoms: C2_10  and  C6_27 
REMARK       I    between atoms: O18_13  and  C12_30 
REMARK       I    between atoms: O18_13  and  S26_34 
REMARK       I    between atoms: S20_15  and  N14_20 
REMARK       I    between atoms: S20_15  and  O29_29 
REMARK       I    between atoms: C4_16  and  O9_17 
REMARK       I    between atoms: N14_20  and  C8_26 
REMARK       I    between atoms: C6_27  and  O11_28 
REMARK       I    between atoms: O11_28  and  S16_32 
REMARK       I    between atoms: C19_33  and  C27_35 
ROOT
ATOM      1  O15 H1S d  69       0.575   5.143   8.906  0.00  0.00    -0.369 OA
ATOM      2  O22 H1S d  69       2.086   2.495   4.825  0.00  0.00    -0.572 OA
ATOM      3  O31 H1S d  69       5.904  -0.050  14.771  0.00  0.00    -0.572 OA
ATOM      4  C17 H1S d  69       5.752  -0.969  11.027  0.00  0.00     0.086 C 
ATOM      5  O5  H1S d  69       2.568   3.792   7.864  0.00  0.00    -0.350 OA
ATOM      6  O28 H1S d  69       4.996   6.125  11.960  0.00  0.00    -0.296 OA
ATOM      7  O3  H1S d  69       4.297   0.970   9.786  0.00  0.00    -0.348 OA
ATOM      8  O30 H1S d  69       3.023   5.270  12.908  0.00  0.00    -0.296 OA
ATOM      9  O32 H1S d  69       7.664  -1.263  13.625  0.00  0.00    -0.572 OA
ATOM     10  C2  H1S d  69       3.635   2.794   8.155  0.00  0.00     0.091 C 
ATOM     11  O35 H1S d  69       8.171   1.754   7.601  0.00  0.00    -0.642 OA
ATOM     12  O13 H1S d  69       6.471   1.640   9.770  0.00  0.00    -0.311 OA
ATOM     13  O18 H1S d  69       6.682   0.713  12.567  0.00  0.00    -0.244 OA
ATOM     14  O21 H1S d  69       2.932   4.773   4.622  0.00  0.00    -0.572 OA
ATOM     15  S20 H1S d  69       4.089   4.958  11.956  0.00  0.00     0.156 S 
ATOM     16  C4  H1S d  69       2.636   2.380  10.589  0.00  0.00     0.083 C 
ATOM     17  O9  H1S d  69       1.508   1.583  11.077  0.00  0.00    -0.391 OA
ATOM     18  O25 H1S d  69       4.467  -1.507  10.695  0.00  0.00    -0.389 OA
ATOM     19  O34 H1S d  69       8.456  -0.449   7.600  0.00  0.00    -0.642 OA
ATOM     20  N14 H1S d  69       3.572   4.623  10.435  0.00  0.00    -0.210 NA
ATOM     21  O33 H1S d  69       8.000   1.098  14.339  0.00  0.00    -0.572 OA
ATOM     22  C1  H1S d  69       3.232   1.792   9.296  0.00  0.00     0.095 C 
ATOM     23  C24 H1S d  69       6.696  -0.807   9.791  0.00  0.00    -0.034 C 
ATOM     24  C7  H1S d  69       5.329   1.474  10.676  0.00  0.00     0.167 C 
ATOM     25  O23 H1S d  69       4.029   3.045   3.345  0.00  0.00    -0.572 OA
ATOM     26  C8  H1S d  69       2.307   3.853  10.367  0.00  0.00     0.081 C 
ATOM     27  C6  H1S d  69       4.044   2.075   6.860  0.00  0.00     0.067 C 
ATOM     28  O11 H1S d  69       4.262   3.061   5.783  0.00  0.00    -0.254 OA
ATOM     29  O29 H1S d  69       4.835   3.784  12.502  0.00  0.00    -0.296 OA
ATOM     30  C12 H1S d  69       5.538   0.389  11.746  0.00  0.00     0.135 C 
ATOM     31  C10 H1S d  69       1.588   3.991   8.984  0.00  0.00     0.147 C 
ATOM     32  S16 H1S d  69       3.346   3.332   4.659  0.00  0.00     0.251 S 
ATOM     33  C19 H1S d  69       6.996   0.471   9.254  0.00  0.00     0.147 C 
ATOM     34  S26 H1S d  69       7.061   0.093  13.829  0.00  0.00     0.252 S 
ATOM     35  C27 H1S d  69       7.949   0.601   8.057  0.00  0.00     0.233 C 
ATOM     36  H   H1S d  69       0.175   5.162   8.023  0.00  0.00     0.212 HD
ATOM     37  H   H1S d  69       6.249  -1.665  11.671  0.00  0.00     0.093 H 
ATOM     38  H   H1S d  69       4.528   6.899  11.609  0.00  0.00     0.231 HD
ATOM     39  H   H1S d  69       2.513   6.030  12.586  0.00  0.00     0.231 HD
ATOM     40  H   H1S d  69       4.487   3.319   8.532  0.00  0.00     0.090 H 
ATOM     41  H   H1S d  69       3.360   2.331  11.376  0.00  0.00     0.089 H 
ATOM     42  H   H1S d  69       0.804   1.580  10.411  0.00  0.00     0.210 HD
ATOM     43  H   H1S d  69       4.000  -0.890  10.111  0.00  0.00     0.210 HD
ATOM     44  H   H1S d  69       4.298   4.084   9.964  0.00  0.00     0.140 HD
ATOM     45  H   H1S d  69       2.489   1.253   8.746  0.00  0.00     0.091 H 
ATOM     46  H   H1S d  69       7.111  -1.647   9.358  0.00  0.00     0.085 H 
ATOM     47  H   H1S d  69       5.130   2.387  11.197  0.00  0.00     0.134 H 
ATOM     48  H   H1S d  69       1.648   4.239  11.116  0.00  0.00     0.076 H 
ATOM     49  H   H1S d  69       3.267   1.400   6.569  0.00  0.00     0.080 H 
ATOM     50  H   H1S d  69       4.951   1.534   7.030  0.00  0.00     0.080 H 
ATOM     51  H   H1S d  69       5.140   3.984  13.401  0.00  0.00     0.231 HD
ATOM     52  H   H1S d  69       4.681   0.329  12.385  0.00  0.00     0.097 H 
ATOM     53  H   H1S d  69       0.898   3.185   8.851  0.00  0.00     0.131 H 
ENDROOT
TORSDOF 16
ENDMDL
MODEL 62
REMARK VINA RESULT:      -4.3      2.516      6.927
REMARK  0 active torsions:
REMARK  status: ('A' for Active; 'I' for Inactive)
REMARK       I    between atoms: O15_1  and  C10_31 
REMARK       I    between atoms: C17_4  and  O25_18 
REMARK       I    between atoms: O28_6  and  S20_15 
REMARK       I    between atoms: O3_7  and  C1_22 
REMARK       I    between atoms: O3_7  and  C7_24 
REMARK       I    between atoms: O30_8  and  S20_15 
REMARK       I    between atoms: C2_10  and  C6_27 
REMARK       I    between atoms: O18_13  and  C12_30 
REMARK       I    between atoms: O18_13  and  S26_34 
REMARK       I    between atoms: S20_15  and  N14_20 
REMARK       I    between atoms: S20_15  and  O29_29 
REMARK       I    between atoms: C4_16  and  O9_17 
REMARK       I    between atoms: N14_20  and  C8_26 
REMARK       I    between atoms: C6_27  and  O11_28 
REMARK       I    between atoms: O11_28  and  S16_32 
REMARK       I    between atoms: C19_33  and  C27_35 
ROOT
ATOM      1  O15 H1S d  69       4.776   0.583   7.288  0.00  0.00    -0.369 OA
ATOM      2  O22 H1S d  69       3.430  -4.250   6.406  0.00  0.00    -0.572 OA
ATOM      3  O31 H1S d  69       7.431  -1.337  16.177  0.00  0.00    -0.572 OA
ATOM      4  C17 H1S d  69       5.856  -4.123  14.022  0.00  0.00     0.086 C 
ATOM      5  O5  H1S d  69       5.303  -1.916   7.888  0.00  0.00    -0.350 OA
ATOM      6  O28 H1S d  69       9.553   0.504   9.936  0.00  0.00    -0.296 OA
ATOM      7  O3  H1S d  69       5.519  -3.102  11.519  0.00  0.00    -0.348 OA
ATOM      8  O30 H1S d  69       7.757   1.814  10.697  0.00  0.00    -0.296 OA
ATOM      9  O32 H1S d  69       7.829  -3.699  16.556  0.00  0.00    -0.572 OA
ATOM     10  C2  H1S d  69       5.639  -2.847   9.001  0.00  0.00     0.091 C 
ATOM     11  O35 H1S d  69       8.453  -6.336  10.367  0.00  0.00    -0.642 OA
ATOM     12  O13 H1S d  69       7.598  -4.023  11.600  0.00  0.00    -0.311 OA
ATOM     13  O18 H1S d  69       7.928  -2.815  14.276  0.00  0.00    -0.244 OA
ATOM     14  O21 H1S d  69       5.343  -3.713   4.993  0.00  0.00    -0.572 OA
ATOM     15  S20 H1S d  69       8.176   0.432  10.466  0.00  0.00     0.156 S 
ATOM     16  C4  H1S d  69       5.226  -0.918  10.790  0.00  0.00     0.083 C 
ATOM     17  O9  H1S d  69       4.010  -0.360  11.384  0.00  0.00    -0.391 OA
ATOM     18  O25 H1S d  69       4.462  -3.871  13.819  0.00  0.00    -0.389 OA
ATOM     19  O34 H1S d  69       7.416  -7.617  11.857  0.00  0.00    -0.642 OA
ATOM     20  N14 H1S d  69       7.202  -0.419   9.456  0.00  0.00    -0.210 NA
ATOM     21  O33 H1S d  69       9.619  -2.238  15.631  0.00  0.00    -0.572 OA
ATOM     22  C1  H1S d  69       5.034  -2.389  10.376  0.00  0.00     0.095 C 
ATOM     23  C24 H1S d  69       6.381  -5.378  13.251  0.00  0.00    -0.034 C 
ATOM     24  C7  H1S d  69       6.835  -2.868  12.088  0.00  0.00     0.167 C 
ATOM     25  O23 H1S d  69       4.895  -6.040   5.449  0.00  0.00    -0.572 OA
ATOM     26  C8  H1S d  69       5.756  -0.126   9.598  0.00  0.00     0.081 C 
ATOM     27  C6  H1S d  69       5.226  -4.279   8.625  0.00  0.00     0.067 C 
ATOM     28  O11 H1S d  69       5.693  -4.598   7.261  0.00  0.00    -0.254 OA
ATOM     29  O29 H1S d  69       8.224  -0.241  11.801  0.00  0.00    -0.296 OA
ATOM     30  C12 H1S d  69       6.644  -2.850  13.615  0.00  0.00     0.135 C 
ATOM     31  C10 H1S d  69       4.929  -0.532   8.333  0.00  0.00     0.147 C 
ATOM     32  S16 H1S d  69       4.852  -4.657   6.050  0.00  0.00     0.251 S 
ATOM     33  C19 H1S d  69       7.212  -5.248  12.108  0.00  0.00     0.147 C 
ATOM     34  S26 H1S d  69       8.183  -2.535  15.682  0.00  0.00     0.252 S 
ATOM     35  C27 H1S d  69       7.734  -6.500  11.388  0.00  0.00     0.233 C 
ATOM     36  H   H1S d  69       4.255   0.255   6.539  0.00  0.00     0.212 HD
ATOM     37  H   H1S d  69       6.007  -4.346  15.058  0.00  0.00     0.093 H 
ATOM     38  H   H1S d  69       9.543   0.938   9.068  0.00  0.00     0.231 HD
ATOM     39  H   H1S d  69       7.713   2.285   9.850  0.00  0.00     0.231 HD
ATOM     40  H   H1S d  69       6.700  -2.829   9.141  0.00  0.00     0.090 H 
ATOM     41  H   H1S d  69       5.959  -0.853  11.566  0.00  0.00     0.089 H 
ATOM     42  H   H1S d  69       3.291  -0.385  10.734  0.00  0.00     0.210 HD
ATOM     43  H   H1S d  69       4.304  -3.665  12.884  0.00  0.00     0.210 HD
ATOM     44  H   H1S d  69       7.344  -1.412   9.638  0.00  0.00     0.140 HD
ATOM     45  H   H1S d  69       4.009  -2.589  10.146  0.00  0.00     0.091 H 
ATOM     46  H   H1S d  69       6.117  -6.320  13.579  0.00  0.00     0.085 H 
ATOM     47  H   H1S d  69       7.331  -1.956  11.828  0.00  0.00     0.134 H 
ATOM     48  H   H1S d  69       5.647   0.930   9.732  0.00  0.00     0.076 H 
ATOM     49  H   H1S d  69       4.160  -4.362   8.663  0.00  0.00     0.080 H 
ATOM     50  H   H1S d  69       5.668  -4.965   9.317  0.00  0.00     0.080 H 
ATOM     51  H   H1S d  69       8.799   0.264  12.397  0.00  0.00     0.231 HD
ATOM     52  H   H1S d  69       6.099  -1.977  13.908  0.00  0.00     0.097 H 
ATOM     53  H   H1S d  69       3.895  -0.630   8.590  0.00  0.00     0.131 H 
ENDROOT
TORSDOF 16
ENDMDL
MODEL 63
REMARK VINA RESULT:      -4.2      3.490      5.740
REMARK  0 active torsions:
REMARK  status: ('A' for Active; 'I' for Inactive)
REMARK       I    between atoms: O15_1  and  C10_31 
REMARK       I    between atoms: C17_4  and  O25_18 
REMARK       I    between atoms: O28_6  and  S20_15 
REMARK       I    between atoms: O3_7  and  C1_22 
REMARK       I    between atoms: O3_7  and  C7_24 
REMARK       I    between atoms: O30_8  and  S20_15 
REMARK       I    between atoms: C2_10  and  C6_27 
REMARK       I    between atoms: O18_13  and  C12_30 
REMARK       I    between atoms: O18_13  and  S26_34 
REMARK       I    between atoms: S20_15  and  N14_20 
REMARK       I    between atoms: S20_15  and  O29_29 
REMARK       I    between atoms: C4_16  and  O9_17 
REMARK       I    between atoms: N14_20  and  C8_26 
REMARK       I    between atoms: C6_27  and  O11_28 
REMARK       I    between atoms: O11_28  and  S16_32 
REMARK       I    between atoms: C19_33  and  C27_35 
ROOT
ATOM      1  O15 H1S d  69       2.875   0.875  12.700  0.00  0.00    -0.369 OA
ATOM      2  O22 H1S d  69       6.537  -2.644  12.301  0.00  0.00    -0.572 OA
ATOM      3  O31 H1S d  69       5.250   4.888   4.452  0.00  0.00    -0.572 OA
ATOM      4  C17 H1S d  69       7.359   1.958   5.816  0.00  0.00     0.086 C 
ATOM      5  O5  H1S d  69       4.271  -0.562  11.005  0.00  0.00    -0.350 OA
ATOM      6  O28 H1S d  69       0.476   1.315   7.812  0.00  0.00    -0.296 OA
ATOM      7  O3  H1S d  69       6.102   1.042   8.053  0.00  0.00    -0.348 OA
ATOM      8  O30 H1S d  69       1.179   3.215   9.002  0.00  0.00    -0.296 OA
ATOM      9  O32 H1S d  69       6.576   3.430   3.038  0.00  0.00    -0.572 OA
ATOM     10  C2  H1S d  69       4.997  -0.530   9.705  0.00  0.00     0.091 C 
ATOM     11  O35 H1S d  69       5.668  -2.744   5.629  0.00  0.00    -0.642 OA
ATOM     12  O13 H1S d  69       5.245  -0.097   6.280  0.00  0.00    -0.311 OA
ATOM     13  O18 H1S d  69       5.174   2.453   4.791  0.00  0.00    -0.244 OA
ATOM     14  O21 H1S d  69       4.375  -3.762  12.166  0.00  0.00    -0.572 OA
ATOM     15  S20 H1S d  69       1.670   2.003   8.346  0.00  0.00     0.156 S 
ATOM     16  C4  H1S d  69       4.695   2.112   9.557  0.00  0.00     0.083 C 
ATOM     17  O9  H1S d  69       5.403   3.229  10.185  0.00  0.00    -0.391 OA
ATOM     18  O25 H1S d  69       8.111   2.373   6.961  0.00  0.00    -0.389 OA
ATOM     19  O34 H1S d  69       7.705  -2.318   4.853  0.00  0.00    -0.642 OA
ATOM     20  N14 H1S d  69       2.539   1.004   9.315  0.00  0.00    -0.210 NA
ATOM     21  O33 H1S d  69       4.090   3.304   3.023  0.00  0.00    -0.572 OA
ATOM     22  C1  H1S d  69       5.606   0.883   9.386  0.00  0.00     0.095 C 
ATOM     23  C24 H1S d  69       7.510   0.436   5.490  0.00  0.00    -0.034 C 
ATOM     24  C7  H1S d  69       5.226   1.229   6.908  0.00  0.00     0.167 C 
ATOM     25  O23 H1S d  69       6.298  -4.913  11.271  0.00  0.00    -0.572 OA
ATOM     26  C8  H1S d  69       3.420   1.696  10.285  0.00  0.00     0.081 C 
ATOM     27  C6  H1S d  69       6.053  -1.646   9.670  0.00  0.00     0.067 C 
ATOM     28  O11 H1S d  69       5.458  -2.918  10.125  0.00  0.00    -0.254 OA
ATOM     29  O29 H1S d  69       2.513   2.440   7.191  0.00  0.00    -0.296 OA
ATOM     30  C12 H1S d  69       5.871   2.331   6.051  0.00  0.00     0.135 C 
ATOM     31  C10 H1S d  69       3.822   0.785  11.493  0.00  0.00     0.147 C 
ATOM     32  S16 H1S d  69       5.671  -3.552  11.440  0.00  0.00     0.251 S 
ATOM     33  C19 H1S d  69       6.455  -0.480   5.734  0.00  0.00     0.147 C 
ATOM     34  S26 H1S d  69       5.301   3.530   3.819  0.00  0.00     0.252 S 
ATOM     35  C27 H1S d  69       6.624  -1.964   5.377  0.00  0.00     0.233 C 
ATOM     36  H   H1S d  69       3.190   0.285  13.402  0.00  0.00     0.212 HD
ATOM     37  H   H1S d  69       7.746   2.469   4.959  0.00  0.00     0.093 H 
ATOM     38  H   H1S d  69      -0.085   1.023   8.548  0.00  0.00     0.231 HD
ATOM     39  H   H1S d  69       0.626   2.971   9.761  0.00  0.00     0.231 HD
ATOM     40  H   H1S d  69       4.289  -0.712   8.924  0.00  0.00     0.090 H 
ATOM     41  H   H1S d  69       4.404   2.484   8.596  0.00  0.00     0.089 H 
ATOM     42  H   H1S d  69       5.701   2.967  11.069  0.00  0.00     0.210 HD
ATOM     43  H   H1S d  69       7.774   1.920   7.750  0.00  0.00     0.210 HD
ATOM     44  H   H1S d  69       3.122   0.413   8.722  0.00  0.00     0.140 HD
ATOM     45  H   H1S d  69       6.373   0.871  10.133  0.00  0.00     0.091 H 
ATOM     46  H   H1S d  69       8.396   0.091   5.089  0.00  0.00     0.085 H 
ATOM     47  H   H1S d  69       4.220   1.536   7.101  0.00  0.00     0.134 H 
ATOM     48  H   H1S d  69       2.883   2.535  10.675  0.00  0.00     0.076 H 
ATOM     49  H   H1S d  69       6.866  -1.385  10.315  0.00  0.00     0.080 H 
ATOM     50  H   H1S d  69       6.407  -1.763   8.667  0.00  0.00     0.080 H 
ATOM     51  H   H1S d  69       1.997   3.031   6.619  0.00  0.00     0.231 HD
ATOM     52  H   H1S d  69       5.810   3.274   6.554  0.00  0.00     0.097 H 
ATOM     53  H   H1S d  69       4.696   1.177  11.968  0.00  0.00     0.131 H 
ENDROOT
TORSDOF 16
ENDMDL
MODEL 64
REMARK VINA RESULT:      -4.2      2.534      6.232
REMARK  0 active torsions:
REMARK  status: ('A' for Active; 'I' for Inactive)
REMARK       I    between atoms: O15_1  and  C10_31 
REMARK       I    between atoms: C17_4  and  O25_18 
REMARK       I    between atoms: O28_6  and  S20_15 
REMARK       I    between atoms: O3_7  and  C1_22 
REMARK       I    between atoms: O3_7  and  C7_24 
REMARK       I    between atoms: O30_8  and  S20_15 
REMARK       I    between atoms: C2_10  and  C6_27 
REMARK       I    between atoms: O18_13  and  C12_30 
REMARK       I    between atoms: O18_13  and  S26_34 
REMARK       I    between atoms: S20_15  and  N14_20 
REMARK       I    between atoms: S20_15  and  O29_29 
REMARK       I    between atoms: C4_16  and  O9_17 
REMARK       I    between atoms: N14_20  and  C8_26 
REMARK       I    between atoms: C6_27  and  O11_28 
REMARK       I    between atoms: O11_28  and  S16_32 
REMARK       I    between atoms: C19_33  and  C27_35 
ROOT
ATOM      1  O15 H1S d  69       6.230  -5.203   9.995  0.00  0.00    -0.369 OA
ATOM      2  O22 H1S d  69       4.355  -3.943  14.562  0.00  0.00    -0.572 OA
ATOM      3  O31 H1S d  69       4.631   3.450   6.483  0.00  0.00    -0.572 OA
ATOM      4  C17 H1S d  69       3.497   2.620  10.076  0.00  0.00     0.086 C 
ATOM      5  O5  H1S d  69       5.928  -3.233  11.702  0.00  0.00    -0.350 OA
ATOM      6  O28 H1S d  69       9.411  -1.087   8.329  0.00  0.00    -0.296 OA
ATOM      7  O3  H1S d  69       4.415   0.119  10.647  0.00  0.00    -0.348 OA
ATOM      8  O30 H1S d  69       7.784  -2.022   6.914  0.00  0.00    -0.296 OA
ATOM      9  O32 H1S d  69       4.332   5.130   8.207  0.00  0.00    -0.572 OA
ATOM     10  C2  H1S d  69       5.584  -1.790  11.834  0.00  0.00     0.091 C 
ATOM     11  O35 H1S d  69       6.805   2.280  13.811  0.00  0.00    -0.642 OA
ATOM     12  O13 H1S d  69       6.040   1.591  11.253  0.00  0.00    -0.311 OA
ATOM     13  O18 H1S d  69       5.520   3.058   8.742  0.00  0.00    -0.244 OA
ATOM     14  O21 H1S d  69       6.740  -4.387  14.803  0.00  0.00    -0.572 OA
ATOM     15  S20 H1S d  69       7.956  -1.284   8.166  0.00  0.00     0.156 S 
ATOM     16  C4  H1S d  69       4.910  -1.676   9.260  0.00  0.00     0.083 C 
ATOM     17  O9  H1S d  69       3.707  -2.080   8.531  0.00  0.00    -0.391 OA
ATOM     18  O25 H1S d  69       2.389   1.713  10.056  0.00  0.00    -0.389 OA
ATOM     19  O34 H1S d  69       5.012   3.561  14.095  0.00  0.00    -0.642 OA
ATOM     20  N14 H1S d  69       7.312  -2.015   9.486  0.00  0.00    -0.210 NA
ATOM     21  O33 H1S d  69       6.608   4.505   7.419  0.00  0.00    -0.572 OA
ATOM     22  C1  H1S d  69       4.592  -1.299  10.719  0.00  0.00     0.095 C 
ATOM     23  C24 H1S d  69       4.007   2.946  11.519  0.00  0.00    -0.034 C 
ATOM     24  C7  H1S d  69       5.411   1.004  10.065  0.00  0.00     0.167 C 
ATOM     25  O23 H1S d  69       5.665  -3.050  16.499  0.00  0.00    -0.572 OA
ATOM     26  C8  H1S d  69       6.027  -2.714   9.241  0.00  0.00     0.081 C 
ATOM     27  C6  H1S d  69       5.063  -1.506  13.251  0.00  0.00     0.067 C 
ATOM     28  O11 H1S d  69       5.957  -2.122  14.252  0.00  0.00    -0.254 OA
ATOM     29  O29 H1S d  69       7.322   0.057   7.976  0.00  0.00    -0.296 OA
ATOM     30  C12 H1S d  69       4.633   2.018   9.208  0.00  0.00     0.135 C 
ATOM     31  C10 H1S d  69       5.711  -3.795  10.327  0.00  0.00     0.147 C 
ATOM     32  S16 H1S d  69       5.679  -3.350  15.021  0.00  0.00     0.251 S 
ATOM     33  C19 H1S d  69       5.233   2.422  12.005  0.00  0.00     0.147 C 
ATOM     34  S26 H1S d  69       5.245   4.050   7.712  0.00  0.00     0.252 S 
ATOM     35  C27 H1S d  69       5.720   2.783  13.416  0.00  0.00     0.233 C 
ATOM     36  H   H1S d  69       5.995  -5.812  10.713  0.00  0.00     0.212 HD
ATOM     37  H   H1S d  69       3.170   3.556   9.676  0.00  0.00     0.093 H 
ATOM     38  H   H1S d  69       9.842  -1.948   8.454  0.00  0.00     0.231 HD
ATOM     39  H   H1S d  69       8.184  -2.901   7.000  0.00  0.00     0.231 HD
ATOM     40  H   H1S d  69       6.478  -1.220  11.684  0.00  0.00     0.090 H 
ATOM     41  H   H1S d  69       5.267  -0.816   8.734  0.00  0.00     0.089 H 
ATOM     42  H   H1S d  69       3.321  -2.864   8.952  0.00  0.00     0.210 HD
ATOM     43  H   H1S d  69       2.666   0.856  10.416  0.00  0.00     0.210 HD
ATOM     44  H   H1S d  69       7.154  -1.304  10.200  0.00  0.00     0.140 HD
ATOM     45  H   H1S d  69       3.728  -1.825  11.068  0.00  0.00     0.091 H 
ATOM     46  H   H1S d  69       3.440   3.554  12.130  0.00  0.00     0.085 H 
ATOM     47  H   H1S d  69       6.151   0.565   9.429  0.00  0.00     0.134 H 
ATOM     48  H   H1S d  69       6.101  -3.214   8.297  0.00  0.00     0.076 H 
ATOM     49  H   H1S d  69       4.080  -1.915  13.356  0.00  0.00     0.080 H 
ATOM     50  H   H1S d  69       5.034  -0.448  13.410  0.00  0.00     0.080 H 
ATOM     51  H   H1S d  69       7.704   0.487   7.195  0.00  0.00     0.231 HD
ATOM     52  H   H1S d  69       4.215   1.533   8.351  0.00  0.00     0.097 H 
ATOM     53  H   H1S d  69       4.666  -4.023  10.319  0.00  0.00     0.131 H 
ENDROOT
TORSDOF 16
ENDMDL
