MODEL 1
REMARK VINA RESULT:      -9.2      0.000      0.000
REMARK  0 active torsions:
REMARK  status: ('A' for Active; 'I' for Inactive)
REMARK       I    between atoms: C2_1  and  O2_14 
REMARK       I    between atoms: O3_4  and  C3_18 
REMARK       I    between atoms: C4_5  and  O4_13 
REMARK       I    between atoms: C7_7  and  C8_21 
REMARK       I    between atoms: C7_7  and  N2_15 
REMARK       I    between atoms: O3_8  and  C1_12 
REMARK       I    between atoms: O3_8  and  C3_26 
REMARK       I    between atoms: C1_9  and  O1_11 
REMARK       I    between atoms: C6_10  and  C5_25 
REMARK       I    between atoms: C6_10  and  O6_20 
REMARK       I    between atoms: N2_15  and  C2_23 
REMARK       I    between atoms: C6_16  and  C5_17 
ROOT
ATOM      1  C2  GC4 d1769      26.223  17.684  29.698  0.00  0.00     0.107 C 
ATOM      2  O6B GC4 d1769      24.722  22.417  29.621  0.00  0.00    -0.646 OA
ATOM      3  O3  GC4 d1769      24.216  16.698  28.765  0.00  0.00    -0.393 OA
ATOM      4  O5  GC4 d1769      26.096  20.125  29.822  0.00  0.00    -0.343 OA
ATOM      5  C1  GC4 d1769      27.005  19.005  29.671  0.00  0.00     0.159 C 
ATOM      6  O2  GC4 d1769      27.088  16.551  29.646  0.00  0.00    -0.388 OA
ATOM      7  C6  GC4 d1769      24.496  21.566  28.724  0.00  0.00     0.203 C 
ATOM      8  C5  GC4 d1769      25.290  20.291  28.672  0.00  0.00     0.127 C 
ATOM      9  C3  GC4 d1769      25.216  17.698  28.540  0.00  0.00     0.068 C 
ATOM     10  C4  GC4 d1769      24.493  19.026  28.329  0.00  0.00    -0.005 C 
ATOM     11  O6A GC4 d1769      23.687  21.825  27.823  0.00  0.00    -0.646 OA
ATOM     12  H   GC4 d1769      25.696  17.598  30.625  0.00  0.00     0.094 H 
ATOM     13  H   GC4 d1769      24.644  15.838  28.903  0.00  0.00     0.210 HD
ATOM     14  H   GC4 d1769      27.491  19.042  28.718  0.00  0.00     0.133 H 
ATOM     15  H   GC4 d1769      27.598  16.571  28.821  0.00  0.00     0.210 HD
ATOM     16  H   GC4 d1769      25.936  20.418  27.829  0.00  0.00     0.100 H 
ATOM     17  H   GC4 d1769      25.802  17.514  27.662  0.00  0.00     0.087 H 
ATOM     18  H   GC4 d1769      24.213  19.086  27.298  0.00  0.00     0.041 H 
ATOM     19  H   GC4 d1769      23.666  19.014  29.007  0.00  0.00     0.041 H 
ATOM     20  O5  NAG d1770      31.596  21.179  30.885  0.00  0.00    -0.349 OA
ATOM     21  C4  NAG d1770      29.368  20.772  31.702  0.00  0.00     0.089 C 
ATOM     22  C7  NAG d1770      30.095  17.351  28.531  0.00  0.00     0.214 C 
ATOM     23  O3  NAG d1770      27.998  19.083  30.619  0.00  0.00    -0.348 OA
ATOM     24  C1  NAG d1770      31.349  20.485  29.644  0.00  0.00     0.151 C 
ATOM     25  C6  NAG d1770      30.832  22.642  32.636  0.00  0.00     0.043 C 
ATOM     26  O1  NAG d1770      32.562  19.957  29.285  0.00  0.00    -0.369 OA
ATOM     27  O4  NAG d1770      28.228  21.445  32.194  0.00  0.00    -0.390 OA
ATOM     28  N2  NAG d1770      30.002  18.654  28.589  0.00  0.00    -0.349 N 
ATOM     29  O6  NAG d1770      31.298  21.726  33.581  0.00  0.00    -0.398 OA
ATOM     30  C8  NAG d1770      29.700  16.781  27.153  0.00  0.00    -0.003 C 
ATOM     31  O7  NAG d1770      30.496  16.665  29.520  0.00  0.00    -0.274 OA
ATOM     32  C2  NAG d1770      30.304  19.403  29.776  0.00  0.00     0.087 C 
ATOM     33  C5  NAG d1770      30.436  21.782  31.406  0.00  0.00     0.089 C 
ATOM     34  C3  NAG d1770      29.057  20.004  30.408  0.00  0.00     0.093 C 
ATOM     35  H   NAG d1770      29.687  20.072  32.445  0.00  0.00     0.091 H 
ATOM     36  H   NAG d1770      30.958  21.154  28.906  0.00  0.00     0.132 H 
ATOM     37  H   NAG d1770      29.984  23.173  33.013  0.00  0.00     0.078 H 
ATOM     38  H   NAG d1770      31.570  23.378  32.391  0.00  0.00     0.078 H 
ATOM     39  H   NAG d1770      32.873  19.360  29.982  0.00  0.00     0.212 HD
ATOM     40  H   NAG d1770      27.921  22.086  31.534  0.00  0.00     0.210 HD
ATOM     41  H   NAG d1770      29.712  19.142  27.784  0.00  0.00     0.163 HD
ATOM     42  H   NAG d1770      30.602  21.079  33.774  0.00  0.00     0.209 HD
ATOM     43  H   NAG d1770      29.401  17.581  26.509  0.00  0.00     0.040 H 
ATOM     44  H   NAG d1770      28.888  16.095  27.270  0.00  0.00     0.040 H 
ATOM     45  H   NAG d1770      30.538  16.272  26.724  0.00  0.00     0.040 H 
ATOM     46  H   NAG d1770      30.734  18.655  30.409  0.00  0.00     0.084 H 
ATOM     47  H   NAG d1770      30.002  22.430  30.674  0.00  0.00     0.090 H 
ATOM     48  H   NAG d1770      28.706  20.698  29.673  0.00  0.00     0.091 H 
ENDROOT
TORSDOF 11
ENDMDL
MODEL 2
REMARK VINA RESULT:      -9.0      2.183      2.581
REMARK  0 active torsions:
REMARK  status: ('A' for Active; 'I' for Inactive)
REMARK       I    between atoms: C2_1  and  O2_14 
REMARK       I    between atoms: O3_4  and  C3_18 
REMARK       I    between atoms: C4_5  and  O4_13 
REMARK       I    between atoms: C7_7  and  C8_21 
REMARK       I    between atoms: C7_7  and  N2_15 
REMARK       I    between atoms: O3_8  and  C1_12 
REMARK       I    between atoms: O3_8  and  C3_26 
REMARK       I    between atoms: C1_9  and  O1_11 
REMARK       I    between atoms: C6_10  and  C5_25 
REMARK       I    between atoms: C6_10  and  O6_20 
REMARK       I    between atoms: N2_15  and  C2_23 
REMARK       I    between atoms: C6_16  and  C5_17 
ROOT
ATOM      1  C2  GC4 d1769      26.071  15.648  29.533  0.00  0.00     0.107 C 
ATOM      2  O6B GC4 d1769      22.411  18.981  29.929  0.00  0.00    -0.646 OA
ATOM      3  O3  GC4 d1769      24.825  13.947  28.339  0.00  0.00    -0.393 OA
ATOM      4  O5  GC4 d1769      24.745  17.662  29.947  0.00  0.00    -0.343 OA
ATOM      5  C1  GC4 d1769      26.091  17.170  29.726  0.00  0.00     0.159 C 
ATOM      6  O2  GC4 d1769      27.385  15.109  29.405  0.00  0.00    -0.388 OA
ATOM      7  C6  GC4 d1769      22.642  18.269  28.920  0.00  0.00     0.203 C 
ATOM      8  C5  GC4 d1769      23.965  17.573  28.770  0.00  0.00     0.127 C 
ATOM      9  C3  GC4 d1769      25.194  15.331  28.313  0.00  0.00     0.068 C 
ATOM     10  C4  GC4 d1769      23.906  16.144  28.215  0.00  0.00    -0.005 C 
ATOM     11  O6A GC4 d1769      21.814  18.222  28.000  0.00  0.00    -0.646 OA
ATOM     12  H   GC4 d1769      25.654  15.181  30.401  0.00  0.00     0.094 H 
ATOM     13  H   GC4 d1769      25.623  13.399  28.401  0.00  0.00     0.210 HD
ATOM     14  H   GC4 d1769      26.496  17.579  28.825  0.00  0.00     0.133 H 
ATOM     15  H   GC4 d1769      27.820  15.496  28.629  0.00  0.00     0.210 HD
ATOM     16  H   GC4 d1769      24.465  18.122  27.999  0.00  0.00     0.100 H 
ATOM     17  H   GC4 d1769      25.796  15.587  27.466  0.00  0.00     0.087 H 
ATOM     18  H   GC4 d1769      23.636  16.207  27.181  0.00  0.00     0.041 H 
ATOM     19  H   GC4 d1769      23.193  15.629  28.824  0.00  0.00     0.041 H 
ATOM     20  O5  NAG d1770      28.985  21.123  31.537  0.00  0.00    -0.349 OA
ATOM     21  C4  NAG d1770      27.254  19.558  32.130  0.00  0.00     0.089 C 
ATOM     22  C7  NAG d1770      29.597  17.437  28.624  0.00  0.00     0.214 C 
ATOM     23  O3  NAG d1770      26.910  17.590  30.748  0.00  0.00    -0.348 OA
ATOM     24  C1  NAG d1770      29.120  20.585  30.205  0.00  0.00     0.151 C 
ATOM     25  C6  NAG d1770      27.589  21.751  33.393  0.00  0.00     0.043 C 
ATOM     26  O1  NAG d1770      30.436  20.780  29.874  0.00  0.00    -0.369 OA
ATOM     27  O4  NAG d1770      25.929  19.504  32.615  0.00  0.00    -0.390 OA
ATOM     28  N2  NAG d1770      28.867  18.501  28.835  0.00  0.00    -0.349 N 
ATOM     29  O6  NAG d1770      28.447  21.058  34.250  0.00  0.00    -0.398 OA
ATOM     30  C8  NAG d1770      29.542  16.952  27.160  0.00  0.00    -0.003 C 
ATOM     31  O7  NAG d1770      30.284  16.904  29.548  0.00  0.00    -0.274 OA
ATOM     32  C2  NAG d1770      28.753  19.123  30.124  0.00  0.00     0.087 C 
ATOM     33  C5  NAG d1770      27.677  20.994  32.040  0.00  0.00     0.089 C 
ATOM     34  C3  NAG d1770      27.370  18.933  30.731  0.00  0.00     0.093 C 
ATOM     35  H   NAG d1770      27.877  19.008  32.803  0.00  0.00     0.091 H 
ATOM     36  H   NAG d1770      28.450  21.072  29.528  0.00  0.00     0.132 H 
ATOM     37  H   NAG d1770      26.588  21.735  33.769  0.00  0.00     0.078 H 
ATOM     38  H   NAG d1770      27.862  22.781  33.297  0.00  0.00     0.078 H 
ATOM     39  H   NAG d1770      31.001  20.321  30.513  0.00  0.00     0.212 HD
ATOM     40  H   NAG d1770      25.345  19.998  32.018  0.00  0.00     0.210 HD
ATOM     41  H   NAG d1770      28.375  18.893  28.077  0.00  0.00     0.163 HD
ATOM     42  H   NAG d1770      28.165  20.132  34.309  0.00  0.00     0.209 HD
ATOM     43  H   NAG d1770      28.887  17.584  26.599  0.00  0.00     0.040 H 
ATOM     44  H   NAG d1770      29.179  15.946  27.131  0.00  0.00     0.040 H 
ATOM     45  H   NAG d1770      30.524  16.989  26.735  0.00  0.00     0.040 H 
ATOM     46  H   NAG d1770      29.496  18.601  30.690  0.00  0.00     0.084 H 
ATOM     47  H   NAG d1770      26.980  21.442  31.364  0.00  0.00     0.090 H 
ATOM     48  H   NAG d1770      26.722  19.461  30.064  0.00  0.00     0.091 H 
ENDROOT
TORSDOF 11
ENDMDL
MODEL 3
REMARK VINA RESULT:      -8.9      1.778      5.995
REMARK  0 active torsions:
REMARK  status: ('A' for Active; 'I' for Inactive)
REMARK       I    between atoms: C2_1  and  O2_14 
REMARK       I    between atoms: O3_4  and  C3_18 
REMARK       I    between atoms: C4_5  and  O4_13 
REMARK       I    between atoms: C7_7  and  C8_21 
REMARK       I    between atoms: C7_7  and  N2_15 
REMARK       I    between atoms: O3_8  and  C1_12 
REMARK       I    between atoms: O3_8  and  C3_26 
REMARK       I    between atoms: C1_9  and  O1_11 
REMARK       I    between atoms: C6_10  and  C5_25 
REMARK       I    between atoms: C6_10  and  O6_20 
REMARK       I    between atoms: N2_15  and  C2_23 
REMARK       I    between atoms: C6_16  and  C5_17 
ROOT
ATOM      1  C2  GC4 d1769      30.032  20.395  29.025  0.00  0.00     0.107 C 
ATOM      2  O6B GC4 d1769      26.599  21.946  32.261  0.00  0.00    -0.646 OA
ATOM      3  O3  GC4 d1769      31.934  21.528  30.011  0.00  0.00    -0.393 OA
ATOM      4  O5  GC4 d1769      27.974  20.735  30.304  0.00  0.00    -0.343 OA
ATOM      5  C1  GC4 d1769      28.673  19.810  29.433  0.00  0.00     0.159 C 
ATOM      6  O2  GC4 d1769      30.714  19.560  28.092  0.00  0.00    -0.388 OA
ATOM      7  C6  GC4 d1769      27.773  21.602  32.552  0.00  0.00     0.203 C 
ATOM      8  C5  GC4 d1769      28.598  20.817  31.571  0.00  0.00     0.127 C 
ATOM      9  C3  GC4 d1769      30.855  20.632  30.299  0.00  0.00     0.068 C 
ATOM     10  C4  GC4 d1769      30.074  21.222  31.472  0.00  0.00    -0.005 C 
ATOM     11  O6A GC4 d1769      28.213  21.826  33.688  0.00  0.00    -0.646 OA
ATOM     12  H   GC4 d1769      29.885  21.327  28.519  0.00  0.00     0.094 H 
ATOM     13  H   GC4 d1769      32.453  21.182  29.268  0.00  0.00     0.210 HD
ATOM     14  H   GC4 d1769      28.886  18.897  29.947  0.00  0.00     0.133 H 
ATOM     15  H   GC4 d1769      30.879  18.692  28.494  0.00  0.00     0.210 HD
ATOM     16  H   GC4 d1769      28.634  19.833  31.988  0.00  0.00     0.100 H 
ATOM     17  H   GC4 d1769      31.188  19.659  30.598  0.00  0.00     0.087 H 
ATOM     18  H   GC4 d1769      30.558  20.915  32.375  0.00  0.00     0.041 H 
ATOM     19  H   GC4 d1769      30.072  22.279  31.312  0.00  0.00     0.041 H 
ATOM     20  O5  NAG d1770      24.785  16.726  27.806  0.00  0.00    -0.349 OA
ATOM     21  C4  NAG d1770      25.527  19.014  27.916  0.00  0.00     0.089 C 
ATOM     22  C7  NAG d1770      29.508  16.482  28.088  0.00  0.00     0.214 C 
ATOM     23  O3  NAG d1770      27.868  19.481  28.367  0.00  0.00    -0.348 OA
ATOM     24  C1  NAG d1770      25.981  16.228  28.443  0.00  0.00     0.151 C 
ATOM     25  C6  NAG d1770      23.066  18.399  27.633  0.00  0.00     0.043 C 
ATOM     26  O1  NAG d1770      26.170  14.977  27.916  0.00  0.00    -0.369 OA
ATOM     27  O4  NAG d1770      25.136  20.283  28.394  0.00  0.00    -0.390 OA
ATOM     28  N2  NAG d1770      28.422  16.680  28.787  0.00  0.00    -0.349 N 
ATOM     29  O6  NAG d1770      23.274  18.445  26.253  0.00  0.00    -0.398 OA
ATOM     30  C8  NAG d1770      30.708  16.046  28.954  0.00  0.00    -0.003 C 
ATOM     31  O7  NAG d1770      29.526  16.622  26.827  0.00  0.00    -0.274 OA
ATOM     32  C2  NAG d1770      27.184  17.106  28.198  0.00  0.00     0.087 C 
ATOM     33  C5  NAG d1770      24.447  18.023  28.234  0.00  0.00     0.089 C 
ATOM     34  C3  NAG d1770      26.829  18.537  28.578  0.00  0.00     0.093 C 
ATOM     35  H   NAG d1770      25.689  19.091  26.862  0.00  0.00     0.091 H 
ATOM     36  H   NAG d1770      25.866  16.212  29.507  0.00  0.00     0.132 H 
ATOM     37  H   NAG d1770      22.745  19.353  27.997  0.00  0.00     0.078 H 
ATOM     38  H   NAG d1770      22.305  17.697  27.902  0.00  0.00     0.078 H 
ATOM     39  H   NAG d1770      26.268  15.043  26.954  0.00  0.00     0.212 HD
ATOM     40  H   NAG d1770      24.983  20.236  29.350  0.00  0.00     0.210 HD
ATOM     41  H   NAG d1770      28.454  16.531  29.760  0.00  0.00     0.163 HD
ATOM     42  H   NAG d1770      23.969  19.091  26.052  0.00  0.00     0.209 HD
ATOM     43  H   NAG d1770      30.413  16.011  29.981  0.00  0.00     0.040 H 
ATOM     44  H   NAG d1770      31.507  16.747  28.836  0.00  0.00     0.040 H 
ATOM     45  H   NAG d1770      31.038  15.075  28.644  0.00  0.00     0.040 H 
ATOM     46  H   NAG d1770      27.397  17.028  27.152  0.00  0.00     0.084 H 
ATOM     47  H   NAG d1770      24.362  18.045  29.300  0.00  0.00     0.090 H 
ATOM     48  H   NAG d1770      26.679  18.491  29.637  0.00  0.00     0.091 H 
ENDROOT
TORSDOF 11
ENDMDL
MODEL 4
REMARK VINA RESULT:      -8.7      2.083      7.051
REMARK  0 active torsions:
REMARK  status: ('A' for Active; 'I' for Inactive)
REMARK       I    between atoms: C2_1  and  O2_14 
REMARK       I    between atoms: O3_4  and  C3_18 
REMARK       I    between atoms: C4_5  and  O4_13 
REMARK       I    between atoms: C7_7  and  C8_21 
REMARK       I    between atoms: C7_7  and  N2_15 
REMARK       I    between atoms: O3_8  and  C1_12 
REMARK       I    between atoms: O3_8  and  C3_26 
REMARK       I    between atoms: C1_9  and  O1_11 
REMARK       I    between atoms: C6_10  and  C5_25 
REMARK       I    between atoms: C6_10  and  O6_20 
REMARK       I    between atoms: N2_15  and  C2_23 
REMARK       I    between atoms: C6_16  and  C5_17 
ROOT
ATOM      1  C2  GC4 d1769      27.857  19.686  32.423  0.00  0.00     0.107 C 
ATOM      2  O6B GC4 d1769      31.212  17.779  29.297  0.00  0.00    -0.646 OA
ATOM      3  O3  GC4 d1769      29.371  21.078  33.704  0.00  0.00    -0.393 OA
ATOM      4  O5  GC4 d1769      28.984  18.515  30.594  0.00  0.00    -0.343 OA
ATOM      5  C1  GC4 d1769      27.720  19.084  31.018  0.00  0.00     0.159 C 
ATOM      6  O2  GC4 d1769      26.612  20.174  32.919  0.00  0.00    -0.388 OA
ATOM      7  C6  GC4 d1769      31.183  18.970  29.698  0.00  0.00     0.203 C 
ATOM      8  C5  GC4 d1769      29.942  19.525  30.338  0.00  0.00     0.127 C 
ATOM      9  C3  GC4 d1769      28.931  20.781  32.374  0.00  0.00     0.068 C 
ATOM     10  C4  GC4 d1769      30.170  20.435  31.551  0.00  0.00    -0.005 C 
ATOM     11  O6A GC4 d1769      32.147  19.715  29.474  0.00  0.00    -0.646 OA
ATOM     12  H   GC4 d1769      28.159  18.924  33.111  0.00  0.00     0.094 H 
ATOM     13  H   GC4 d1769      28.605  21.304  34.256  0.00  0.00     0.210 HD
ATOM     14  H   GC4 d1769      27.438  19.893  30.376  0.00  0.00     0.133 H 
ATOM     15  H   GC4 d1769      26.283  20.874  32.334  0.00  0.00     0.210 HD
ATOM     16  H   GC4 d1769      29.539  20.186  29.599  0.00  0.00     0.100 H 
ATOM     17  H   GC4 d1769      28.456  21.613  31.896  0.00  0.00     0.087 H 
ATOM     18  H   GC4 d1769      30.594  21.351  31.197  0.00  0.00     0.041 H 
ATOM     19  H   GC4 d1769      30.807  19.883  32.210  0.00  0.00     0.041 H 
ATOM     20  O5  NAG d1770      24.355  16.760  27.769  0.00  0.00    -0.349 OA
ATOM     21  C4  NAG d1770      26.059  16.343  29.418  0.00  0.00     0.089 C 
ATOM     22  C7  NAG d1770      24.420  20.638  30.489  0.00  0.00     0.214 C 
ATOM     23  O3  NAG d1770      26.728  18.137  30.913  0.00  0.00    -0.348 OA
ATOM     24  C1  NAG d1770      24.461  18.192  27.911  0.00  0.00     0.151 C 
ATOM     25  C6  NAG d1770      25.405  14.597  27.675  0.00  0.00     0.043 C 
ATOM     26  O1  NAG d1770      23.205  18.670  27.645  0.00  0.00    -0.369 OA
ATOM     27  O4  NAG d1770      27.293  15.678  29.593  0.00  0.00    -0.390 OA
ATOM     28  N2  NAG d1770      25.045  20.023  29.520  0.00  0.00    -0.349 N 
ATOM     29  O6  NAG d1770      24.465  14.121  28.591  0.00  0.00    -0.398 OA
ATOM     30  C8  NAG d1770      24.731  22.148  30.541  0.00  0.00    -0.003 C 
ATOM     31  O7  NAG d1770      23.629  20.025  31.270  0.00  0.00    -0.274 OA
ATOM     32  C2  NAG d1770      24.921  18.611  29.287  0.00  0.00     0.087 C 
ATOM     33  C5  NAG d1770      25.573  16.101  28.020  0.00  0.00     0.089 C 
ATOM     34  C3  NAG d1770      26.200  17.859  29.625  0.00  0.00     0.093 C 
ATOM     35  H   NAG d1770      25.371  15.962  30.143  0.00  0.00     0.091 H 
ATOM     36  H   NAG d1770      25.201  18.586  27.245  0.00  0.00     0.132 H 
ATOM     37  H   NAG d1770      26.334  14.079  27.786  0.00  0.00     0.078 H 
ATOM     38  H   NAG d1770      25.091  14.449  26.663  0.00  0.00     0.078 H 
ATOM     39  H   NAG d1770      22.574  18.286  28.272  0.00  0.00     0.212 HD
ATOM     40  H   NAG d1770      27.933  16.009  28.944  0.00  0.00     0.210 HD
ATOM     41  H   NAG d1770      25.626  20.549  28.925  0.00  0.00     0.163 HD
ATOM     42  H   NAG d1770      24.786  14.273  29.493  0.00  0.00     0.209 HD
ATOM     43  H   NAG d1770      25.429  22.395  29.769  0.00  0.00     0.040 H 
ATOM     44  H   NAG d1770      25.151  22.394  31.494  0.00  0.00     0.040 H 
ATOM     45  H   NAG d1770      23.828  22.704  30.396  0.00  0.00     0.040 H 
ATOM     46  H   NAG d1770      24.129  18.344  29.956  0.00  0.00     0.084 H 
ATOM     47  H   NAG d1770      26.341  16.501  27.392  0.00  0.00     0.090 H 
ATOM     48  H   NAG d1770      26.913  18.237  28.923  0.00  0.00     0.091 H 
ENDROOT
TORSDOF 11
ENDMDL
MODEL 5
REMARK VINA RESULT:      -8.5      2.024      3.106
REMARK  0 active torsions:
REMARK  status: ('A' for Active; 'I' for Inactive)
REMARK       I    between atoms: C2_1  and  O2_14 
REMARK       I    between atoms: O3_4  and  C3_18 
REMARK       I    between atoms: C4_5  and  O4_13 
REMARK       I    between atoms: C7_7  and  C8_21 
REMARK       I    between atoms: C7_7  and  N2_15 
REMARK       I    between atoms: O3_8  and  C1_12 
REMARK       I    between atoms: O3_8  and  C3_26 
REMARK       I    between atoms: C1_9  and  O1_11 
REMARK       I    between atoms: C6_10  and  C5_25 
REMARK       I    between atoms: C6_10  and  O6_20 
REMARK       I    between atoms: N2_15  and  C2_23 
REMARK       I    between atoms: C6_16  and  C5_17 
ROOT
ATOM      1  C2  GC4 d1769      24.424  17.948  30.985  0.00  0.00     0.107 C 
ATOM      2  O6B GC4 d1769      24.569  22.542  29.106  0.00  0.00    -0.646 OA
ATOM      3  O3  GC4 d1769      22.061  17.898  31.522  0.00  0.00    -0.393 OA
ATOM      4  O5  GC4 d1769      25.092  20.035  29.897  0.00  0.00    -0.343 OA
ATOM      5  C1  GC4 d1769      25.390  18.620  30.000  0.00  0.00     0.159 C 
ATOM      6  O2  GC4 d1769      24.740  16.572  31.188  0.00  0.00    -0.388 OA
ATOM      7  C6  GC4 d1769      23.644  21.710  28.926  0.00  0.00     0.203 C 
ATOM      8  C5  GC4 d1769      23.865  20.255  29.228  0.00  0.00     0.127 C 
ATOM      9  C3  GC4 d1769      22.994  18.142  30.462  0.00  0.00     0.068 C 
ATOM     10  C4  GC4 d1769      22.693  19.531  29.903  0.00  0.00    -0.005 C 
ATOM     11  O6A GC4 d1769      22.583  22.077  28.404  0.00  0.00    -0.646 OA
ATOM     12  H   GC4 d1769      24.516  18.407  31.947  0.00  0.00     0.094 H 
ATOM     13  H   GC4 d1769      22.225  17.020  31.901  0.00  0.00     0.210 HD
ATOM     14  H   GC4 d1769      25.239  18.135  29.058  0.00  0.00     0.133 H 
ATOM     15  H   GC4 d1769      24.674  16.097  30.345  0.00  0.00     0.210 HD
ATOM     16  H   GC4 d1769      23.925  19.793  28.265  0.00  0.00     0.100 H 
ATOM     17  H   GC4 d1769      22.898  17.448  29.654  0.00  0.00     0.087 H 
ATOM     18  H   GC4 d1769      21.912  19.431  29.180  0.00  0.00     0.041 H 
ATOM     19  H   GC4 d1769      22.434  20.132  30.749  0.00  0.00     0.041 H 
ATOM     20  O5  NAG d1770      30.250  18.407  28.100  0.00  0.00    -0.349 OA
ATOM     21  C4  NAG d1770      28.872  19.436  29.785  0.00  0.00     0.089 C 
ATOM     22  C7  NAG d1770      26.665  15.385  28.778  0.00  0.00     0.214 C 
ATOM     23  O3  NAG d1770      26.717  18.448  30.319  0.00  0.00    -0.348 OA
ATOM     24  C1  NAG d1770      29.160  17.617  27.582  0.00  0.00     0.151 C 
ATOM     25  C6  NAG d1770      31.067  20.481  29.007  0.00  0.00     0.043 C 
ATOM     26  O1  NAG d1770      29.744  16.471  27.110  0.00  0.00    -0.369 OA
ATOM     27  O4  NAG d1770      28.460  20.700  30.259  0.00  0.00    -0.390 OA
ATOM     28  N2  NAG d1770      26.998  16.510  28.200  0.00  0.00    -0.349 N 
ATOM     29  O6  NAG d1770      31.700  19.765  30.025  0.00  0.00    -0.398 OA
ATOM     30  C8  NAG d1770      25.418  14.732  28.148  0.00  0.00    -0.003 C 
ATOM     31  O7  NAG d1770      27.339  14.903  29.739  0.00  0.00    -0.274 OA
ATOM     32  C2  NAG d1770      28.117  17.302  28.627  0.00  0.00     0.087 C 
ATOM     33  C5  NAG d1770      29.819  19.634  28.639  0.00  0.00     0.089 C 
ATOM     34  C3  NAG d1770      27.680  18.602  29.287  0.00  0.00     0.093 C 
ATOM     35  H   NAG d1770      29.339  18.914  30.593  0.00  0.00     0.091 H 
ATOM     36  H   NAG d1770      28.631  18.152  26.820  0.00  0.00     0.132 H 
ATOM     37  H   NAG d1770      30.775  21.450  29.353  0.00  0.00     0.078 H 
ATOM     38  H   NAG d1770      31.709  20.637  28.166  0.00  0.00     0.078 H 
ATOM     39  H   NAG d1770      30.209  16.023  27.833  0.00  0.00     0.212 HD
ATOM     40  H   NAG d1770      28.032  21.191  29.540  0.00  0.00     0.210 HD
ATOM     41  H   NAG d1770      26.458  16.827  27.440  0.00  0.00     0.163 HD
ATOM     42  H   NAG d1770      31.086  19.645  30.766  0.00  0.00     0.209 HD
ATOM     43  H   NAG d1770      25.051  15.353  27.358  0.00  0.00     0.040 H 
ATOM     44  H   NAG d1770      24.660  14.618  28.893  0.00  0.00     0.040 H 
ATOM     45  H   NAG d1770      25.678  13.771  27.754  0.00  0.00     0.040 H 
ATOM     46  H   NAG d1770      28.593  16.654  29.332  0.00  0.00     0.084 H 
ATOM     47  H   NAG d1770      29.254  20.175  27.909  0.00  0.00     0.090 H 
ATOM     48  H   NAG d1770      27.191  19.138  28.501  0.00  0.00     0.091 H 
ENDROOT
TORSDOF 11
ENDMDL
MODEL 6
REMARK VINA RESULT:      -8.5      2.267      3.604
REMARK  0 active torsions:
REMARK  status: ('A' for Active; 'I' for Inactive)
REMARK       I    between atoms: C2_1  and  O2_14 
REMARK       I    between atoms: O3_4  and  C3_18 
REMARK       I    between atoms: C4_5  and  O4_13 
REMARK       I    between atoms: C7_7  and  C8_21 
REMARK       I    between atoms: C7_7  and  N2_15 
REMARK       I    between atoms: O3_8  and  C1_12 
REMARK       I    between atoms: O3_8  and  C3_26 
REMARK       I    between atoms: C1_9  and  O1_11 
REMARK       I    between atoms: C6_10  and  C5_25 
REMARK       I    between atoms: C6_10  and  O6_20 
REMARK       I    between atoms: N2_15  and  C2_23 
REMARK       I    between atoms: C6_16  and  C5_17 
ROOT
ATOM      1  C2  GC4 d1769      23.733  18.090  28.713  0.00  0.00     0.107 C 
ATOM      2  O6B GC4 d1769      25.666  21.654  25.846  0.00  0.00    -0.646 OA
ATOM      3  O3  GC4 d1769      21.461  18.208  27.879  0.00  0.00    -0.393 OA
ATOM      4  O5  GC4 d1769      25.237  19.631  27.552  0.00  0.00    -0.343 OA
ATOM      5  C1  GC4 d1769      25.170  18.361  28.248  0.00  0.00     0.159 C 
ATOM      6  O2  GC4 d1769      23.639  16.894  29.485  0.00  0.00    -0.388 OA
ATOM      7  C6  GC4 d1769      24.820  20.801  25.477  0.00  0.00     0.203 C 
ATOM      8  C5  GC4 d1769      24.581  19.567  26.300  0.00  0.00     0.127 C 
ATOM      9  C3  GC4 d1769      22.826  18.054  27.475  0.00  0.00     0.068 C 
ATOM     10  C4  GC4 d1769      23.116  19.129  26.430  0.00  0.00    -0.005 C 
ATOM     11  O6A GC4 d1769      24.256  20.930  24.382  0.00  0.00    -0.646 OA
ATOM     12  H   GC4 d1769      23.413  18.876  29.365  0.00  0.00     0.094 H 
ATOM     13  H   GC4 d1769      21.242  17.537  28.545  0.00  0.00     0.210 HD
ATOM     14  H   GC4 d1769      25.425  17.558  27.589  0.00  0.00     0.133 H 
ATOM     15  H   GC4 d1769      23.918  16.138  28.945  0.00  0.00     0.210 HD
ATOM     16  H   GC4 d1769      25.029  18.780  25.730  0.00  0.00     0.100 H 
ATOM     17  H   GC4 d1769      23.022  17.106  27.017  0.00  0.00     0.087 H 
ATOM     18  H   GC4 d1769      22.802  18.754  25.479  0.00  0.00     0.041 H 
ATOM     19  H   GC4 d1769      22.584  19.998  26.757  0.00  0.00     0.041 H 
ATOM     20  O5  NAG d1770      30.186  17.530  29.445  0.00  0.00    -0.349 OA
ATOM     21  C4  NAG d1770      28.368  19.091  29.687  0.00  0.00     0.089 C 
ATOM     22  C7  NAG d1770      26.252  14.924  29.022  0.00  0.00     0.214 C 
ATOM     23  O3  NAG d1770      26.097  18.341  29.264  0.00  0.00    -0.348 OA
ATOM     24  C1  NAG d1770      29.378  16.587  28.710  0.00  0.00     0.151 C 
ATOM     25  C6  NAG d1770      30.808  19.805  29.923  0.00  0.00     0.043 C 
ATOM     26  O1  NAG d1770      29.893  15.357  29.025  0.00  0.00    -0.369 OA
ATOM     27  O4  NAG d1770      28.021  20.435  29.428  0.00  0.00    -0.390 OA
ATOM     28  N2  NAG d1770      27.035  15.757  28.388  0.00  0.00    -0.349 N 
ATOM     29  O6  NAG d1770      30.695  19.530  31.287  0.00  0.00    -0.398 OA
ATOM     30  C8  NAG d1770      25.394  14.064  28.071  0.00  0.00    -0.003 C 
ATOM     31  O7  NAG d1770      26.246  14.845  30.288  0.00  0.00    -0.274 OA
ATOM     32  C2  NAG d1770      27.913  16.669  29.066  0.00  0.00     0.087 C 
ATOM     33  C5  NAG d1770      29.781  18.863  29.239  0.00  0.00     0.089 C 
ATOM     34  C3  NAG d1770      27.457  18.114  28.928  0.00  0.00     0.093 C 
ATOM     35  H   NAG d1770      28.258  18.916  30.736  0.00  0.00     0.091 H 
ATOM     36  H   NAG d1770      29.416  16.791  27.660  0.00  0.00     0.132 H 
ATOM     37  H   NAG d1770      30.570  20.828  29.724  0.00  0.00     0.078 H 
ATOM     38  H   NAG d1770      31.802  19.647  29.562  0.00  0.00     0.078 H 
ATOM     39  H   NAG d1770      29.836  15.219  29.983  0.00  0.00     0.212 HD
ATOM     40  H   NAG d1770      28.114  20.616  28.480  0.00  0.00     0.210 HD
ATOM     41  H   NAG d1770      27.022  15.760  27.404  0.00  0.00     0.163 HD
ATOM     42  H   NAG d1770      29.781  19.686  31.574  0.00  0.00     0.209 HD
ATOM     43  H   NAG d1770      25.599  14.340  27.058  0.00  0.00     0.040 H 
ATOM     44  H   NAG d1770      24.358  14.224  28.282  0.00  0.00     0.040 H 
ATOM     45  H   NAG d1770      25.631  13.030  28.214  0.00  0.00     0.040 H 
ATOM     46  H   NAG d1770      27.838  16.337  30.081  0.00  0.00     0.084 H 
ATOM     47  H   NAG d1770      29.774  19.084  28.192  0.00  0.00     0.090 H 
ATOM     48  H   NAG d1770      27.541  18.311  27.879  0.00  0.00     0.091 H 
ENDROOT
TORSDOF 11
ENDMDL
MODEL 7
REMARK VINA RESULT:      -8.5      2.071      2.757
REMARK  0 active torsions:
REMARK  status: ('A' for Active; 'I' for Inactive)
REMARK       I    between atoms: C2_1  and  O2_14 
REMARK       I    between atoms: O3_4  and  C3_18 
REMARK       I    between atoms: C4_5  and  O4_13 
REMARK       I    between atoms: C7_7  and  C8_21 
REMARK       I    between atoms: C7_7  and  N2_15 
REMARK       I    between atoms: O3_8  and  C1_12 
REMARK       I    between atoms: O3_8  and  C3_26 
REMARK       I    between atoms: C1_9  and  O1_11 
REMARK       I    between atoms: C6_10  and  C5_25 
REMARK       I    between atoms: C6_10  and  O6_20 
REMARK       I    between atoms: N2_15  and  C2_23 
REMARK       I    between atoms: C6_16  and  C5_17 
ROOT
ATOM      1  C2  GC4 d1769      27.389  19.006  30.889  0.00  0.00     0.107 C 
ATOM      2  O6B GC4 d1769      25.806  22.978  33.416  0.00  0.00    -0.646 OA
ATOM      3  O3  GC4 d1769      25.244  18.323  29.992  0.00  0.00    -0.393 OA
ATOM      4  O5  GC4 d1769      27.241  21.061  32.209  0.00  0.00    -0.343 OA
ATOM      5  C1  GC4 d1769      28.115  20.273  31.362  0.00  0.00     0.159 C 
ATOM      6  O2  GC4 d1769      28.244  18.154  30.129  0.00  0.00    -0.388 OA
ATOM      7  C6  GC4 d1769      25.401  22.628  32.279  0.00  0.00     0.203 C 
ATOM      8  C5  GC4 d1769      26.189  21.643  31.463  0.00  0.00     0.127 C 
ATOM      9  C3  GC4 d1769      26.144  19.433  30.099  0.00  0.00     0.068 C 
ATOM     10  C4  GC4 d1769      25.363  20.597  30.704  0.00  0.00    -0.005 C 
ATOM     11  O6A GC4 d1769      24.401  23.173  31.790  0.00  0.00    -0.646 OA
ATOM     12  H   GC4 d1769      27.090  18.426  31.738  0.00  0.00     0.094 H 
ATOM     13  H   GC4 d1769      25.710  17.563  29.610  0.00  0.00     0.210 HD
ATOM     14  H   GC4 d1769      28.369  20.817  30.477  0.00  0.00     0.133 H 
ATOM     15  H   GC4 d1769      28.552  18.626  29.339  0.00  0.00     0.210 HD
ATOM     16  H   GC4 d1769      26.623  22.235  30.684  0.00  0.00     0.100 H 
ATOM     17  H   GC4 d1769      26.518  19.761  29.151  0.00  0.00     0.087 H 
ATOM     18  H   GC4 d1769      24.854  21.098  29.907  0.00  0.00     0.041 H 
ATOM     19  H   GC4 d1769      24.714  20.159  31.432  0.00  0.00     0.041 H 
ATOM     20  O5  NAG d1770      32.813  22.196  32.590  0.00  0.00    -0.349 OA
ATOM     21  C4  NAG d1770      30.840  21.166  33.509  0.00  0.00     0.089 C 
ATOM     22  C7  NAG d1770      30.898  19.768  29.000  0.00  0.00     0.214 C 
ATOM     23  O3  NAG d1770      29.296  20.024  32.021  0.00  0.00    -0.348 OA
ATOM     24  C1  NAG d1770      32.305  22.142  31.241  0.00  0.00     0.151 C 
ATOM     25  C6  NAG d1770      32.438  22.550  34.940  0.00  0.00     0.043 C 
ATOM     26  O1  NAG d1770      33.414  22.008  30.448  0.00  0.00    -0.369 OA
ATOM     27  O4  NAG d1770      29.828  21.374  34.472  0.00  0.00    -0.390 OA
ATOM     28  N2  NAG d1770      30.793  20.866  29.703  0.00  0.00    -0.349 N 
ATOM     29  O6  NAG d1770      33.127  21.366  35.210  0.00  0.00    -0.398 OA
ATOM     30  C8  NAG d1770      30.212  19.868  27.623  0.00  0.00    -0.003 C 
ATOM     31  O7  NAG d1770      31.529  18.756  29.433  0.00  0.00    -0.274 OA
ATOM     32  C2  NAG d1770      31.341  21.001  31.023  0.00  0.00     0.087 C 
ATOM     33  C5  NAG d1770      31.790  22.327  33.547  0.00  0.00     0.089 C 
ATOM     34  C3  NAG d1770      30.259  21.065  32.090  0.00  0.00     0.093 C 
ATOM     35  H   NAG d1770      31.336  20.248  33.741  0.00  0.00     0.091 H 
ATOM     36  H   NAG d1770      31.741  23.023  31.012  0.00  0.00     0.132 H 
ATOM     37  H   NAG d1770      31.686  22.726  35.681  0.00  0.00     0.078 H 
ATOM     38  H   NAG d1770      33.083  23.403  34.951  0.00  0.00     0.078 H 
ATOM     39  H   NAG d1770      33.890  21.199  30.692  0.00  0.00     0.212 HD
ATOM     40  H   NAG d1770      29.365  22.204  34.280  0.00  0.00     0.210 HD
ATOM     41  H   NAG d1770      30.316  21.633  29.310  0.00  0.00     0.163 HD
ATOM     42  H   NAG d1770      32.508  20.620  35.191  0.00  0.00     0.209 HD
ATOM     43  H   NAG d1770      29.756  20.830  27.520  0.00  0.00     0.040 H 
ATOM     44  H   NAG d1770      29.463  19.109  27.541  0.00  0.00     0.040 H 
ATOM     45  H   NAG d1770      30.940  19.734  26.850  0.00  0.00     0.040 H 
ATOM     46  H   NAG d1770      31.920  20.105  31.116  0.00  0.00     0.084 H 
ATOM     47  H   NAG d1770      31.186  23.180  33.321  0.00  0.00     0.090 H 
ATOM     48  H   NAG d1770      29.734  21.971  31.869  0.00  0.00     0.091 H 
ENDROOT
TORSDOF 11
ENDMDL
MODEL 8
REMARK VINA RESULT:      -8.4      3.111      7.541
REMARK  0 active torsions:
REMARK  status: ('A' for Active; 'I' for Inactive)
REMARK       I    between atoms: C2_1  and  O2_14 
REMARK       I    between atoms: O3_4  and  C3_18 
REMARK       I    between atoms: C4_5  and  O4_13 
REMARK       I    between atoms: C7_7  and  C8_21 
REMARK       I    between atoms: C7_7  and  N2_15 
REMARK       I    between atoms: O3_8  and  C1_12 
REMARK       I    between atoms: O3_8  and  C3_26 
REMARK       I    between atoms: C1_9  and  O1_11 
REMARK       I    between atoms: C6_10  and  C5_25 
REMARK       I    between atoms: C6_10  and  O6_20 
REMARK       I    between atoms: N2_15  and  C2_23 
REMARK       I    between atoms: C6_16  and  C5_17 
ROOT
ATOM      1  C2  GC4 d1769      25.796  18.601  33.245  0.00  0.00     0.107 C 
ATOM      2  O6B GC4 d1769      29.647  18.274  30.127  0.00  0.00    -0.646 OA
ATOM      3  O3  GC4 d1769      26.858  19.994  34.919  0.00  0.00    -0.393 OA
ATOM      4  O5  GC4 d1769      27.254  18.161  31.330  0.00  0.00    -0.343 OA
ATOM      5  C1  GC4 d1769      25.872  18.309  31.740  0.00  0.00     0.159 C 
ATOM      6  O2  GC4 d1769      24.449  18.660  33.710  0.00  0.00    -0.388 OA
ATOM      7  C6  GC4 d1769      29.305  19.307  30.757  0.00  0.00     0.203 C 
ATOM      8  C5  GC4 d1769      27.939  19.398  31.376  0.00  0.00     0.127 C 
ATOM      9  C3  GC4 d1769      26.562  19.902  33.520  0.00  0.00     0.068 C 
ATOM     10  C4  GC4 d1769      27.881  20.047  32.765  0.00  0.00    -0.005 C 
ATOM     11  O6A GC4 d1769      30.060  20.288  30.781  0.00  0.00    -0.646 OA
ATOM     12  H   GC4 d1769      26.250  17.799  33.789  0.00  0.00     0.094 H 
ATOM     13  H   GC4 d1769      26.039  19.906  35.430  0.00  0.00     0.210 HD
ATOM     14  H   GC4 d1769      25.423  19.148  31.252  0.00  0.00     0.133 H 
ATOM     15  H   GC4 d1769      23.979  19.374  33.250  0.00  0.00     0.210 HD
ATOM     16  H   GC4 d1769      27.414  20.092  30.753  0.00  0.00     0.100 H 
ATOM     17  H   GC4 d1769      25.914  20.682  33.178  0.00  0.00     0.087 H 
ATOM     18  H   GC4 d1769      28.077  21.092  32.646  0.00  0.00     0.041 H 
ATOM     19  H   GC4 d1769      28.608  19.529  33.355  0.00  0.00     0.041 H 
ATOM     20  O5  NAG d1770      23.334  16.030  27.785  0.00  0.00    -0.349 OA
ATOM     21  C4  NAG d1770      25.018  15.674  29.468  0.00  0.00     0.089 C 
ATOM     22  C7  NAG d1770      22.313  19.118  31.230  0.00  0.00     0.214 C 
ATOM     23  O3  NAG d1770      25.154  17.201  31.352  0.00  0.00    -0.348 OA
ATOM     24  C1  NAG d1770      23.072  17.379  28.224  0.00  0.00     0.151 C 
ATOM     25  C6  NAG d1770      24.894  14.250  27.353  0.00  0.00     0.043 C 
ATOM     26  O1  NAG d1770      21.748  17.595  27.943  0.00  0.00    -0.369 OA
ATOM     27  O4  NAG d1770      26.370  15.297  29.619  0.00  0.00    -0.390 OA
ATOM     28  N2  NAG d1770      23.112  18.896  30.219  0.00  0.00    -0.349 N 
ATOM     29  O6  NAG d1770      24.066  13.377  28.060  0.00  0.00    -0.398 OA
ATOM     30  C8  NAG d1770      22.233  20.610  31.616  0.00  0.00    -0.003 C 
ATOM     31  O7  NAG d1770      21.669  18.180  31.791  0.00  0.00    -0.274 OA
ATOM     32  C2  NAG d1770      23.354  17.582  29.693  0.00  0.00     0.087 C 
ATOM     33  C5  NAG d1770      24.666  15.638  28.010  0.00  0.00     0.089 C 
ATOM     34  C3  NAG d1770      24.766  17.097  29.990  0.00  0.00     0.093 C 
ATOM     35  H   NAG d1770      24.418  14.992  30.032  0.00  0.00     0.091 H 
ATOM     36  H   NAG d1770      23.716  18.073  27.724  0.00  0.00     0.132 H 
ATOM     37  H   NAG d1770      25.918  13.955  27.443  0.00  0.00     0.078 H 
ATOM     38  H   NAG d1770      24.670  14.259  26.307  0.00  0.00     0.078 H 
ATOM     39  H   NAG d1770      21.207  16.944  28.417  0.00  0.00     0.212 HD
ATOM     40  H   NAG d1770      26.934  15.904  29.115  0.00  0.00     0.210 HD
ATOM     41  H   NAG d1770      23.567  19.662  29.801  0.00  0.00     0.163 HD
ATOM     42  H   NAG d1770      24.302  13.398  29.001  0.00  0.00     0.209 HD
ATOM     43  H   NAG d1770      22.879  21.178  30.980  0.00  0.00     0.040 H 
ATOM     44  H   NAG d1770      22.539  20.731  32.634  0.00  0.00     0.040 H 
ATOM     45  H   NAG d1770      21.226  20.955  31.503  0.00  0.00     0.040 H 
ATOM     46  H   NAG d1770      22.627  16.995  30.216  0.00  0.00     0.084 H 
ATOM     47  H   NAG d1770      25.335  16.336  27.552  0.00  0.00     0.090 H 
ATOM     48  H   NAG d1770      25.390  17.777  29.450  0.00  0.00     0.091 H 
ENDROOT
TORSDOF 11
ENDMDL
MODEL 9
REMARK VINA RESULT:      -8.3      1.381      1.476
REMARK  0 active torsions:
REMARK  status: ('A' for Active; 'I' for Inactive)
REMARK       I    between atoms: C2_1  and  O2_14 
REMARK       I    between atoms: O3_4  and  C3_18 
REMARK       I    between atoms: C4_5  and  O4_13 
REMARK       I    between atoms: C7_7  and  C8_21 
REMARK       I    between atoms: C7_7  and  N2_15 
REMARK       I    between atoms: O3_8  and  C1_12 
REMARK       I    between atoms: O3_8  and  C3_26 
REMARK       I    between atoms: C1_9  and  O1_11 
REMARK       I    between atoms: C6_10  and  C5_25 
REMARK       I    between atoms: C6_10  and  O6_20 
REMARK       I    between atoms: N2_15  and  C2_23 
REMARK       I    between atoms: C6_16  and  C5_17 
ROOT
ATOM      1  C2  GC4 d1769      25.852  16.552  29.193  0.00  0.00     0.107 C 
ATOM      2  O6B GC4 d1769      23.431  20.859  29.699  0.00  0.00    -0.646 OA
ATOM      3  O3  GC4 d1769      24.197  15.414  27.836  0.00  0.00    -0.393 OA
ATOM      4  O5  GC4 d1769      25.217  18.859  29.704  0.00  0.00    -0.343 OA
ATOM      5  C1  GC4 d1769      26.346  17.973  29.496  0.00  0.00     0.159 C 
ATOM      6  O2  GC4 d1769      26.930  15.626  29.074  0.00  0.00    -0.388 OA
ATOM      7  C6  GC4 d1769      23.480  20.168  28.649  0.00  0.00     0.203 C 
ATOM      8  C5  GC4 d1769      24.518  19.093  28.497  0.00  0.00     0.127 C 
ATOM      9  C3  GC4 d1769      24.990  16.604  27.924  0.00  0.00     0.068 C 
ATOM     10  C4  GC4 d1769      24.037  17.794  27.838  0.00  0.00    -0.005 C 
ATOM     11  O6A GC4 d1769      22.733  20.444  27.700  0.00  0.00    -0.646 OA
ATOM     12  H   GC4 d1769      25.259  16.196  30.010  0.00  0.00     0.094 H 
ATOM     13  H   GC4 d1769      24.774  14.636  27.887  0.00  0.00     0.210 HD
ATOM     14  H   GC4 d1769      26.911  18.280  28.641  0.00  0.00     0.133 H 
ATOM     15  H   GC4 d1769      27.509  15.896  28.343  0.00  0.00     0.210 HD
ATOM     16  H   GC4 d1769      25.209  19.495  27.786  0.00  0.00     0.100 H 
ATOM     17  H   GC4 d1769      25.689  16.701  27.119  0.00  0.00     0.087 H 
ATOM     18  H   GC4 d1769      23.860  17.999  26.803  0.00  0.00     0.041 H 
ATOM     19  H   GC4 d1769      23.164  17.502  28.383  0.00  0.00     0.041 H 
ATOM     20  O5  NAG d1770      30.243  20.672  31.689  0.00  0.00    -0.349 OA
ATOM     21  C4  NAG d1770      28.072  19.718  32.106  0.00  0.00     0.089 C 
ATOM     22  C7  NAG d1770      29.810  17.158  28.541  0.00  0.00     0.214 C 
ATOM     23  O3  NAG d1770      27.196  18.047  30.575  0.00  0.00    -0.348 OA
ATOM     24  C1  NAG d1770      30.274  20.196  30.327  0.00  0.00     0.151 C 
ATOM     25  C6  NAG d1770      29.018  21.610  33.535  0.00  0.00     0.043 C 
ATOM     26  O1  NAG d1770      31.600  19.975  30.058  0.00  0.00    -0.369 OA
ATOM     27  O4  NAG d1770      26.773  20.066  32.539  0.00  0.00    -0.390 OA
ATOM     28  N2  NAG d1770      29.448  18.386  28.802  0.00  0.00    -0.349 N 
ATOM     29  O6  NAG d1770      29.559  20.630  34.369  0.00  0.00    -0.398 OA
ATOM     30  C8  NAG d1770      29.686  16.801  27.045  0.00  0.00    -0.003 C 
ATOM     31  O7  NAG d1770      30.237  16.380  29.447  0.00  0.00    -0.274 OA
ATOM     32  C2  NAG d1770      29.464  18.937  30.128  0.00  0.00     0.087 C 
ATOM     33  C5  NAG d1770      28.936  20.943  32.135  0.00  0.00     0.089 C 
ATOM     34  C3  NAG d1770      28.062  19.169  30.671  0.00  0.00     0.093 C 
ATOM     35  H   NAG d1770      28.447  18.959  32.759  0.00  0.00     0.091 H 
ATOM     36  H   NAG d1770      29.834  20.911  29.664  0.00  0.00     0.132 H 
ATOM     37  H   NAG d1770      28.044  21.896  33.873  0.00  0.00     0.078 H 
ATOM     38  H   NAG d1770      29.610  22.500  33.523  0.00  0.00     0.078 H 
ATOM     39  H   NAG d1770      31.952  19.323  30.682  0.00  0.00     0.212 HD
ATOM     40  H   NAG d1770      26.413  20.754  31.959  0.00  0.00     0.210 HD
ATOM     41  H   NAG d1770      29.150  18.959  28.058  0.00  0.00     0.163 HD
ATOM     42  H   NAG d1770      28.994  19.842  34.352  0.00  0.00     0.209 HD
ATOM     43  H   NAG d1770      29.300  17.641  26.508  0.00  0.00     0.040 H 
ATOM     44  H   NAG d1770      29.024  15.969  26.931  0.00  0.00     0.040 H 
ATOM     45  H   NAG d1770      30.651  16.543  26.658  0.00  0.00     0.040 H 
ATOM     46  H   NAG d1770      29.969  18.172  30.681  0.00  0.00     0.084 H 
ATOM     47  H   NAG d1770      28.458  21.630  31.468  0.00  0.00     0.090 H 
ATOM     48  H   NAG d1770      27.655  19.915  30.020  0.00  0.00     0.091 H 
ENDROOT
TORSDOF 11
ENDMDL
MODEL 10
REMARK VINA RESULT:      -8.3      2.536      3.308
REMARK  0 active torsions:
REMARK  status: ('A' for Active; 'I' for Inactive)
REMARK       I    between atoms: C2_1  and  O2_14 
REMARK       I    between atoms: O3_4  and  C3_18 
REMARK       I    between atoms: C4_5  and  O4_13 
REMARK       I    between atoms: C7_7  and  C8_21 
REMARK       I    between atoms: C7_7  and  N2_15 
REMARK       I    between atoms: O3_8  and  C1_12 
REMARK       I    between atoms: O3_8  and  C3_26 
REMARK       I    between atoms: C1_9  and  O1_11 
REMARK       I    between atoms: C6_10  and  C5_25 
REMARK       I    between atoms: C6_10  and  O6_20 
REMARK       I    between atoms: N2_15  and  C2_23 
REMARK       I    between atoms: C6_16  and  C5_17 
ROOT
ATOM      1  C2  GC4 d1769      26.254  15.900  29.435  0.00  0.00     0.107 C 
ATOM      2  O6B GC4 d1769      22.040  18.152  30.788  0.00  0.00    -0.646 OA
ATOM      3  O3  GC4 d1769      25.306  14.431  27.758  0.00  0.00    -0.393 OA
ATOM      4  O5  GC4 d1769      24.583  17.384  30.432  0.00  0.00    -0.343 OA
ATOM      5  C1  GC4 d1769      25.987  17.263  30.090  0.00  0.00     0.159 C 
ATOM      6  O2  GC4 d1769      27.640  15.699  29.167  0.00  0.00    -0.388 OA
ATOM      7  C6  GC4 d1769      22.356  17.842  29.611  0.00  0.00     0.203 C 
ATOM      8  C5  GC4 d1769      23.780  17.505  29.273  0.00  0.00     0.127 C 
ATOM      9  C3  GC4 d1769      25.398  15.801  28.165  0.00  0.00     0.068 C 
ATOM     10  C4  GC4 d1769      23.973  16.331  28.304  0.00  0.00    -0.005 C 
ATOM     11  O6A GC4 d1769      21.509  17.914  28.710  0.00  0.00    -0.646 OA
ATOM     12  H   GC4 d1769      25.978  15.117  30.111  0.00  0.00     0.094 H 
ATOM     13  H   GC4 d1769      26.198  14.061  27.659  0.00  0.00     0.210 HD
ATOM     14  H   GC4 d1769      26.261  17.999  29.363  0.00  0.00     0.133 H 
ATOM     15  H   GC4 d1769      27.954  16.383  28.554  0.00  0.00     0.210 HD
ATOM     16  H   GC4 d1769      24.126  18.350  28.716  0.00  0.00     0.100 H 
ATOM     17  H   GC4 d1769      25.897  16.418  27.447  0.00  0.00     0.087 H 
ATOM     18  H   GC4 d1769      23.647  16.651  27.336  0.00  0.00     0.041 H 
ATOM     19  H   GC4 d1769      23.404  15.523  28.714  0.00  0.00     0.041 H 
ATOM     20  O5  NAG d1770      28.141  20.969  33.072  0.00  0.00    -0.349 OA
ATOM     21  C4  NAG d1770      26.778  18.986  33.129  0.00  0.00     0.089 C 
ATOM     22  C7  NAG d1770      29.317  18.548  29.173  0.00  0.00     0.214 C 
ATOM     23  O3  NAG d1770      26.757  17.505  31.203  0.00  0.00    -0.348 OA
ATOM     24  C1  NAG d1770      28.315  20.901  31.641  0.00  0.00     0.151 C 
ATOM     25  C6  NAG d1770      26.741  20.709  35.011  0.00  0.00     0.043 C 
ATOM     26  O1  NAG d1770      29.549  21.447  31.405  0.00  0.00    -0.369 OA
ATOM     27  O4  NAG d1770      25.514  18.522  33.555  0.00  0.00    -0.390 OA
ATOM     28  N2  NAG d1770      28.406  19.328  29.692  0.00  0.00    -0.349 N 
ATOM     29  O6  NAG d1770      27.758  19.974  35.624  0.00  0.00    -0.398 OA
ATOM     30  C8  NAG d1770      29.287  18.531  27.631  0.00  0.00    -0.003 C 
ATOM     31  O7  NAG d1770      30.138  17.906  29.898  0.00  0.00    -0.274 OA
ATOM     32  C2  NAG d1770      28.235  19.491  31.108  0.00  0.00     0.087 C 
ATOM     33  C5  NAG d1770      26.909  20.435  33.493  0.00  0.00     0.089 C 
ATOM     34  C3  NAG d1770      26.946  18.853  31.607  0.00  0.00     0.093 C 
ATOM     35  H   NAG d1770      27.528  18.393  33.608  0.00  0.00     0.091 H 
ATOM     36  H   NAG d1770      27.530  21.428  31.138  0.00  0.00     0.132 H 
ATOM     37  H   NAG d1770      25.781  20.379  35.349  0.00  0.00     0.078 H 
ATOM     38  H   NAG d1770      26.804  21.752  35.241  0.00  0.00     0.078 H 
ATOM     39  H   NAG d1770      30.224  20.937  31.880  0.00  0.00     0.212 HD
ATOM     40  H   NAG d1770      24.818  19.048  33.131  0.00  0.00     0.210 HD
ATOM     41  H   NAG d1770      27.811  19.826  29.085  0.00  0.00     0.163 HD
ATOM     42  H   NAG d1770      27.664  19.037  35.392  0.00  0.00     0.209 HD
ATOM     43  H   NAG d1770      28.495  19.160  27.283  0.00  0.00     0.040 H 
ATOM     44  H   NAG d1770      29.126  17.531  27.288  0.00  0.00     0.040 H 
ATOM     45  H   NAG d1770      30.221  18.891  27.252  0.00  0.00     0.040 H 
ATOM     46  H   NAG d1770      29.092  18.981  31.496  0.00  0.00     0.084 H 
ATOM     47  H   NAG d1770      26.107  20.919  32.977  0.00  0.00     0.090 H 
ATOM     48  H   NAG d1770      26.176  19.419  31.126  0.00  0.00     0.091 H 
ENDROOT
TORSDOF 11
ENDMDL
MODEL 11
REMARK VINA RESULT:      -8.3      2.286      5.219
REMARK  0 active torsions:
REMARK  status: ('A' for Active; 'I' for Inactive)
REMARK       I    between atoms: C2_1  and  O2_14 
REMARK       I    between atoms: O3_4  and  C3_18 
REMARK       I    between atoms: C4_5  and  O4_13 
REMARK       I    between atoms: C7_7  and  C8_21 
REMARK       I    between atoms: C7_7  and  N2_15 
REMARK       I    between atoms: O3_8  and  C1_12 
REMARK       I    between atoms: O3_8  and  C3_26 
REMARK       I    between atoms: C1_9  and  O1_11 
REMARK       I    between atoms: C6_10  and  C5_25 
REMARK       I    between atoms: C6_10  and  O6_20 
REMARK       I    between atoms: N2_15  and  C2_23 
REMARK       I    between atoms: C6_16  and  C5_17 
ROOT
ATOM      1  C2  GC4 d1769      23.848  18.718  27.029  0.00  0.00     0.107 C 
ATOM      2  O6B GC4 d1769      25.732  14.284  28.232  0.00  0.00    -0.646 OA
ATOM      3  O3  GC4 d1769      21.700  17.942  26.217  0.00  0.00    -0.393 OA
ATOM      4  O5  GC4 d1769      25.241  16.895  27.880  0.00  0.00    -0.343 OA
ATOM      5  C1  GC4 d1769      24.947  18.308  28.018  0.00  0.00     0.159 C 
ATOM      6  O2  GC4 d1769      23.592  20.120  27.065  0.00  0.00    -0.388 OA
ATOM      7  C6  GC4 d1769      24.541  14.644  28.415  0.00  0.00     0.203 C 
ATOM      8  C5  GC4 d1769      24.172  16.099  28.354  0.00  0.00     0.127 C 
ATOM      9  C3  GC4 d1769      22.591  17.892  27.338  0.00  0.00     0.068 C 
ATOM     10  C4  GC4 d1769      22.847  16.419  27.651  0.00  0.00    -0.005 C 
ATOM     11  O6A GC4 d1769      23.691  13.805  28.744  0.00  0.00    -0.646 OA
ATOM     12  H   GC4 d1769      24.170  18.513  26.029  0.00  0.00     0.094 H 
ATOM     13  H   GC4 d1769      21.516  18.867  25.991  0.00  0.00     0.210 HD
ATOM     14  H   GC4 d1769      24.561  18.517  28.994  0.00  0.00     0.133 H 
ATOM     15  H   GC4 d1769      23.293  20.372  27.953  0.00  0.00     0.210 HD
ATOM     16  H   GC4 d1769      23.987  16.365  29.374  0.00  0.00     0.100 H 
ATOM     17  H   GC4 d1769      22.179  18.336  28.220  0.00  0.00     0.087 H 
ATOM     18  H   GC4 d1769      22.053  16.076  28.279  0.00  0.00     0.041 H 
ATOM     19  H   GC4 d1769      22.900  15.929  26.702  0.00  0.00     0.041 H 
ATOM     20  O5  NAG d1770      29.194  20.046  30.512  0.00  0.00    -0.349 OA
ATOM     21  C4  NAG d1770      28.444  18.885  28.541  0.00  0.00     0.089 C 
ATOM     22  C7  NAG d1770      24.738  21.506  29.839  0.00  0.00     0.214 C 
ATOM     23  O3  NAG d1770      26.107  19.036  27.893  0.00  0.00    -0.348 OA
ATOM     24  C1  NAG d1770      27.851  20.243  31.000  0.00  0.00     0.151 C 
ATOM     25  C6  NAG d1770      30.827  18.654  29.424  0.00  0.00     0.043 C 
ATOM     26  O1  NAG d1770      27.895  21.420  31.700  0.00  0.00    -0.369 OA
ATOM     27  O4  NAG d1770      28.605  17.668  27.843  0.00  0.00    -0.390 OA
ATOM     28  N2  NAG d1770      25.464  20.514  30.286  0.00  0.00    -0.349 N 
ATOM     29  O6  NAG d1770      31.173  19.730  28.605  0.00  0.00    -0.398 OA
ATOM     30  C8  NAG d1770      23.300  21.497  30.398  0.00  0.00    -0.003 C 
ATOM     31  O7  NAG d1770      25.211  22.377  29.047  0.00  0.00    -0.274 OA
ATOM     32  C2  NAG d1770      26.829  20.310  29.891  0.00  0.00     0.087 C 
ATOM     33  C5  NAG d1770      29.326  18.867  29.754  0.00  0.00     0.089 C 
ATOM     34  C3  NAG d1770      26.992  19.085  29.002  0.00  0.00     0.093 C 
ATOM     35  H   NAG d1770      28.704  19.684  27.879  0.00  0.00     0.091 H 
ATOM     36  H   NAG d1770      27.541  19.416  31.606  0.00  0.00     0.132 H 
ATOM     37  H   NAG d1770      30.971  17.727  28.909  0.00  0.00     0.078 H 
ATOM     38  H   NAG d1770      31.431  18.610  30.306  0.00  0.00     0.078 H 
ATOM     39  H   NAG d1770      28.179  22.136  31.111  0.00  0.00     0.212 HD
ATOM     40  H   NAG d1770      28.372  16.929  28.426  0.00  0.00     0.210 HD
ATOM     41  H   NAG d1770      25.057  19.881  30.920  0.00  0.00     0.163 HD
ATOM     42  H   NAG d1770      30.605  19.734  27.819  0.00  0.00     0.209 HD
ATOM     43  H   NAG d1770      23.172  20.651  31.040  0.00  0.00     0.040 H 
ATOM     44  H   NAG d1770      22.603  21.440  29.589  0.00  0.00     0.040 H 
ATOM     45  H   NAG d1770      23.128  22.395  30.955  0.00  0.00     0.040 H 
ATOM     46  H   NAG d1770      27.041  21.209  29.350  0.00  0.00     0.084 H 
ATOM     47  H   NAG d1770      28.988  18.027  30.323  0.00  0.00     0.090 H 
ATOM     48  H   NAG d1770      26.718  18.269  29.637  0.00  0.00     0.091 H 
ENDROOT
TORSDOF 11
ENDMDL
MODEL 12
REMARK VINA RESULT:      -8.2      2.787      3.311
REMARK  0 active torsions:
REMARK  status: ('A' for Active; 'I' for Inactive)
REMARK       I    between atoms: C2_1  and  O2_14 
REMARK       I    between atoms: O3_4  and  C3_18 
REMARK       I    between atoms: C4_5  and  O4_13 
REMARK       I    between atoms: C7_7  and  C8_21 
REMARK       I    between atoms: C7_7  and  N2_15 
REMARK       I    between atoms: O3_8  and  C1_12 
REMARK       I    between atoms: O3_8  and  C3_26 
REMARK       I    between atoms: C1_9  and  O1_11 
REMARK       I    between atoms: C6_10  and  C5_25 
REMARK       I    between atoms: C6_10  and  O6_20 
REMARK       I    between atoms: N2_15  and  C2_23 
REMARK       I    between atoms: C6_16  and  C5_17 
ROOT
ATOM      1  C2  GC4 d1769      26.033  18.071  32.359  0.00  0.00     0.107 C 
ATOM      2  O6B GC4 d1769      25.862  22.061  35.310  0.00  0.00    -0.646 OA
ATOM      3  O3  GC4 d1769      23.672  17.528  32.420  0.00  0.00    -0.393 OA
ATOM      4  O5  GC4 d1769      26.560  20.099  33.622  0.00  0.00    -0.343 OA
ATOM      5  C1  GC4 d1769      26.963  19.285  32.492  0.00  0.00     0.159 C 
ATOM      6  O2  GC4 d1769      26.449  17.192  31.315  0.00  0.00    -0.388 OA
ATOM      7  C6  GC4 d1769      25.007  21.761  34.439  0.00  0.00     0.203 C 
ATOM      8  C5  GC4 d1769      25.332  20.755  33.372  0.00  0.00     0.127 C 
ATOM      9  C3  GC4 d1769      24.602  18.583  32.148  0.00  0.00     0.068 C 
ATOM     10  C4  GC4 d1769      24.207  19.774  33.019  0.00  0.00    -0.005 C 
ATOM     11  O6A GC4 d1769      23.929  22.371  34.403  0.00  0.00    -0.646 OA
ATOM     12  H   GC4 d1769      26.073  17.488  33.255  0.00  0.00     0.094 H 
ATOM     13  H   GC4 d1769      23.895  16.753  31.881  0.00  0.00     0.210 HD
ATOM     14  H   GC4 d1769      26.864  19.835  31.580  0.00  0.00     0.133 H 
ATOM     15  H   GC4 d1769      26.434  17.665  30.468  0.00  0.00     0.210 HD
ATOM     16  H   GC4 d1769      25.443  21.340  32.484  0.00  0.00     0.100 H 
ATOM     17  H   GC4 d1769      24.573  18.913  31.130  0.00  0.00     0.087 H 
ATOM     18  H   GC4 d1769      23.447  20.321  32.501  0.00  0.00     0.041 H 
ATOM     19  H   GC4 d1769      23.888  19.355  33.950  0.00  0.00     0.041 H 
ATOM     20  O5  NAG d1770      31.857  20.919  31.684  0.00  0.00    -0.349 OA
ATOM     21  C4  NAG d1770      30.375  19.977  33.332  0.00  0.00     0.089 C 
ATOM     22  C7  NAG d1770      28.500  18.686  29.196  0.00  0.00     0.214 C 
ATOM     23  O3  NAG d1770      28.293  18.956  32.609  0.00  0.00    -0.348 OA
ATOM     24  C1  NAG d1770      30.839  20.926  30.662  0.00  0.00     0.151 C 
ATOM     25  C6  NAG d1770      32.498  21.237  33.981  0.00  0.00     0.043 C 
ATOM     26  O1  NAG d1770      31.516  20.750  29.484  0.00  0.00    -0.369 OA
ATOM     27  O4  NAG d1770      29.861  20.216  34.625  0.00  0.00    -0.390 OA
ATOM     28  N2  NAG d1770      28.757  19.770  29.880  0.00  0.00    -0.349 N 
ATOM     29  O6  NAG d1770      33.166  20.011  33.946  0.00  0.00    -0.398 OA
ATOM     30  C8  NAG d1770      27.317  18.856  28.221  0.00  0.00    -0.003 C 
ATOM     31  O7  NAG d1770      29.192  17.631  29.333  0.00  0.00    -0.274 OA
ATOM     32  C2  NAG d1770      29.804  19.844  30.859  0.00  0.00     0.087 C 
ATOM     33  C5  NAG d1770      31.325  21.082  32.977  0.00  0.00     0.089 C 
ATOM     34  C3  NAG d1770      29.260  19.942  32.276  0.00  0.00     0.093 C 
ATOM     35  H   NAG d1770      30.867  19.027  33.340  0.00  0.00     0.091 H 
ATOM     36  H   NAG d1770      30.284  21.841  30.684  0.00  0.00     0.132 H 
ATOM     37  H   NAG d1770      32.128  21.435  34.965  0.00  0.00     0.078 H 
ATOM     38  H   NAG d1770      33.141  22.053  33.726  0.00  0.00     0.078 H 
ATOM     39  H   NAG d1770      32.001  19.911  29.512  0.00  0.00     0.212 HD
ATOM     40  H   NAG d1770      29.410  21.075  34.639  0.00  0.00     0.210 HD
ATOM     41  H   NAG d1770      28.208  20.571  29.716  0.00  0.00     0.163 HD
ATOM     42  H   NAG d1770      32.550  19.300  34.182  0.00  0.00     0.209 HD
ATOM     43  H   NAG d1770      26.917  19.844  28.314  0.00  0.00     0.040 H 
ATOM     44  H   NAG d1770      26.556  18.141  28.454  0.00  0.00     0.040 H 
ATOM     45  H   NAG d1770      27.656  18.701  27.218  0.00  0.00     0.040 H 
ATOM     46  H   NAG d1770      30.316  18.916  30.706  0.00  0.00     0.084 H 
ATOM     47  H   NAG d1770      30.733  21.973  33.018  0.00  0.00     0.090 H 
ATOM     48  H   NAG d1770      28.745  20.880  32.289  0.00  0.00     0.091 H 
ENDROOT
TORSDOF 11
ENDMDL
MODEL 13
REMARK VINA RESULT:      -8.0      2.838      6.894
REMARK  0 active torsions:
REMARK  status: ('A' for Active; 'I' for Inactive)
REMARK       I    between atoms: C2_1  and  O2_14 
REMARK       I    between atoms: O3_4  and  C3_18 
REMARK       I    between atoms: C4_5  and  O4_13 
REMARK       I    between atoms: C7_7  and  C8_21 
REMARK       I    between atoms: C7_7  and  N2_15 
REMARK       I    between atoms: O3_8  and  C1_12 
REMARK       I    between atoms: O3_8  and  C3_26 
REMARK       I    between atoms: C1_9  and  O1_11 
REMARK       I    between atoms: C6_10  and  C5_25 
REMARK       I    between atoms: C6_10  and  O6_20 
REMARK       I    between atoms: N2_15  and  C2_23 
REMARK       I    between atoms: C6_16  and  C5_17 
ROOT
ATOM      1  C2  GC4 d1769      30.506  20.375  32.564  0.00  0.00     0.107 C 
ATOM      2  O6B GC4 d1769      29.713  18.975  27.866  0.00  0.00    -0.646 OA
ATOM      3  O3  GC4 d1769      32.795  21.123  32.292  0.00  0.00    -0.393 OA
ATOM      4  O5  GC4 d1769      29.511  19.622  30.460  0.00  0.00    -0.343 OA
ATOM      5  C1  GC4 d1769      29.216  20.220  31.747  0.00  0.00     0.159 C 
ATOM      6  O2  GC4 d1769      30.251  20.873  33.876  0.00  0.00    -0.388 OA
ATOM      7  C6  GC4 d1769      30.353  19.997  28.225  0.00  0.00     0.203 C 
ATOM      8  C5  GC4 d1769      30.224  20.517  29.628  0.00  0.00     0.127 C 
ATOM      9  C3  GC4 d1769      31.467  21.278  31.778  0.00  0.00     0.068 C 
ATOM     10  C4  GC4 d1769      31.525  21.007  30.276  0.00  0.00    -0.005 C 
ATOM     11  O6A GC4 d1769      31.011  20.632  27.389  0.00  0.00    -0.646 OA
ATOM     12  H   GC4 d1769      30.958  19.415  32.707  0.00  0.00     0.094 H 
ATOM     13  H   GC4 d1769      32.794  21.289  33.248  0.00  0.00     0.210 HD
ATOM     14  H   GC4 d1769      28.825  21.207  31.621  0.00  0.00     0.133 H 
ATOM     15  H   GC4 d1769      29.838  21.749  33.815  0.00  0.00     0.210 HD
ATOM     16  H   GC4 d1769      29.642  21.409  29.525  0.00  0.00     0.100 H 
ATOM     17  H   GC4 d1769      31.082  22.268  31.907  0.00  0.00     0.087 H 
ATOM     18  H   GC4 d1769      31.809  21.917  29.791  0.00  0.00     0.041 H 
ATOM     19  H   GC4 d1769      32.225  20.208  30.156  0.00  0.00     0.041 H 
ATOM     20  O5  NAG d1770      24.075  19.401  32.156  0.00  0.00    -0.349 OA
ATOM     21  C4  NAG d1770      26.193  18.302  31.838  0.00  0.00     0.089 C 
ATOM     22  C7  NAG d1770      27.280  22.307  34.087  0.00  0.00     0.214 C 
ATOM     23  O3  NAG d1770      28.240  19.490  32.384  0.00  0.00    -0.348 OA
ATOM     24  C1  NAG d1770      24.682  20.706  32.265  0.00  0.00     0.151 C 
ATOM     25  C6  NAG d1770      23.988  17.228  31.129  0.00  0.00     0.043 C 
ATOM     26  O1  NAG d1770      23.863  21.411  33.107  0.00  0.00    -0.369 OA
ATOM     27  O4  NAG d1770      26.874  17.448  30.942  0.00  0.00    -0.390 OA
ATOM     28  N2  NAG d1770      26.772  21.908  32.951  0.00  0.00    -0.349 N 
ATOM     29  O6  NAG d1770      23.929  16.650  32.398  0.00  0.00    -0.398 OA
ATOM     30  C8  NAG d1770      27.972  23.682  33.986  0.00  0.00    -0.003 C 
ATOM     31  O7  NAG d1770      27.173  21.616  35.147  0.00  0.00    -0.274 OA
ATOM     32  C2  NAG d1770      26.093  20.652  32.801  0.00  0.00     0.087 C 
ATOM     33  C5  NAG d1770      24.804  18.534  31.321  0.00  0.00     0.089 C 
ATOM     34  C3  NAG d1770      26.894  19.663  31.966  0.00  0.00     0.093 C 
ATOM     35  H   NAG d1770      26.179  17.832  32.799  0.00  0.00     0.091 H 
ATOM     36  H   NAG d1770      24.773  21.164  31.302  0.00  0.00     0.132 H 
ATOM     37  H   NAG d1770      24.481  16.575  30.440  0.00  0.00     0.078 H 
ATOM     38  H   NAG d1770      23.015  17.416  30.727  0.00  0.00     0.078 H 
ATOM     39  H   NAG d1770      23.812  20.958  33.963  0.00  0.00     0.212 HD
ATOM     40  H   NAG d1770      26.898  17.855  30.063  0.00  0.00     0.210 HD
ATOM     41  H   NAG d1770      26.858  22.494  32.164  0.00  0.00     0.163 HD
ATOM     42  H   NAG d1770      24.829  16.495  32.725  0.00  0.00     0.209 HD
ATOM     43  H   NAG d1770      27.917  24.036  32.978  0.00  0.00     0.040 H 
ATOM     44  H   NAG d1770      28.998  23.587  34.275  0.00  0.00     0.040 H 
ATOM     45  H   NAG d1770      27.482  24.377  34.636  0.00  0.00     0.040 H 
ATOM     46  H   NAG d1770      26.010  20.321  33.815  0.00  0.00     0.084 H 
ATOM     47  H   NAG d1770      24.942  18.984  30.361  0.00  0.00     0.090 H 
ATOM     48  H   NAG d1770      26.938  20.119  31.000  0.00  0.00     0.091 H 
ENDROOT
TORSDOF 11
ENDMDL
MODEL 14
REMARK VINA RESULT:      -8.0      2.601      4.982
REMARK  0 active torsions:
REMARK  status: ('A' for Active; 'I' for Inactive)
REMARK       I    between atoms: C2_1  and  O2_14 
REMARK       I    between atoms: O3_4  and  C3_18 
REMARK       I    between atoms: C4_5  and  O4_13 
REMARK       I    between atoms: C7_7  and  C8_21 
REMARK       I    between atoms: C7_7  and  N2_15 
REMARK       I    between atoms: O3_8  and  C1_12 
REMARK       I    between atoms: O3_8  and  C3_26 
REMARK       I    between atoms: C1_9  and  O1_11 
REMARK       I    between atoms: C6_10  and  C5_25 
REMARK       I    between atoms: C6_10  and  O6_20 
REMARK       I    between atoms: N2_15  and  C2_23 
REMARK       I    between atoms: C6_16  and  C5_17 
ROOT
ATOM      1  C2  GC4 d1769      26.611  20.713  32.851  0.00  0.00     0.107 C 
ATOM      2  O6B GC4 d1769      24.993  16.820  30.226  0.00  0.00    -0.646 OA
ATOM      3  O3  GC4 d1769      25.225  20.375  34.810  0.00  0.00    -0.393 OA
ATOM      4  O5  GC4 d1769      26.299  18.963  31.170  0.00  0.00    -0.343 OA
ATOM      5  C1  GC4 d1769      27.255  19.907  31.715  0.00  0.00     0.159 C 
ATOM      6  O2  GC4 d1769      27.487  21.719  33.354  0.00  0.00    -0.388 OA
ATOM      7  C6  GC4 d1769      25.206  16.826  31.465  0.00  0.00     0.203 C 
ATOM      8  C5  GC4 d1769      26.026  17.921  32.087  0.00  0.00     0.127 C 
ATOM      9  C3  GC4 d1769      26.168  19.731  33.945  0.00  0.00     0.068 C 
ATOM     10  C4  GC4 d1769      25.517  18.447  33.435  0.00  0.00    -0.005 C 
ATOM     11  O6A GC4 d1769      24.823  15.874  32.157  0.00  0.00    -0.646 OA
ATOM     12  H   GC4 d1769      25.757  21.239  32.479  0.00  0.00     0.094 H 
ATOM     13  H   GC4 d1769      25.609  21.197  35.153  0.00  0.00     0.210 HD
ATOM     14  H   GC4 d1769      28.085  19.391  32.150  0.00  0.00     0.133 H 
ATOM     15  H   GC4 d1769      28.289  21.303  33.710  0.00  0.00     0.210 HD
ATOM     16  H   GC4 d1769      26.952  17.446  32.336  0.00  0.00     0.100 H 
ATOM     17  H   GC4 d1769      27.071  19.450  34.446  0.00  0.00     0.087 H 
ATOM     18  H   GC4 d1769      25.681  17.684  34.167  0.00  0.00     0.041 H 
ATOM     19  H   GC4 d1769      24.487  18.691  33.278  0.00  0.00     0.041 H 
ATOM     20  O5  NAG d1770      30.807  20.159  27.894  0.00  0.00    -0.349 OA
ATOM     21  C4  NAG d1770      28.469  20.449  28.388  0.00  0.00     0.089 C 
ATOM     22  C7  NAG d1770      30.634  21.135  32.527  0.00  0.00     0.214 C 
ATOM     23  O3  NAG d1770      27.766  20.685  30.702  0.00  0.00    -0.348 OA
ATOM     24  C1  NAG d1770      31.133  19.827  29.260  0.00  0.00     0.151 C 
ATOM     25  C6  NAG d1770      29.309  20.008  26.019  0.00  0.00     0.043 C 
ATOM     26  O1  NAG d1770      32.415  20.275  29.440  0.00  0.00    -0.369 OA
ATOM     27  O4  NAG d1770      27.190  19.995  27.999  0.00  0.00    -0.390 OA
ATOM     28  N2  NAG d1770      30.448  20.190  31.644  0.00  0.00    -0.349 N 
ATOM     29  O6  NAG d1770      29.400  21.392  25.856  0.00  0.00    -0.398 OA
ATOM     30  C8  NAG d1770      30.872  20.589  33.950  0.00  0.00    -0.003 C 
ATOM     31  O7  NAG d1770      30.634  22.362  32.203  0.00  0.00    -0.274 OA
ATOM     32  C2  NAG d1770      30.192  20.460  30.257  0.00  0.00     0.087 C 
ATOM     33  C5  NAG d1770      29.502  19.770  27.540  0.00  0.00     0.089 C 
ATOM     34  C3  NAG d1770      28.762  20.122  29.861  0.00  0.00     0.093 C 
ATOM     35  H   NAG d1770      28.497  21.511  28.263  0.00  0.00     0.091 H 
ATOM     36  H   NAG d1770      31.039  18.773  29.427  0.00  0.00     0.132 H 
ATOM     37  H   NAG d1770      28.350  19.654  25.702  0.00  0.00     0.078 H 
ATOM     38  H   NAG d1770      30.036  19.485  25.433  0.00  0.00     0.078 H 
ATOM     39  H   NAG d1770      32.449  21.230  29.278  0.00  0.00     0.212 HD
ATOM     40  H   NAG d1770      27.143  19.032  28.106  0.00  0.00     0.210 HD
ATOM     41  H   NAG d1770      30.484  19.252  31.942  0.00  0.00     0.163 HD
ATOM     42  H   NAG d1770      28.726  21.826  26.401  0.00  0.00     0.209 HD
ATOM     43  H   NAG d1770      30.817  19.521  33.936  0.00  0.00     0.040 H 
ATOM     44  H   NAG d1770      30.126  20.977  34.611  0.00  0.00     0.040 H 
ATOM     45  H   NAG d1770      31.841  20.891  34.291  0.00  0.00     0.040 H 
ATOM     46  H   NAG d1770      30.369  21.514  30.199  0.00  0.00     0.084 H 
ATOM     47  H   NAG d1770      29.368  18.726  27.732  0.00  0.00     0.090 H 
ATOM     48  H   NAG d1770      28.702  19.062  29.996  0.00  0.00     0.091 H 
ENDROOT
TORSDOF 11
ENDMDL
MODEL 15
REMARK VINA RESULT:      -8.0      2.464      4.738
REMARK  0 active torsions:
REMARK  status: ('A' for Active; 'I' for Inactive)
REMARK       I    between atoms: C2_1  and  O2_14 
REMARK       I    between atoms: O3_4  and  C3_18 
REMARK       I    between atoms: C4_5  and  O4_13 
REMARK       I    between atoms: C7_7  and  C8_21 
REMARK       I    between atoms: C7_7  and  N2_15 
REMARK       I    between atoms: O3_8  and  C1_12 
REMARK       I    between atoms: O3_8  and  C3_26 
REMARK       I    between atoms: C1_9  and  O1_11 
REMARK       I    between atoms: C6_10  and  C5_25 
REMARK       I    between atoms: C6_10  and  O6_20 
REMARK       I    between atoms: N2_15  and  C2_23 
REMARK       I    between atoms: C6_16  and  C5_17 
ROOT
ATOM      1  C2  GC4 d1769      26.003  19.970  32.028  0.00  0.00     0.107 C 
ATOM      2  O6B GC4 d1769      25.072  16.286  28.832  0.00  0.00    -0.646 OA
ATOM      3  O3  GC4 d1769      24.409  19.322  33.735  0.00  0.00    -0.393 OA
ATOM      4  O5  GC4 d1769      26.060  18.398  30.155  0.00  0.00    -0.343 OA
ATOM      5  C1  GC4 d1769      26.854  19.341  30.917  0.00  0.00     0.159 C 
ATOM      6  O2  GC4 d1769      26.719  20.975  32.745  0.00  0.00    -0.388 OA
ATOM      7  C6  GC4 d1769      25.122  16.171  30.083  0.00  0.00     0.203 C 
ATOM      8  C5  GC4 d1769      25.759  17.245  30.917  0.00  0.00     0.127 C 
ATOM      9  C3  GC4 d1769      25.507  18.845  32.948  0.00  0.00     0.068 C 
ATOM     10  C4  GC4 d1769      25.037  17.583  32.228  0.00  0.00    -0.005 C 
ATOM     11  O6A GC4 d1769      24.734  15.123  30.617  0.00  0.00    -0.646 OA
ATOM     12  H   GC4 d1769      25.162  20.472  31.596  0.00  0.00     0.094 H 
ATOM     13  H   GC4 d1769      24.674  20.127  34.207  0.00  0.00     0.210 HD
ATOM     14  H   GC4 d1769      27.661  18.841  31.409  0.00  0.00     0.133 H 
ATOM     15  H   GC4 d1769      27.499  20.579  33.164  0.00  0.00     0.210 HD
ATOM     16  H   GC4 d1769      26.682  16.812  31.243  0.00  0.00     0.100 H 
ATOM     17  H   GC4 d1769      26.358  18.575  33.538  0.00  0.00     0.087 H 
ATOM     18  H   GC4 d1769      25.169  16.757  32.896  0.00  0.00     0.041 H 
ATOM     19  H   GC4 d1769      24.020  17.769  31.956  0.00  0.00     0.041 H 
ATOM     20  O5  NAG d1770      30.836  20.261  27.665  0.00  0.00    -0.349 OA
ATOM     21  C4  NAG d1770      28.437  20.330  27.859  0.00  0.00     0.089 C 
ATOM     22  C7  NAG d1770      29.983  20.707  32.304  0.00  0.00     0.214 C 
ATOM     23  O3  NAG d1770      27.423  20.260  30.066  0.00  0.00    -0.348 OA
ATOM     24  C1  NAG d1770      31.009  19.804  29.022  0.00  0.00     0.151 C 
ATOM     25  C6  NAG d1770      29.610  20.212  25.595  0.00  0.00     0.043 C 
ATOM     26  O1  NAG d1770      32.214  20.319  29.421  0.00  0.00    -0.369 OA
ATOM     27  O4  NAG d1770      27.262  19.833  27.255  0.00  0.00    -0.390 OA
ATOM     28  N2  NAG d1770      29.993  19.854  31.313  0.00  0.00    -0.349 N 
ATOM     29  O6  NAG d1770      29.605  21.608  25.586  0.00  0.00    -0.398 OA
ATOM     30  C8  NAG d1770      30.081  20.026  33.684  0.00  0.00    -0.003 C 
ATOM     31  O7  NAG d1770      29.922  21.959  32.106  0.00  0.00    -0.274 OA
ATOM     32  C2  NAG d1770      29.897  20.256  29.939  0.00  0.00     0.087 C 
ATOM     33  C5  NAG d1770      29.625  19.822  27.098  0.00  0.00     0.089 C 
ATOM     34  C3  NAG d1770      28.564  19.864  29.318  0.00  0.00     0.093 C 
ATOM     35  H   NAG d1770      28.391  21.398  27.845  0.00  0.00     0.091 H 
ATOM     36  H   NAG d1770      30.983  18.735  29.069  0.00  0.00     0.132 H 
ATOM     37  H   NAG d1770      28.733  19.829  25.116  0.00  0.00     0.078 H 
ATOM     38  H   NAG d1770      30.448  19.809  25.066  0.00  0.00     0.078 H 
ATOM     39  H   NAG d1770      32.188  21.286  29.361  0.00  0.00     0.212 HD
ATOM     40  H   NAG d1770      27.283  18.863  27.258  0.00  0.00     0.210 HD
ATOM     41  H   NAG d1770      30.070  18.894  31.519  0.00  0.00     0.163 HD
ATOM     42  H   NAG d1770      28.831  21.932  26.074  0.00  0.00     0.209 HD
ATOM     43  H   NAG d1770      30.118  18.965  33.557  0.00  0.00     0.040 H 
ATOM     44  H   NAG d1770      29.226  20.286  34.272  0.00  0.00     0.040 H 
ATOM     45  H   NAG d1770      30.969  20.357  34.183  0.00  0.00     0.040 H 
ATOM     46  H   NAG d1770      29.990  21.320  30.011  0.00  0.00     0.084 H 
ATOM     47  H   NAG d1770      29.556  18.757  27.165  0.00  0.00     0.090 H 
ATOM     48  H   NAG d1770      28.576  18.795  29.337  0.00  0.00     0.091 H 
ENDROOT
TORSDOF 11
ENDMDL
MODEL 16
REMARK VINA RESULT:      -8.0      2.122      6.985
REMARK  0 active torsions:
REMARK  status: ('A' for Active; 'I' for Inactive)
REMARK       I    between atoms: C2_1  and  O2_14 
REMARK       I    between atoms: O3_4  and  C3_18 
REMARK       I    between atoms: C4_5  and  O4_13 
REMARK       I    between atoms: C7_7  and  C8_21 
REMARK       I    between atoms: C7_7  and  N2_15 
REMARK       I    between atoms: O3_8  and  C1_12 
REMARK       I    between atoms: O3_8  and  C3_26 
REMARK       I    between atoms: C1_9  and  O1_11 
REMARK       I    between atoms: C6_10  and  C5_25 
REMARK       I    between atoms: C6_10  and  O6_20 
REMARK       I    between atoms: N2_15  and  C2_23 
REMARK       I    between atoms: C6_16  and  C5_17 
ROOT
ATOM      1  C2  GC4 d1769      30.368  20.601  33.564  0.00  0.00     0.107 C 
ATOM      2  O6B GC4 d1769      33.671  20.723  29.858  0.00  0.00    -0.646 OA
ATOM      3  O3  GC4 d1769      31.660  21.857  35.185  0.00  0.00    -0.393 OA
ATOM      4  O5  GC4 d1769      31.506  20.407  31.407  0.00  0.00    -0.343 OA
ATOM      5  C1  GC4 d1769      30.205  20.464  32.044  0.00  0.00     0.159 C 
ATOM      6  O2  GC4 d1769      29.112  20.567  34.240  0.00  0.00    -0.388 OA
ATOM      7  C6  GC4 d1769      33.415  21.675  30.639  0.00  0.00     0.203 C 
ATOM      8  C5  GC4 d1769      32.166  21.656  31.473  0.00  0.00     0.127 C 
ATOM      9  C3  GC4 d1769      31.144  21.895  33.849  0.00  0.00     0.068 C 
ATOM     10  C4  GC4 d1769      32.321  22.161  32.913  0.00  0.00    -0.005 C 
ATOM     11  O6A GC4 d1769      34.146  22.675  30.645  0.00  0.00    -0.646 OA
ATOM     12  H   GC4 d1769      30.918  19.766  33.943  0.00  0.00     0.094 H 
ATOM     13  H   GC4 d1769      30.935  21.689  35.807  0.00  0.00     0.210 HD
ATOM     14  H   GC4 d1769      29.668  21.332  31.724  0.00  0.00     0.133 H 
ATOM     15  H   GC4 d1769      28.561  21.306  33.938  0.00  0.00     0.210 HD
ATOM     16  H   GC4 d1769      31.534  22.390  31.016  0.00  0.00     0.100 H 
ATOM     17  H   GC4 d1769      30.434  22.682  33.697  0.00  0.00     0.087 H 
ATOM     18  H   GC4 d1769      32.475  23.219  32.874  0.00  0.00     0.041 H 
ATOM     19  H   GC4 d1769      33.143  21.613  33.323  0.00  0.00     0.041 H 
ATOM     20  O5  NAG d1770      27.105  18.504  28.326  0.00  0.00    -0.349 OA
ATOM     21  C4  NAG d1770      29.045  18.041  29.674  0.00  0.00     0.089 C 
ATOM     22  C7  NAG d1770      26.596  21.195  32.191  0.00  0.00     0.214 C 
ATOM     23  O3  NAG d1770      29.454  19.376  31.662  0.00  0.00    -0.348 OA
ATOM     24  C1  NAG d1770      26.892  19.793  28.939  0.00  0.00     0.151 C 
ATOM     25  C6  NAG d1770      28.608  16.832  27.469  0.00  0.00     0.043 C 
ATOM     26  O1  NAG d1770      25.537  19.988  28.895  0.00  0.00    -0.369 OA
ATOM     27  O4  NAG d1770      30.411  17.698  29.569  0.00  0.00    -0.390 OA
ATOM     28  N2  NAG d1770      27.225  21.103  31.049  0.00  0.00    -0.349 N 
ATOM     29  O6  NAG d1770      27.922  15.864  28.203  0.00  0.00    -0.398 OA
ATOM     30  C8  NAG d1770      26.552  22.637  32.739  0.00  0.00    -0.003 C 
ATOM     31  O7  NAG d1770      26.068  20.183  32.747  0.00  0.00    -0.274 OA
ATOM     32  C2  NAG d1770      27.404  19.858  30.358  0.00  0.00     0.087 C 
ATOM     33  C5  NAG d1770      28.464  18.138  28.295  0.00  0.00     0.089 C 
ATOM     34  C3  NAG d1770      28.854  19.395  30.375  0.00  0.00     0.093 C 
ATOM     35  H   NAG d1770      28.557  17.285  30.252  0.00  0.00     0.091 H 
ATOM     36  H   NAG d1770      27.434  20.555  28.418  0.00  0.00     0.132 H 
ATOM     37  H   NAG d1770      29.639  16.565  27.364  0.00  0.00     0.078 H 
ATOM     38  H   NAG d1770      28.218  16.937  26.478  0.00  0.00     0.078 H 
ATOM     39  H   NAG d1770      25.092  19.275  29.379  0.00  0.00     0.212 HD
ATOM     40  H   NAG d1770      30.874  18.372  29.048  0.00  0.00     0.210 HD
ATOM     41  H   NAG d1770      27.592  21.923  30.646  0.00  0.00     0.163 HD
ATOM     42  H   NAG d1770      28.306  15.800  29.092  0.00  0.00     0.209 HD
ATOM     43  H   NAG d1770      27.075  23.288  32.071  0.00  0.00     0.040 H 
ATOM     44  H   NAG d1770      27.015  22.666  33.703  0.00  0.00     0.040 H 
ATOM     45  H   NAG d1770      25.534  22.956  32.823  0.00  0.00     0.040 H 
ATOM     46  H   NAG d1770      26.782  19.196  30.925  0.00  0.00     0.084 H 
ATOM     47  H   NAG d1770      29.036  18.902  27.812  0.00  0.00     0.090 H 
ATOM     48  H   NAG d1770      29.370  20.147  29.816  0.00  0.00     0.091 H 
ENDROOT
TORSDOF 11
ENDMDL
MODEL 17
REMARK VINA RESULT:      -8.0      2.893      5.761
REMARK  0 active torsions:
REMARK  status: ('A' for Active; 'I' for Inactive)
REMARK       I    between atoms: C2_1  and  O2_14 
REMARK       I    between atoms: O3_4  and  C3_18 
REMARK       I    between atoms: C4_5  and  O4_13 
REMARK       I    between atoms: C7_7  and  C8_21 
REMARK       I    between atoms: C7_7  and  N2_15 
REMARK       I    between atoms: O3_8  and  C1_12 
REMARK       I    between atoms: O3_8  and  C3_26 
REMARK       I    between atoms: C1_9  and  O1_11 
REMARK       I    between atoms: C6_10  and  C5_25 
REMARK       I    between atoms: C6_10  and  O6_20 
REMARK       I    between atoms: N2_15  and  C2_23 
REMARK       I    between atoms: C6_16  and  C5_17 
ROOT
ATOM      1  C2  GC4 d1769      27.943  20.217  28.360  0.00  0.00     0.107 C 
ATOM      2  O6B GC4 d1769      30.518  21.716  32.332  0.00  0.00    -0.646 OA
ATOM      3  O3  GC4 d1769      29.645  20.656  26.692  0.00  0.00    -0.393 OA
ATOM      4  O5  GC4 d1769      28.710  20.703  30.631  0.00  0.00    -0.343 OA
ATOM      5  C1  GC4 d1769      27.820  19.868  29.849  0.00  0.00     0.159 C 
ATOM      6  O2  GC4 d1769      27.015  19.484  27.562  0.00  0.00    -0.388 OA
ATOM      7  C6  GC4 d1769      30.986  21.067  31.362  0.00  0.00     0.203 C 
ATOM      8  C5  GC4 d1769      30.065  20.361  30.408  0.00  0.00     0.127 C 
ATOM      9  C3  GC4 d1769      29.396  19.976  27.928  0.00  0.00     0.068 C 
ATOM     10  C4  GC4 d1769      30.452  20.445  28.926  0.00  0.00    -0.005 C 
ATOM     11  O6A GC4 d1769      32.212  20.928  31.252  0.00  0.00    -0.646 OA
ATOM     12  H   GC4 d1769      27.694  21.247  28.211  0.00  0.00     0.094 H 
ATOM     13  H   GC4 d1769      28.989  20.380  26.032  0.00  0.00     0.210 HD
ATOM     14  H   GC4 d1769      28.098  18.839  29.936  0.00  0.00     0.133 H 
ATOM     15  H   GC4 d1769      27.190  18.534  27.653  0.00  0.00     0.210 HD
ATOM     16  H   GC4 d1769      30.188  19.324  30.642  0.00  0.00     0.100 H 
ATOM     17  H   GC4 d1769      29.487  18.913  27.846  0.00  0.00     0.087 H 
ATOM     18  H   GC4 d1769      31.326  19.845  28.783  0.00  0.00     0.041 H 
ATOM     19  H   GC4 d1769      30.596  21.485  28.725  0.00  0.00     0.041 H 
ATOM     20  O5  NAG d1770      24.488  18.153  33.487  0.00  0.00    -0.349 OA
ATOM     21  C4  NAG d1770      25.408  20.139  32.483  0.00  0.00     0.089 C 
ATOM     22  C7  NAG d1770      25.860  16.826  29.151  0.00  0.00     0.214 C 
ATOM     23  O3  NAG d1770      26.540  19.970  30.340  0.00  0.00    -0.348 OA
ATOM     24  C1  NAG d1770      25.239  17.276  32.621  0.00  0.00     0.151 C 
ATOM     25  C6  NAG d1770      24.361  20.157  34.811  0.00  0.00     0.043 C 
ATOM     26  O1  NAG d1770      24.452  16.165  32.470  0.00  0.00    -0.369 OA
ATOM     27  O4  NAG d1770      26.104  21.323  32.808  0.00  0.00    -0.390 OA
ATOM     28  N2  NAG d1770      26.293  17.095  30.355  0.00  0.00    -0.349 N 
ATOM     29  O6  NAG d1770      23.145  20.464  34.198  0.00  0.00    -0.398 OA
ATOM     30  C8  NAG d1770      26.842  15.955  28.340  0.00  0.00    -0.003 C 
ATOM     31  O7  NAG d1770      24.733  17.237  28.739  0.00  0.00    -0.274 OA
ATOM     32  C2  NAG d1770      25.555  17.902  31.285  0.00  0.00     0.087 C 
ATOM     33  C5  NAG d1770      25.159  19.363  33.743  0.00  0.00     0.089 C 
ATOM     34  C3  NAG d1770      26.215  19.253  31.522  0.00  0.00     0.093 C 
ATOM     35  H   NAG d1770      24.491  20.413  32.006  0.00  0.00     0.091 H 
ATOM     36  H   NAG d1770      26.194  17.048  33.048  0.00  0.00     0.132 H 
ATOM     37  H   NAG d1770      24.883  21.051  35.082  0.00  0.00     0.078 H 
ATOM     38  H   NAG d1770      24.227  19.597  35.712  0.00  0.00     0.078 H 
ATOM     39  H   NAG d1770      23.602  16.422  32.082  0.00  0.00     0.212 HD
ATOM     40  H   NAG d1770      26.941  21.097  33.243  0.00  0.00     0.210 HD
ATOM     41  H   NAG d1770      27.163  16.728  30.636  0.00  0.00     0.163 HD
ATOM     42  H   NAG d1770      23.311  20.971  33.388  0.00  0.00     0.209 HD
ATOM     43  H   NAG d1770      27.712  15.756  28.929  0.00  0.00     0.040 H 
ATOM     44  H   NAG d1770      27.126  16.472  27.448  0.00  0.00     0.040 H 
ATOM     45  H   NAG d1770      26.368  15.030  28.080  0.00  0.00     0.040 H 
ATOM     46  H   NAG d1770      24.616  18.016  30.784  0.00  0.00     0.084 H 
ATOM     47  H   NAG d1770      26.134  19.164  34.136  0.00  0.00     0.090 H 
ATOM     48  H   NAG d1770      27.148  19.005  31.985  0.00  0.00     0.091 H 
ENDROOT
TORSDOF 11
ENDMDL
MODEL 18
REMARK VINA RESULT:      -7.9      3.016      6.600
REMARK  0 active torsions:
REMARK  status: ('A' for Active; 'I' for Inactive)
REMARK       I    between atoms: C2_1  and  O2_14 
REMARK       I    between atoms: O3_4  and  C3_18 
REMARK       I    between atoms: C4_5  and  O4_13 
REMARK       I    between atoms: C7_7  and  C8_21 
REMARK       I    between atoms: C7_7  and  N2_15 
REMARK       I    between atoms: O3_8  and  C1_12 
REMARK       I    between atoms: O3_8  and  C3_26 
REMARK       I    between atoms: C1_9  and  O1_11 
REMARK       I    between atoms: C6_10  and  C5_25 
REMARK       I    between atoms: C6_10  and  O6_20 
REMARK       I    between atoms: N2_15  and  C2_23 
REMARK       I    between atoms: C6_16  and  C5_17 
ROOT
ATOM      1  C2  GC4 d1769      27.597  21.360  26.958  0.00  0.00     0.107 C 
ATOM      2  O6B GC4 d1769      29.441  18.592  30.645  0.00  0.00    -0.646 OA
ATOM      3  O3  GC4 d1769      29.513  21.241  25.481  0.00  0.00    -0.393 OA
ATOM      4  O5  GC4 d1769      27.904  20.044  28.999  0.00  0.00    -0.343 OA
ATOM      5  C1  GC4 d1769      26.914  20.543  28.065  0.00  0.00     0.159 C 
ATOM      6  O2  GC4 d1769      26.650  21.949  26.069  0.00  0.00    -0.388 OA
ATOM      7  C6  GC4 d1769      29.592  18.365  29.418  0.00  0.00     0.203 C 
ATOM      8  C5  GC4 d1769      28.706  19.039  28.409  0.00  0.00     0.127 C 
ATOM      9  C3  GC4 d1769      28.587  20.443  26.227  0.00  0.00     0.068 C 
ATOM     10  C4  GC4 d1769      29.403  19.522  27.131  0.00  0.00    -0.005 C 
ATOM     11  O6A GC4 d1769      30.406  17.508  29.049  0.00  0.00    -0.646 OA
ATOM     12  H   GC4 d1769      28.128  22.180  27.394  0.00  0.00     0.094 H 
ATOM     13  H   GC4 d1769      29.026  21.839  24.893  0.00  0.00     0.210 HD
ATOM     14  H   GC4 d1769      26.420  19.732  27.572  0.00  0.00     0.133 H 
ATOM     15  H   GC4 d1769      26.132  21.250  25.638  0.00  0.00     0.210 HD
ATOM     16  H   GC4 d1769      28.060  18.259  28.064  0.00  0.00     0.100 H 
ATOM     17  H   GC4 d1769      27.978  19.819  25.606  0.00  0.00     0.087 H 
ATOM     18  H   GC4 d1769      29.673  18.658  26.560  0.00  0.00     0.041 H 
ATOM     19  H   GC4 d1769      30.235  20.107  27.460  0.00  0.00     0.041 H 
ATOM     20  O5  NAG d1770      22.512  20.117  30.842  0.00  0.00    -0.349 OA
ATOM     21  C4  NAG d1770      24.714  21.090  30.838  0.00  0.00     0.089 C 
ATOM     22  C7  NAG d1770      23.696  20.480  26.269  0.00  0.00     0.214 C 
ATOM     23  O3  NAG d1770      25.942  21.237  28.748  0.00  0.00    -0.348 OA
ATOM     24  C1  NAG d1770      22.690  19.520  29.541  0.00  0.00     0.151 C 
ATOM     25  C6  NAG d1770      23.403  20.712  32.996  0.00  0.00     0.043 C 
ATOM     26  O1  NAG d1770      21.438  19.496  28.985  0.00  0.00    -0.369 OA
ATOM     27  O4  NAG d1770      25.907  21.134  31.594  0.00  0.00    -0.390 OA
ATOM     28  N2  NAG d1770      23.885  19.772  27.352  0.00  0.00    -0.349 N 
ATOM     29  O6  NAG d1770      22.884  21.998  32.836  0.00  0.00    -0.398 OA
ATOM     30  C8  NAG d1770      24.030  19.704  24.978  0.00  0.00    -0.003 C 
ATOM     31  O7  NAG d1770      23.259  21.670  26.317  0.00  0.00    -0.274 OA
ATOM     32  C2  NAG d1770      23.655  20.290  28.671  0.00  0.00     0.087 C 
ATOM     33  C5  NAG d1770      23.720  20.226  31.556  0.00  0.00     0.089 C 
ATOM     34  C3  NAG d1770      24.951  20.495  29.442  0.00  0.00     0.093 C 
ATOM     35  H   NAG d1770      24.354  22.090  30.726  0.00  0.00     0.091 H 
ATOM     36  H   NAG d1770      23.120  18.544  29.626  0.00  0.00     0.132 H 
ATOM     37  H   NAG d1770      24.294  20.737  33.589  0.00  0.00     0.078 H 
ATOM     38  H   NAG d1770      22.719  20.062  33.499  0.00  0.00     0.078 H 
ATOM     39  H   NAG d1770      21.092  20.400  28.929  0.00  0.00     0.212 HD
ATOM     40  H   NAG d1770      26.251  20.235  31.707  0.00  0.00     0.210 HD
ATOM     41  H   NAG d1770      24.200  18.843  27.259  0.00  0.00     0.163 HD
ATOM     42  H   NAG d1770      23.533  22.554  32.378  0.00  0.00     0.209 HD
ATOM     43  H   NAG d1770      24.378  18.725  25.230  0.00  0.00     0.040 H 
ATOM     44  H   NAG d1770      24.791  20.225  24.436  0.00  0.00     0.040 H 
ATOM     45  H   NAG d1770      23.151  19.625  24.372  0.00  0.00     0.040 H 
ATOM     46  H   NAG d1770      23.179  21.226  28.462  0.00  0.00     0.084 H 
ATOM     47  H   NAG d1770      24.191  19.268  31.625  0.00  0.00     0.090 H 
ATOM     48  H   NAG d1770      25.343  19.505  29.552  0.00  0.00     0.091 H 
ENDROOT
TORSDOF 11
ENDMDL
MODEL 19
REMARK VINA RESULT:      -7.9      2.740      7.207
REMARK  0 active torsions:
REMARK  status: ('A' for Active; 'I' for Inactive)
REMARK       I    between atoms: C2_1  and  O2_14 
REMARK       I    between atoms: O3_4  and  C3_18 
REMARK       I    between atoms: C4_5  and  O4_13 
REMARK       I    between atoms: C7_7  and  C8_21 
REMARK       I    between atoms: C7_7  and  N2_15 
REMARK       I    between atoms: O3_8  and  C1_12 
REMARK       I    between atoms: O3_8  and  C3_26 
REMARK       I    between atoms: C1_9  and  O1_11 
REMARK       I    between atoms: C6_10  and  C5_25 
REMARK       I    between atoms: C6_10  and  O6_20 
REMARK       I    between atoms: N2_15  and  C2_23 
REMARK       I    between atoms: C6_16  and  C5_17 
ROOT
ATOM      1  C2  GC4 d1769      27.945  19.190  31.780  0.00  0.00     0.107 C 
ATOM      2  O6B GC4 d1769      29.535  18.504  27.126  0.00  0.00    -0.646 OA
ATOM      3  O3  GC4 d1769      29.732  20.653  32.515  0.00  0.00    -0.393 OA
ATOM      4  O5  GC4 d1769      28.156  18.565  29.424  0.00  0.00    -0.343 OA
ATOM      5  C1  GC4 d1769      27.206  18.793  30.495  0.00  0.00     0.159 C 
ATOM      6  O2  GC4 d1769      27.055  19.333  32.886  0.00  0.00    -0.388 OA
ATOM      7  C6  GC4 d1769      29.578  19.590  27.759  0.00  0.00     0.203 C 
ATOM      8  C5  GC4 d1769      28.754  19.775  29.001  0.00  0.00     0.127 C 
ATOM      9  C3  GC4 d1769      28.734  20.477  31.502  0.00  0.00     0.068 C 
ATOM     10  C4  GC4 d1769      29.445  20.519  30.151  0.00  0.00    -0.005 C 
ATOM     11  O6A GC4 d1769      30.224  20.541  27.300  0.00  0.00    -0.646 OA
ATOM     12  H   GC4 d1769      28.623  18.411  32.060  0.00  0.00     0.094 H 
ATOM     13  H   GC4 d1769      29.313  20.631  33.390  0.00  0.00     0.210 HD
ATOM     14  H   GC4 d1769      26.562  19.614  30.258  0.00  0.00     0.133 H 
ATOM     15  H   GC4 d1769      26.409  20.032  32.693  0.00  0.00     0.210 HD
ATOM     16  H   GC4 d1769      27.974  20.444  28.702  0.00  0.00     0.100 H 
ATOM     17  H   GC4 d1769      28.000  21.256  31.498  0.00  0.00     0.087 H 
ATOM     18  H   GC4 d1769      29.542  21.545  29.865  0.00  0.00     0.041 H 
ATOM     19  H   GC4 d1769      30.376  20.016  30.301  0.00  0.00     0.041 H 
ATOM     20  O5  NAG d1770      22.956  16.348  28.695  0.00  0.00    -0.349 OA
ATOM     21  C4  NAG d1770      25.281  16.044  29.243  0.00  0.00     0.089 C 
ATOM     22  C7  NAG d1770      23.922  19.702  31.899  0.00  0.00     0.214 C 
ATOM     23  O3  NAG d1770      26.396  17.690  30.638  0.00  0.00    -0.348 OA
ATOM     24  C1  NAG d1770      22.964  17.733  29.099  0.00  0.00     0.151 C 
ATOM     25  C6  NAG d1770      24.052  14.485  27.639  0.00  0.00     0.043 C 
ATOM     26  O1  NAG d1770      21.694  17.979  29.551  0.00  0.00    -0.369 OA
ATOM     27  O4  NAG d1770      26.507  15.626  28.679  0.00  0.00    -0.390 OA
ATOM     28  N2  NAG d1770      24.058  19.380  30.640  0.00  0.00    -0.349 N 
ATOM     29  O6  NAG d1770      23.734  13.694  28.744  0.00  0.00    -0.398 OA
ATOM     30  C8  NAG d1770      24.055  21.218  32.150  0.00  0.00    -0.003 C 
ATOM     31  O7  NAG d1770      23.682  18.830  32.789  0.00  0.00    -0.274 OA
ATOM     32  C2  NAG d1770      23.987  18.025  30.170  0.00  0.00     0.087 C 
ATOM     33  C5  NAG d1770      24.205  15.922  28.205  0.00  0.00     0.089 C 
ATOM     34  C3  NAG d1770      25.341  17.508  29.706  0.00  0.00     0.093 C 
ATOM     35  H   NAG d1770      25.078  15.425  30.091  0.00  0.00     0.091 H 
ATOM     36  H   NAG d1770      23.238  18.366  28.280  0.00  0.00     0.132 H 
ATOM     37  H   NAG d1770      24.967  14.157  27.192  0.00  0.00     0.078 H 
ATOM     38  H   NAG d1770      23.303  14.430  26.877  0.00  0.00     0.078 H 
ATOM     39  H   NAG d1770      21.493  17.384  30.290  0.00  0.00     0.212 HD
ATOM     40  H   NAG d1770      26.710  16.176  27.906  0.00  0.00     0.210 HD
ATOM     41  H   NAG d1770      24.215  20.098  29.984  0.00  0.00     0.163 HD
ATOM     42  H   NAG d1770      24.436  13.771  29.409  0.00  0.00     0.209 HD
ATOM     43  H   NAG d1770      24.258  21.716  31.226  0.00  0.00     0.040 H 
ATOM     44  H   NAG d1770      24.857  21.397  32.835  0.00  0.00     0.040 H 
ATOM     45  H   NAG d1770      23.142  21.593  32.565  0.00  0.00     0.040 H 
ATOM     46  H   NAG d1770      23.655  17.504  31.044  0.00  0.00     0.084 H 
ATOM     47  H   NAG d1770      24.522  16.561  27.408  0.00  0.00     0.090 H 
ATOM     48  H   NAG d1770      25.577  18.125  28.864  0.00  0.00     0.091 H 
ENDROOT
TORSDOF 11
ENDMDL
MODEL 20
REMARK VINA RESULT:      -7.9      2.620      4.267
REMARK  0 active torsions:
REMARK  status: ('A' for Active; 'I' for Inactive)
REMARK       I    between atoms: C2_1  and  O2_14 
REMARK       I    between atoms: O3_4  and  C3_18 
REMARK       I    between atoms: C4_5  and  O4_13 
REMARK       I    between atoms: C7_7  and  C8_21 
REMARK       I    between atoms: C7_7  and  N2_15 
REMARK       I    between atoms: O3_8  and  C1_12 
REMARK       I    between atoms: O3_8  and  C3_26 
REMARK       I    between atoms: C1_9  and  O1_11 
REMARK       I    between atoms: C6_10  and  C5_25 
REMARK       I    between atoms: C6_10  and  O6_20 
REMARK       I    between atoms: N2_15  and  C2_23 
REMARK       I    between atoms: C6_16  and  C5_17 
ROOT
ATOM      1  C2  GC4 d1769      29.031  18.740  29.335  0.00  0.00     0.107 C 
ATOM      2  O6B GC4 d1769      24.991  21.204  27.828  0.00  0.00    -0.646 OA
ATOM      3  O3  GC4 d1769      29.668  17.826  27.183  0.00  0.00    -0.393 OA
ATOM      4  O5  GC4 d1769      27.062  20.186  29.192  0.00  0.00    -0.343 OA
ATOM      5  C1  GC4 d1769      28.290  19.948  29.926  0.00  0.00     0.159 C 
ATOM      6  O2  GC4 d1769      30.199  18.411  30.085  0.00  0.00    -0.388 OA
ATOM      7  C6  GC4 d1769      26.074  21.121  27.194  0.00  0.00     0.203 C 
ATOM      8  C5  GC4 d1769      27.327  20.671  27.890  0.00  0.00     0.127 C 
ATOM      9  C3  GC4 d1769      29.353  19.045  27.866  0.00  0.00     0.068 C 
ATOM     10  C4  GC4 d1769      28.230  19.726  27.087  0.00  0.00    -0.005 C 
ATOM     11  O6A GC4 d1769      26.126  21.508  26.019  0.00  0.00    -0.646 OA
ATOM     12  H   GC4 d1769      28.405  17.874  29.389  0.00  0.00     0.094 H 
ATOM     13  H   GC4 d1769      30.381  17.366  27.654  0.00  0.00     0.210 HD
ATOM     14  H   GC4 d1769      28.954  20.780  29.826  0.00  0.00     0.133 H 
ATOM     15  H   GC4 d1769      30.812  19.163  30.075  0.00  0.00     0.210 HD
ATOM     16  H   GC4 d1769      27.912  21.562  27.980  0.00  0.00     0.100 H 
ATOM     17  H   GC4 d1769      30.175  19.730  27.900  0.00  0.00     0.087 H 
ATOM     18  H   GC4 d1769      28.676  20.294  26.298  0.00  0.00     0.041 H 
ATOM     19  H   GC4 d1769      27.592  18.935  26.751  0.00  0.00     0.041 H 
ATOM     20  O5  NAG d1770      27.414  22.563  34.360  0.00  0.00    -0.349 OA
ATOM     21  C4  NAG d1770      26.552  20.827  32.932  0.00  0.00     0.089 C 
ATOM     22  C7  NAG d1770      31.178  20.924  31.996  0.00  0.00     0.214 C 
ATOM     23  O3  NAG d1770      28.012  19.827  31.267  0.00  0.00    -0.348 OA
ATOM     24  C1  NAG d1770      28.564  22.790  33.518  0.00  0.00     0.151 C 
ATOM     25  C6  NAG d1770      25.068  22.080  34.589  0.00  0.00     0.043 C 
ATOM     26  O1  NAG d1770      29.556  23.196  34.372  0.00  0.00    -0.369 OA
ATOM     27  O4  NAG d1770      25.398  20.463  32.204  0.00  0.00    -0.390 OA
ATOM     28  N2  NAG d1770      30.124  21.691  31.894  0.00  0.00    -0.349 N 
ATOM     29  O6  NAG d1770      25.382  21.092  35.525  0.00  0.00    -0.398 OA
ATOM     30  C8  NAG d1770      32.264  21.254  30.950  0.00  0.00    -0.003 C 
ATOM     31  O7  NAG d1770      31.270  20.030  32.891  0.00  0.00    -0.274 OA
ATOM     32  C2  NAG d1770      28.980  21.558  32.751  0.00  0.00     0.087 C 
ATOM     33  C5  NAG d1770      26.291  22.127  33.633  0.00  0.00     0.089 C 
ATOM     34  C3  NAG d1770      27.768  21.012  32.010  0.00  0.00     0.093 C 
ATOM     35  H   NAG d1770      26.767  20.044  33.627  0.00  0.00     0.091 H 
ATOM     36  H   NAG d1770      28.346  23.520  32.766  0.00  0.00     0.132 H 
ATOM     37  H   NAG d1770      24.180  21.821  34.051  0.00  0.00     0.078 H 
ATOM     38  H   NAG d1770      24.881  23.026  35.050  0.00  0.00     0.078 H 
ATOM     39  H   NAG d1770      29.716  22.505  35.033  0.00  0.00     0.212 HD
ATOM     40  H   NAG d1770      25.185  21.161  31.565  0.00  0.00     0.210 HD
ATOM     41  H   NAG d1770      30.114  22.388  31.199  0.00  0.00     0.163 HD
ATOM     42  H   NAG d1770      25.543  20.253  35.067  0.00  0.00     0.209 HD
ATOM     43  H   NAG d1770      31.923  22.048  30.321  0.00  0.00     0.040 H 
ATOM     44  H   NAG d1770      32.461  20.387  30.355  0.00  0.00     0.040 H 
ATOM     45  H   NAG d1770      33.161  21.555  31.450  0.00  0.00     0.040 H 
ATOM     46  H   NAG d1770      29.330  20.860  33.483  0.00  0.00     0.084 H 
ATOM     47  H   NAG d1770      26.072  22.821  32.849  0.00  0.00     0.090 H 
ATOM     48  H   NAG d1770      27.542  21.773  31.292  0.00  0.00     0.091 H 
ENDROOT
TORSDOF 11
ENDMDL
MODEL 21
REMARK VINA RESULT:      -7.7      1.667      1.889
REMARK  0 active torsions:
REMARK  status: ('A' for Active; 'I' for Inactive)
REMARK       I    between atoms: C2_1  and  O2_14 
REMARK       I    between atoms: O3_4  and  C3_18 
REMARK       I    between atoms: C4_5  and  O4_13 
REMARK       I    between atoms: C7_7  and  C8_21 
REMARK       I    between atoms: C7_7  and  N2_15 
REMARK       I    between atoms: O3_8  and  C1_12 
REMARK       I    between atoms: O3_8  and  C3_26 
REMARK       I    between atoms: C1_9  and  O1_11 
REMARK       I    between atoms: C6_10  and  C5_25 
REMARK       I    between atoms: C6_10  and  O6_20 
REMARK       I    between atoms: N2_15  and  C2_23 
REMARK       I    between atoms: C6_16  and  C5_17 
ROOT
ATOM      1  C2  GC4 d1769      25.914  19.175  28.812  0.00  0.00     0.107 C 
ATOM      2  O6B GC4 d1769      24.965  23.077  31.734  0.00  0.00    -0.646 OA
ATOM      3  O3  GC4 d1769      23.837  19.200  27.562  0.00  0.00    -0.393 OA
ATOM      4  O5  GC4 d1769      26.062  21.015  30.418  0.00  0.00    -0.343 OA
ATOM      5  C1  GC4 d1769      26.841  20.137  29.567  0.00  0.00     0.159 C 
ATOM      6  O2  GC4 d1769      26.645  18.230  28.034  0.00  0.00    -0.388 OA
ATOM      7  C6  GC4 d1769      24.672  22.991  30.514  0.00  0.00     0.203 C 
ATOM      8  C5  GC4 d1769      25.316  21.942  29.652  0.00  0.00     0.127 C 
ATOM      9  C3  GC4 d1769      24.952  20.010  27.955  0.00  0.00     0.068 C 
ATOM     10  C4  GC4 d1769      24.391  21.255  28.640  0.00  0.00    -0.005 C 
ATOM     11  O6A GC4 d1769      23.926  23.837  30.003  0.00  0.00    -0.646 OA
ATOM     12  H   GC4 d1769      25.351  18.594  29.513  0.00  0.00     0.094 H 
ATOM     13  H   GC4 d1769      24.159  18.398  27.122  0.00  0.00     0.210 HD
ATOM     14  H   GC4 d1769      27.358  20.700  28.819  0.00  0.00     0.133 H 
ATOM     15  H   GC4 d1769      27.179  18.698  27.373  0.00  0.00     0.210 HD
ATOM     16  H   GC4 d1769      25.999  22.491  29.038  0.00  0.00     0.100 H 
ATOM     17  H   GC4 d1769      25.539  20.343  27.125  0.00  0.00     0.087 H 
ATOM     18  H   GC4 d1769      24.153  21.968  27.879  0.00  0.00     0.041 H 
ATOM     19  H   GC4 d1769      23.548  20.917  29.204  0.00  0.00     0.041 H 
ATOM     20  O5  NAG d1770      31.610  20.582  31.651  0.00  0.00    -0.349 OA
ATOM     21  C4  NAG d1770      29.325  20.004  32.145  0.00  0.00     0.089 C 
ATOM     22  C7  NAG d1770      29.757  19.213  27.511  0.00  0.00     0.214 C 
ATOM     23  O3  NAG d1770      27.806  19.504  30.316  0.00  0.00    -0.348 OA
ATOM     24  C1  NAG d1770      31.325  20.833  30.259  0.00  0.00     0.151 C 
ATOM     25  C6  NAG d1770      30.964  20.727  33.964  0.00  0.00     0.043 C 
ATOM     26  O1  NAG d1770      32.479  20.510  29.595  0.00  0.00    -0.369 OA
ATOM     27  O4  NAG d1770      28.255  20.350  32.999  0.00  0.00    -0.390 OA
ATOM     28  N2  NAG d1770      29.811  20.203  28.363  0.00  0.00    -0.349 N 
ATOM     29  O6  NAG d1770      31.292  19.379  34.121  0.00  0.00    -0.398 OA
ATOM     30  C8  NAG d1770      29.343  19.661  26.094  0.00  0.00    -0.003 C 
ATOM     31  O7  NAG d1770      30.045  18.024  27.848  0.00  0.00    -0.274 OA
ATOM     32  C2  NAG d1770      30.160  20.023  29.744  0.00  0.00     0.087 C 
ATOM     33  C5  NAG d1770      30.510  20.858  32.485  0.00  0.00     0.089 C 
ATOM     34  C3  NAG d1770      28.970  20.237  30.668  0.00  0.00     0.093 C 
ATOM     35  H   NAG d1770      29.539  18.965  32.284  0.00  0.00     0.091 H 
ATOM     36  H   NAG d1770      31.036  21.853  30.108  0.00  0.00     0.132 H 
ATOM     37  H   NAG d1770      30.170  21.001  34.626  0.00  0.00     0.078 H 
ATOM     38  H   NAG d1770      31.787  21.371  34.191  0.00  0.00     0.078 H 
ATOM     39  H   NAG d1770      32.699  19.581  29.762  0.00  0.00     0.212 HD
ATOM     40  H   NAG d1770      28.044  21.290  32.888  0.00  0.00     0.210 HD
ATOM     41  H   NAG d1770      29.605  21.111  28.044  0.00  0.00     0.163 HD
ATOM     42  H   NAG d1770      30.521  18.831  33.907  0.00  0.00     0.209 HD
ATOM     43  H   NAG d1770      29.158  20.715  26.093  0.00  0.00     0.040 H 
ATOM     44  H   NAG d1770      28.454  19.143  25.801  0.00  0.00     0.040 H 
ATOM     45  H   NAG d1770      30.130  19.437  25.404  0.00  0.00     0.040 H 
ATOM     46  H   NAG d1770      30.481  19.002  29.761  0.00  0.00     0.084 H 
ATOM     47  H   NAG d1770      30.176  21.862  32.328  0.00  0.00     0.090 H 
ATOM     48  H   NAG d1770      28.723  21.270  30.534  0.00  0.00     0.091 H 
ENDROOT
TORSDOF 11
ENDMDL
MODEL 22
REMARK VINA RESULT:      -7.7      2.634      3.655
REMARK  0 active torsions:
REMARK  status: ('A' for Active; 'I' for Inactive)
REMARK       I    between atoms: C2_1  and  O2_14 
REMARK       I    between atoms: O3_4  and  C3_18 
REMARK       I    between atoms: C4_5  and  O4_13 
REMARK       I    between atoms: C7_7  and  C8_21 
REMARK       I    between atoms: C7_7  and  N2_15 
REMARK       I    between atoms: O3_8  and  C1_12 
REMARK       I    between atoms: O3_8  and  C3_26 
REMARK       I    between atoms: C1_9  and  O1_11 
REMARK       I    between atoms: C6_10  and  C5_25 
REMARK       I    between atoms: C6_10  and  O6_20 
REMARK       I    between atoms: N2_15  and  C2_23 
REMARK       I    between atoms: C6_16  and  C5_17 
ROOT
ATOM      1  C2  GC4 d1769      22.902  17.755  28.406  0.00  0.00     0.107 C 
ATOM      2  O6B GC4 d1769      22.598  22.632  27.520  0.00  0.00    -0.646 OA
ATOM      3  O3  GC4 d1769      21.438  17.015  26.622  0.00  0.00    -0.393 OA
ATOM      4  O5  GC4 d1769      23.220  20.181  28.411  0.00  0.00    -0.343 OA
ATOM      5  C1  GC4 d1769      23.846  18.917  28.745  0.00  0.00     0.159 C 
ATOM      6  O2  GC4 d1769      23.440  16.496  28.806  0.00  0.00    -0.388 OA
ATOM      7  C6  GC4 d1769      22.667  21.734  26.642  0.00  0.00     0.203 C 
ATOM      8  C5  GC4 d1769      23.115  20.348  27.010  0.00  0.00     0.127 C 
ATOM      9  C3  GC4 d1769      22.600  17.805  26.902  0.00  0.00     0.068 C 
ATOM     10  C4  GC4 d1769      22.347  19.202  26.340  0.00  0.00    -0.005 C 
ATOM     11  O6A GC4 d1769      22.459  22.021  25.455  0.00  0.00    -0.646 OA
ATOM     12  H   GC4 d1769      21.989  17.862  28.955  0.00  0.00     0.094 H 
ATOM     13  H   GC4 d1769      21.565  16.118  26.968  0.00  0.00     0.210 HD
ATOM     14  H   GC4 d1769      24.725  18.765  28.155  0.00  0.00     0.133 H 
ATOM     15  H   GC4 d1769      24.275  16.338  28.339  0.00  0.00     0.210 HD
ATOM     16  H   GC4 d1769      24.098  20.271  26.592  0.00  0.00     0.100 H 
ATOM     17  H   GC4 d1769      23.484  17.429  26.430  0.00  0.00     0.087 H 
ATOM     18  H   GC4 d1769      22.615  19.191  25.304  0.00  0.00     0.041 H 
ATOM     19  H   GC4 d1769      21.313  19.403  26.523  0.00  0.00     0.041 H 
ATOM     20  O5  NAG d1770      27.619  20.424  32.026  0.00  0.00    -0.349 OA
ATOM     21  C4  NAG d1770      25.242  20.486  31.647  0.00  0.00     0.089 C 
ATOM     22  C7  NAG d1770      26.703  16.657  29.303  0.00  0.00     0.214 C 
ATOM     23  O3  NAG d1770      24.254  18.936  30.058  0.00  0.00    -0.348 OA
ATOM     24  C1  NAG d1770      27.865  19.646  30.837  0.00  0.00     0.151 C 
ATOM     25  C6  NAG d1770      26.418  22.182  33.149  0.00  0.00     0.043 C 
ATOM     26  O1  NAG d1770      28.968  18.887  31.130  0.00  0.00    -0.369 OA
ATOM     27  O4  NAG d1770      24.166  21.389  31.502  0.00  0.00    -0.390 OA
ATOM     28  N2  NAG d1770      26.856  17.955  29.286  0.00  0.00    -0.349 N 
ATOM     29  O6  NAG d1770      26.181  21.313  34.216  0.00  0.00    -0.398 OA
ATOM     30  C8  NAG d1770      26.913  16.009  27.919  0.00  0.00    -0.003 C 
ATOM     31  O7  NAG d1770      26.434  16.030  30.373  0.00  0.00    -0.274 OA
ATOM     32  C2  NAG d1770      26.694  18.773  30.455  0.00  0.00     0.087 C 
ATOM     33  C5  NAG d1770      26.498  21.266  31.898  0.00  0.00     0.089 C 
ATOM     34  C3  NAG d1770      25.445  19.640  30.380  0.00  0.00     0.093 C 
ATOM     35  H   NAG d1770      25.019  19.831  32.462  0.00  0.00     0.091 H 
ATOM     36  H   NAG d1770      28.018  20.283  29.991  0.00  0.00     0.132 H 
ATOM     37  H   NAG d1770      25.618  22.885  33.050  0.00  0.00     0.078 H 
ATOM     38  H   NAG d1770      27.312  22.753  33.287  0.00  0.00     0.078 H 
ATOM     39  H   NAG d1770      28.781  18.329  31.901  0.00  0.00     0.212 HD
ATOM     40  H   NAG d1770      24.349  21.993  30.766  0.00  0.00     0.210 HD
ATOM     41  H   NAG d1770      27.091  18.391  28.435  0.00  0.00     0.163 HD
ATOM     42  H   NAG d1770      25.364  20.816  34.052  0.00  0.00     0.209 HD
ATOM     43  H   NAG d1770      27.127  16.770  27.198  0.00  0.00     0.040 H 
ATOM     44  H   NAG d1770      26.026  15.484  27.632  0.00  0.00     0.040 H 
ATOM     45  H   NAG d1770      27.734  15.323  27.967  0.00  0.00     0.040 H 
ATOM     46  H   NAG d1770      26.608  18.040  31.230  0.00  0.00     0.084 H 
ATOM     47  H   NAG d1770      26.608  21.890  31.036  0.00  0.00     0.090 H 
ATOM     48  H   NAG d1770      25.635  20.295  29.556  0.00  0.00     0.091 H 
ENDROOT
TORSDOF 11
ENDMDL
MODEL 23
REMARK VINA RESULT:      -7.7      3.357      6.771
REMARK  0 active torsions:
REMARK  status: ('A' for Active; 'I' for Inactive)
REMARK       I    between atoms: C2_1  and  O2_14 
REMARK       I    between atoms: O3_4  and  C3_18 
REMARK       I    between atoms: C4_5  and  O4_13 
REMARK       I    between atoms: C7_7  and  C8_21 
REMARK       I    between atoms: C7_7  and  N2_15 
REMARK       I    between atoms: O3_8  and  C1_12 
REMARK       I    between atoms: O3_8  and  C3_26 
REMARK       I    between atoms: C1_9  and  O1_11 
REMARK       I    between atoms: C6_10  and  C5_25 
REMARK       I    between atoms: C6_10  and  O6_20 
REMARK       I    between atoms: N2_15  and  C2_23 
REMARK       I    between atoms: C6_16  and  C5_17 
ROOT
ATOM      1  C2  GC4 d1769      26.905  19.082  30.613  0.00  0.00     0.107 C 
ATOM      2  O6B GC4 d1769      24.048  22.747  32.362  0.00  0.00    -0.646 OA
ATOM      3  O3  GC4 d1769      28.342  18.845  32.550  0.00  0.00    -0.393 OA
ATOM      4  O5  GC4 d1769      25.158  20.763  30.942  0.00  0.00    -0.343 OA
ATOM      5  C1  GC4 d1769      25.482  19.529  30.254  0.00  0.00     0.159 C 
ATOM      6  O2  GC4 d1769      27.300  17.921  29.884  0.00  0.00    -0.388 OA
ATOM      7  C6  GC4 d1769      24.468  21.768  33.030  0.00  0.00     0.203 C 
ATOM      8  C5  GC4 d1769      25.008  20.552  32.333  0.00  0.00     0.127 C 
ATOM      9  C3  GC4 d1769      26.972  18.864  32.130  0.00  0.00     0.068 C 
ATOM     10  C4  GC4 d1769      26.254  19.921  32.967  0.00  0.00    -0.005 C 
ATOM     11  O6A GC4 d1769      24.344  21.769  34.262  0.00  0.00    -0.646 OA
ATOM     12  H   GC4 d1769      27.602  19.845  30.332  0.00  0.00     0.094 H 
ATOM     13  H   GC4 d1769      28.829  18.181  32.037  0.00  0.00     0.210 HD
ATOM     14  H   GC4 d1769      24.834  18.740  30.574  0.00  0.00     0.133 H 
ATOM     15  H   GC4 d1769      26.702  17.187  30.096  0.00  0.00     0.210 HD
ATOM     16  H   GC4 d1769      24.250  19.810  32.476  0.00  0.00     0.100 H 
ATOM     17  H   GC4 d1769      26.471  17.934  32.298  0.00  0.00     0.087 H 
ATOM     18  H   GC4 d1769      25.957  19.464  33.887  0.00  0.00     0.041 H 
ATOM     19  H   GC4 d1769      26.955  20.721  33.081  0.00  0.00     0.041 H 
ATOM     20  O5  NAG d1770      21.906  19.457  26.448  0.00  0.00    -0.349 OA
ATOM     21  C4  NAG d1770      23.689  20.760  27.407  0.00  0.00     0.089 C 
ATOM     22  C7  NAG d1770      24.698  16.314  28.631  0.00  0.00     0.214 C 
ATOM     23  O3  NAG d1770      25.272  19.684  28.903  0.00  0.00    -0.348 OA
ATOM     24  C1  NAG d1770      22.085  18.379  27.389  0.00  0.00     0.151 C 
ATOM     25  C6  NAG d1770      21.860  21.815  25.972  0.00  0.00     0.043 C 
ATOM     26  O1  NAG d1770      21.719  17.247  26.708  0.00  0.00    -0.369 OA
ATOM     27  O4  NAG d1770      23.957  22.029  27.964  0.00  0.00    -0.390 OA
ATOM     28  N2  NAG d1770      23.775  17.218  28.831  0.00  0.00    -0.349 N 
ATOM     29  O6  NAG d1770      22.681  21.589  24.865  0.00  0.00    -0.398 OA
ATOM     30  C8  NAG d1770      24.807  15.301  29.790  0.00  0.00    -0.003 C 
ATOM     31  O7  NAG d1770      25.393  16.292  27.571  0.00  0.00    -0.274 OA
ATOM     32  C2  NAG d1770      23.503  18.272  27.895  0.00  0.00     0.087 C 
ATOM     33  C5  NAG d1770      22.249  20.710  26.990  0.00  0.00     0.089 C 
ATOM     34  C3  NAG d1770      23.937  19.633  28.422  0.00  0.00     0.093 C 
ATOM     35  H   NAG d1770      24.342  20.618  26.573  0.00  0.00     0.091 H 
ATOM     36  H   NAG d1770      21.494  18.539  28.267  0.00  0.00     0.132 H 
ATOM     37  H   NAG d1770      22.042  22.786  26.384  0.00  0.00     0.078 H 
ATOM     38  H   NAG d1770      20.822  21.781  25.717  0.00  0.00     0.078 H 
ATOM     39  H   NAG d1770      22.281  17.146  25.925  0.00  0.00     0.212 HD
ATOM     40  H   NAG d1770      23.374  22.178  28.725  0.00  0.00     0.210 HD
ATOM     41  H   NAG d1770      23.243  17.174  29.659  0.00  0.00     0.163 HD
ATOM     42  H   NAG d1770      23.611  21.630  25.138  0.00  0.00     0.209 HD
ATOM     43  H   NAG d1770      24.104  15.556  30.554  0.00  0.00     0.040 H 
ATOM     44  H   NAG d1770      25.797  15.325  30.193  0.00  0.00     0.040 H 
ATOM     45  H   NAG d1770      24.594  14.317  29.425  0.00  0.00     0.040 H 
ATOM     46  H   NAG d1770      24.095  17.980  27.052  0.00  0.00     0.084 H 
ATOM     47  H   NAG d1770      21.698  20.880  27.892  0.00  0.00     0.090 H 
ATOM     48  H   NAG d1770      23.307  19.791  29.272  0.00  0.00     0.091 H 
ENDROOT
TORSDOF 11
ENDMDL
MODEL 24
REMARK VINA RESULT:      -7.7      2.875      5.703
REMARK  0 active torsions:
REMARK  status: ('A' for Active; 'I' for Inactive)
REMARK       I    between atoms: C2_1  and  O2_14 
REMARK       I    between atoms: O3_4  and  C3_18 
REMARK       I    between atoms: C4_5  and  O4_13 
REMARK       I    between atoms: C7_7  and  C8_21 
REMARK       I    between atoms: C7_7  and  N2_15 
REMARK       I    between atoms: O3_8  and  C1_12 
REMARK       I    between atoms: O3_8  and  C3_26 
REMARK       I    between atoms: C1_9  and  O1_11 
REMARK       I    between atoms: C6_10  and  C5_25 
REMARK       I    between atoms: C6_10  and  O6_20 
REMARK       I    between atoms: N2_15  and  C2_23 
REMARK       I    between atoms: C6_16  and  C5_17 
ROOT
ATOM      1  C2  GC4 d1769      27.266  20.577  27.897  0.00  0.00     0.107 C 
ATOM      2  O6B GC4 d1769      30.970  20.908  31.188  0.00  0.00    -0.646 OA
ATOM      3  O3  GC4 d1769      28.593  20.874  25.892  0.00  0.00    -0.393 OA
ATOM      4  O5  GC4 d1769      28.629  20.559  29.928  0.00  0.00    -0.343 OA
ATOM      5  C1  GC4 d1769      27.407  20.054  29.333  0.00  0.00     0.159 C 
ATOM      6  O2  GC4 d1769      26.030  20.181  27.304  0.00  0.00    -0.388 OA
ATOM      7  C6  GC4 d1769      31.030  20.318  30.079  0.00  0.00     0.203 C 
ATOM      8  C5  GC4 d1769      29.771  19.970  29.337  0.00  0.00     0.127 C 
ATOM      9  C3  GC4 d1769      28.477  20.094  27.088  0.00  0.00     0.068 C 
ATOM     10  C4  GC4 d1769      29.816  20.178  27.818  0.00  0.00    -0.005 C 
ATOM     11  O6A GC4 d1769      32.126  19.937  29.647  0.00  0.00    -0.646 OA
ATOM     12  H   GC4 d1769      27.247  21.647  27.905  0.00  0.00     0.094 H 
ATOM     13  H   GC4 d1769      27.756  20.841  25.402  0.00  0.00     0.210 HD
ATOM     14  H   GC4 d1769      27.439  18.987  29.258  0.00  0.00     0.133 H 
ATOM     15  H   GC4 d1769      25.984  19.212  27.267  0.00  0.00     0.210 HD
ATOM     16  H   GC4 d1769      29.690  18.908  29.443  0.00  0.00     0.100 H 
ATOM     17  H   GC4 d1769      28.286  19.059  26.895  0.00  0.00     0.087 H 
ATOM     18  H   GC4 d1769      30.461  19.431  27.405  0.00  0.00     0.041 H 
ATOM     19  H   GC4 d1769      30.158  21.181  27.675  0.00  0.00     0.041 H 
ATOM     20  O5  NAG d1770      24.687  18.594  33.545  0.00  0.00    -0.349 OA
ATOM     21  C4  NAG d1770      25.805  20.458  32.511  0.00  0.00     0.089 C 
ATOM     22  C7  NAG d1770      24.661  17.634  28.906  0.00  0.00     0.214 C 
ATOM     23  O3  NAG d1770      26.338  20.357  30.143  0.00  0.00    -0.348 OA
ATOM     24  C1  NAG d1770      24.983  17.708  32.445  0.00  0.00     0.151 C 
ATOM     25  C6  NAG d1770      25.358  20.369  35.023  0.00  0.00     0.043 C 
ATOM     26  O1  NAG d1770      23.936  16.825  32.407  0.00  0.00    -0.369 OA
ATOM     27  O4  NAG d1770      26.824  21.407  32.745  0.00  0.00    -0.390 OA
ATOM     28  N2  NAG d1770      25.411  17.630  29.976  0.00  0.00    -0.349 N 
ATOM     29  O6  NAG d1770      24.146  21.014  34.770  0.00  0.00    -0.398 OA
ATOM     30  C8  NAG d1770      25.188  16.697  27.799  0.00  0.00    -0.003 C 
ATOM     31  O7  NAG d1770      23.604  18.332  28.833  0.00  0.00    -0.274 OA
ATOM     32  C2  NAG d1770      25.125  18.436  31.130  0.00  0.00     0.087 C 
ATOM     33  C5  NAG d1770      25.672  19.583  33.722  0.00  0.00     0.089 C 
ATOM     34  C3  NAG d1770      26.130  19.565  31.303  0.00  0.00     0.093 C 
ATOM     35  H   NAG d1770      24.898  20.988  32.310  0.00  0.00     0.091 H 
ATOM     36  H   NAG d1770      25.925  17.222  32.591  0.00  0.00     0.132 H 
ATOM     37  H   NAG d1770      26.129  21.083  35.226  0.00  0.00     0.078 H 
ATOM     38  H   NAG d1770      25.303  19.728  35.877  0.00  0.00     0.078 H 
ATOM     39  H   NAG d1770      23.108  17.311  32.273  0.00  0.00     0.212 HD
ATOM     40  H   NAG d1770      27.658  20.947  32.930  0.00  0.00     0.210 HD
ATOM     41  H   NAG d1770      26.206  17.049  29.993  0.00  0.00     0.163 HD
ATOM     42  H   NAG d1770      24.239  21.584  33.991  0.00  0.00     0.209 HD
ATOM     43  H   NAG d1770      26.095  16.234  28.126  0.00  0.00     0.040 H 
ATOM     44  H   NAG d1770      25.377  17.263  26.912  0.00  0.00     0.040 H 
ATOM     45  H   NAG d1770      24.458  15.942  27.592  0.00  0.00     0.040 H 
ATOM     46  H   NAG d1770      24.152  18.818  30.898  0.00  0.00     0.084 H 
ATOM     47  H   NAG d1770      26.632  19.125  33.834  0.00  0.00     0.090 H 
ATOM     48  H   NAG d1770      27.055  19.060  31.489  0.00  0.00     0.091 H 
ENDROOT
TORSDOF 11
ENDMDL
MODEL 25
REMARK VINA RESULT:      -7.7      2.230      7.166
REMARK  0 active torsions:
REMARK  status: ('A' for Active; 'I' for Inactive)
REMARK       I    between atoms: C2_1  and  O2_14 
REMARK       I    between atoms: O3_4  and  C3_18 
REMARK       I    between atoms: C4_5  and  O4_13 
REMARK       I    between atoms: C7_7  and  C8_21 
REMARK       I    between atoms: C7_7  and  N2_15 
REMARK       I    between atoms: O3_8  and  C1_12 
REMARK       I    between atoms: O3_8  and  C3_26 
REMARK       I    between atoms: C1_9  and  O1_11 
REMARK       I    between atoms: C6_10  and  C5_25 
REMARK       I    between atoms: C6_10  and  O6_20 
REMARK       I    between atoms: N2_15  and  C2_23 
REMARK       I    between atoms: C6_16  and  C5_17 
ROOT
ATOM      1  C2  GC4 d1769      30.839  20.627  33.519  0.00  0.00     0.107 C 
ATOM      2  O6B GC4 d1769      32.474  20.187  28.851  0.00  0.00    -0.646 OA
ATOM      3  O3  GC4 d1769      32.911  21.401  34.511  0.00  0.00    -0.393 OA
ATOM      4  O5  GC4 d1769      31.020  20.310  31.100  0.00  0.00    -0.343 OA
ATOM      5  C1  GC4 d1769      30.104  20.644  32.172  0.00  0.00     0.159 C 
ATOM      6  O2  GC4 d1769      29.954  20.858  34.614  0.00  0.00    -0.388 OA
ATOM      7  C6  GC4 d1769      32.776  21.114  29.645  0.00  0.00     0.203 C 
ATOM      8  C5  GC4 d1769      31.957  21.347  30.883  0.00  0.00     0.127 C 
ATOM      9  C3  GC4 d1769      31.971  21.662  33.461  0.00  0.00     0.068 C 
ATOM     10  C4  GC4 d1769      32.752  21.692  32.149  0.00  0.00    -0.005 C 
ATOM     11  O6A GC4 d1769      33.689  21.897  29.352  0.00  0.00    -0.646 OA
ATOM     12  H   GC4 d1769      31.255  19.655  33.689  0.00  0.00     0.094 H 
ATOM     13  H   GC4 d1769      32.446  21.375  35.362  0.00  0.00     0.210 HD
ATOM     14  H   GC4 d1769      29.730  21.639  32.051  0.00  0.00     0.133 H 
ATOM     15  H   GC4 d1769      29.542  21.731  34.518  0.00  0.00     0.210 HD
ATOM     16  H   GC4 d1769      31.415  22.246  30.673  0.00  0.00     0.100 H 
ATOM     17  H   GC4 d1769      31.485  22.610  33.562  0.00  0.00     0.087 H 
ATOM     18  H   GC4 d1769      33.148  22.678  32.027  0.00  0.00     0.041 H 
ATOM     19  H   GC4 d1769      33.495  20.929  32.239  0.00  0.00     0.041 H 
ATOM     20  O5  NAG d1770      25.468  19.791  29.923  0.00  0.00    -0.349 OA
ATOM     21  C4  NAG d1770      27.576  18.763  30.467  0.00  0.00     0.089 C 
ATOM     22  C7  NAG d1770      27.118  22.239  33.628  0.00  0.00     0.214 C 
ATOM     23  O3  NAG d1770      29.012  19.808  32.125  0.00  0.00    -0.348 OA
ATOM     24  C1  NAG d1770      25.834  21.044  30.537  0.00  0.00     0.151 C 
ATOM     25  C6  NAG d1770      26.069  17.863  28.614  0.00  0.00     0.043 C 
ATOM     26  O1  NAG d1770      24.656  21.574  30.994  0.00  0.00    -0.369 OA
ATOM     27  O4  NAG d1770      28.671  18.099  29.872  0.00  0.00    -0.390 OA
ATOM     28  N2  NAG d1770      27.240  22.075  32.337  0.00  0.00    -0.349 N 
ATOM     29  O6  NAG d1770      25.472  17.046  29.577  0.00  0.00    -0.398 OA
ATOM     30  C8  NAG d1770      27.650  23.603  34.114  0.00  0.00    -0.003 C 
ATOM     31  O7  NAG d1770      26.588  21.354  34.367  0.00  0.00    -0.274 OA
ATOM     32  C2  NAG d1770      26.827  20.878  31.662  0.00  0.00     0.087 C 
ATOM     33  C5  NAG d1770      26.578  19.101  29.400  0.00  0.00     0.089 C 
ATOM     34  C3  NAG d1770      28.010  20.068  31.153  0.00  0.00     0.093 C 
ATOM     35  H   NAG d1770      27.155  18.114  31.205  0.00  0.00     0.091 H 
ATOM     36  H   NAG d1770      26.326  21.683  29.832  0.00  0.00     0.132 H 
ATOM     37  H   NAG d1770      26.884  17.356  28.142  0.00  0.00     0.078 H 
ATOM     38  H   NAG d1770      25.385  18.133  27.837  0.00  0.00     0.078 H 
ATOM     39  H   NAG d1770      24.250  20.962  31.626  0.00  0.00     0.212 HD
ATOM     40  H   NAG d1770      29.069  18.672  29.198  0.00  0.00     0.210 HD
ATOM     41  H   NAG d1770      27.633  22.804  31.805  0.00  0.00     0.163 HD
ATOM     42  H   NAG d1770      26.123  16.825  30.261  0.00  0.00     0.209 HD
ATOM     43  H   NAG d1770      28.043  24.149  33.283  0.00  0.00     0.040 H 
ATOM     44  H   NAG d1770      28.424  23.447  34.836  0.00  0.00     0.040 H 
ATOM     45  H   NAG d1770      26.853  24.159  34.562  0.00  0.00     0.040 H 
ATOM     46  H   NAG d1770      26.307  20.353  32.437  0.00  0.00     0.084 H 
ATOM     47  H   NAG d1770      27.111  19.731  28.719  0.00  0.00     0.090 H 
ATOM     48  H   NAG d1770      28.462  20.706  30.422  0.00  0.00     0.091 H 
ENDROOT
TORSDOF 11
ENDMDL
MODEL 26
REMARK VINA RESULT:      -7.7      2.574      6.821
REMARK  0 active torsions:
REMARK  status: ('A' for Active; 'I' for Inactive)
REMARK       I    between atoms: C2_1  and  O2_14 
REMARK       I    between atoms: O3_4  and  C3_18 
REMARK       I    between atoms: C4_5  and  O4_13 
REMARK       I    between atoms: C7_7  and  C8_21 
REMARK       I    between atoms: C7_7  and  N2_15 
REMARK       I    between atoms: O3_8  and  C1_12 
REMARK       I    between atoms: O3_8  and  C3_26 
REMARK       I    between atoms: C1_9  and  O1_11 
REMARK       I    between atoms: C6_10  and  C5_25 
REMARK       I    between atoms: C6_10  and  O6_20 
REMARK       I    between atoms: N2_15  and  C2_23 
REMARK       I    between atoms: C6_16  and  C5_17 
ROOT
ATOM      1  C2  GC4 d1769      29.496  19.196  30.990  0.00  0.00     0.107 C 
ATOM      2  O6B GC4 d1769      29.371  18.984  26.030  0.00  0.00    -0.646 OA
ATOM      3  O3  GC4 d1769      31.554  20.456  31.204  0.00  0.00    -0.393 OA
ATOM      4  O5  GC4 d1769      28.849  18.847  28.656  0.00  0.00    -0.343 OA
ATOM      5  C1  GC4 d1769      28.336  18.999  30.004  0.00  0.00     0.159 C 
ATOM      6  O2  GC4 d1769      29.042  19.256  32.341  0.00  0.00    -0.388 OA
ATOM      7  C6  GC4 d1769      29.724  19.982  26.709  0.00  0.00     0.203 C 
ATOM      8  C5  GC4 d1769      29.383  20.064  28.170  0.00  0.00     0.127 C 
ATOM      9  C3  GC4 d1769      30.264  20.460  30.581  0.00  0.00     0.068 C 
ATOM     10  C4  GC4 d1769      30.484  20.624  29.078  0.00  0.00    -0.005 C 
ATOM     11  O6A GC4 d1769      30.267  20.943  26.148  0.00  0.00    -0.646 OA
ATOM     12  H   GC4 d1769      30.152  18.352  30.946  0.00  0.00     0.094 H 
ATOM     13  H   GC4 d1769      31.451  20.354  32.163  0.00  0.00     0.210 HD
ATOM     14  H   GC4 d1769      27.731  19.877  30.078  0.00  0.00     0.133 H 
ATOM     15  H   GC4 d1769      28.438  20.007  32.447  0.00  0.00     0.210 HD
ATOM     16  H   GC4 d1769      28.614  20.807  28.219  0.00  0.00     0.100 H 
ATOM     17  H   GC4 d1769      29.648  21.274  30.901  0.00  0.00     0.087 H 
ATOM     18  H   GC4 d1769      30.576  21.670  28.874  0.00  0.00     0.041 H 
ATOM     19  H   GC4 d1769      31.361  20.054  28.853  0.00  0.00     0.041 H 
ATOM     20  O5  NAG d1770      23.520  17.032  29.544  0.00  0.00    -0.349 OA
ATOM     21  C4  NAG d1770      25.855  16.533  29.232  0.00  0.00     0.089 C 
ATOM     22  C7  NAG d1770      25.809  19.917  32.524  0.00  0.00     0.214 C 
ATOM     23  O3  NAG d1770      27.521  17.934  30.311  0.00  0.00    -0.348 OA
ATOM     24  C1  NAG d1770      23.792  18.356  30.048  0.00  0.00     0.151 C 
ATOM     25  C6  NAG d1770      24.020  15.250  28.006  0.00  0.00     0.043 C 
ATOM     26  O1  NAG d1770      22.775  18.618  30.928  0.00  0.00    -0.369 OA
ATOM     27  O4  NAG d1770      26.777  16.118  28.247  0.00  0.00    -0.390 OA
ATOM     28  N2  NAG d1770      25.486  19.742  31.270  0.00  0.00    -0.349 N 
ATOM     29  O6  NAG d1770      24.016  14.351  29.075  0.00  0.00    -0.398 OA
ATOM     30  C8  NAG d1770      26.161  21.382  32.856  0.00  0.00    -0.003 C 
ATOM     31  O7  NAG d1770      25.799  18.959  33.357  0.00  0.00    -0.274 OA
ATOM     32  C2  NAG d1770      25.136  18.459  30.728  0.00  0.00     0.087 C 
ATOM     33  C5  NAG d1770      24.488  16.598  28.619  0.00  0.00     0.089 C 
ATOM     34  C3  NAG d1770      26.203  17.925  29.782  0.00  0.00     0.093 C 
ATOM     35  H   NAG d1770      25.889  15.830  30.037  0.00  0.00     0.091 H 
ATOM     36  H   NAG d1770      23.836  19.066  29.248  0.00  0.00     0.132 H 
ATOM     37  H   NAG d1770      24.699  14.927  27.245  0.00  0.00     0.078 H 
ATOM     38  H   NAG d1770      23.058  15.330  27.545  0.00  0.00     0.078 H 
ATOM     39  H   NAG d1770      22.777  17.951  31.632  0.00  0.00     0.212 HD
ATOM     40  H   NAG d1770      26.762  16.743  27.506  0.00  0.00     0.210 HD
ATOM     41  H   NAG d1770      25.483  20.523  30.670  0.00  0.00     0.163 HD
ATOM     42  H   NAG d1770      24.903  14.308  29.464  0.00  0.00     0.209 HD
ATOM     43  H   NAG d1770      26.089  21.975  31.968  0.00  0.00     0.040 H 
ATOM     44  H   NAG d1770      27.158  21.432  33.239  0.00  0.00     0.040 H 
ATOM     45  H   NAG d1770      25.477  21.756  33.590  0.00  0.00     0.040 H 
ATOM     46  H   NAG d1770      25.067  17.856  31.610  0.00  0.00     0.084 H 
ATOM     47  H   NAG d1770      24.579  17.309  27.825  0.00  0.00     0.090 H 
ATOM     48  H   NAG d1770      26.202  18.624  28.973  0.00  0.00     0.091 H 
ENDROOT
TORSDOF 11
ENDMDL
MODEL 27
REMARK VINA RESULT:      -7.7      2.136      2.560
REMARK  0 active torsions:
REMARK  status: ('A' for Active; 'I' for Inactive)
REMARK       I    between atoms: C2_1  and  O2_14 
REMARK       I    between atoms: O3_4  and  C3_18 
REMARK       I    between atoms: C4_5  and  O4_13 
REMARK       I    between atoms: C7_7  and  C8_21 
REMARK       I    between atoms: C7_7  and  N2_15 
REMARK       I    between atoms: O3_8  and  C1_12 
REMARK       I    between atoms: O3_8  and  C3_26 
REMARK       I    between atoms: C1_9  and  O1_11 
REMARK       I    between atoms: C6_10  and  C5_25 
REMARK       I    between atoms: C6_10  and  O6_20 
REMARK       I    between atoms: N2_15  and  C2_23 
REMARK       I    between atoms: C6_16  and  C5_17 
ROOT
ATOM      1  C2  GC4 d1769      26.707  17.142  29.008  0.00  0.00     0.107 C 
ATOM      2  O6B GC4 d1769      23.282  19.006  32.082  0.00  0.00    -0.646 OA
ATOM      3  O3  GC4 d1769      25.188  16.145  27.404  0.00  0.00    -0.393 OA
ATOM      4  O5  GC4 d1769      25.534  18.338  30.791  0.00  0.00    -0.343 OA
ATOM      5  C1  GC4 d1769      26.758  18.299  30.015  0.00  0.00     0.159 C 
ATOM      6  O2  GC4 d1769      27.930  17.008  28.287  0.00  0.00    -0.388 OA
ATOM      7  C6  GC4 d1769      23.209  18.999  30.827  0.00  0.00     0.203 C 
ATOM      8  C5  GC4 d1769      24.436  18.749  29.998  0.00  0.00     0.127 C 
ATOM      9  C3  GC4 d1769      25.508  17.369  28.076  0.00  0.00     0.068 C 
ATOM     10  C4  GC4 d1769      24.236  17.856  28.768  0.00  0.00    -0.005 C 
ATOM     11  O6A GC4 d1769      22.142  19.299  30.274  0.00  0.00    -0.646 OA
ATOM     12  H   GC4 d1769      26.581  16.216  29.530  0.00  0.00     0.094 H 
ATOM     13  H   GC4 d1769      25.977  15.808  26.952  0.00  0.00     0.210 HD
ATOM     14  H   GC4 d1769      26.865  19.192  29.436  0.00  0.00     0.133 H 
ATOM     15  H   GC4 d1769      28.103  17.821  27.788  0.00  0.00     0.210 HD
ATOM     16  H   GC4 d1769      24.669  19.706  29.579  0.00  0.00     0.100 H 
ATOM     17  H   GC4 d1769      25.821  18.144  27.407  0.00  0.00     0.087 H 
ATOM     18  H   GC4 d1769      23.666  18.409  28.052  0.00  0.00     0.041 H 
ATOM     19  H   GC4 d1769      23.751  16.974  29.129  0.00  0.00     0.041 H 
ATOM     20  O5  NAG d1770      29.996  21.127  32.980  0.00  0.00    -0.349 OA
ATOM     21  C4  NAG d1770      28.552  19.200  32.982  0.00  0.00     0.089 C 
ATOM     22  C7  NAG d1770      29.761  19.754  28.452  0.00  0.00     0.214 C 
ATOM     23  O3  NAG d1770      27.841  18.250  30.862  0.00  0.00    -0.348 OA
ATOM     24  C1  NAG d1770      29.731  21.419  31.592  0.00  0.00     0.151 C 
ATOM     25  C6  NAG d1770      29.216  20.397  35.136  0.00  0.00     0.043 C 
ATOM     26  O1  NAG d1770      30.881  22.000  31.125  0.00  0.00    -0.369 OA
ATOM     27  O4  NAG d1770      27.437  18.652  33.653  0.00  0.00    -0.390 OA
ATOM     28  N2  NAG d1770      29.112  20.385  29.395  0.00  0.00    -0.349 N 
ATOM     29  O6  NAG d1770      30.305  19.527  35.215  0.00  0.00    -0.398 OA
ATOM     30  C8  NAG d1770      29.275  20.125  27.036  0.00  0.00    -0.003 C 
ATOM     31  O7  NAG d1770      30.704  18.947  28.715  0.00  0.00    -0.274 OA
ATOM     32  C2  NAG d1770      29.381  20.188  30.791  0.00  0.00     0.087 C 
ATOM     33  C5  NAG d1770      28.904  20.511  33.620  0.00  0.00     0.089 C 
ATOM     34  C3  NAG d1770      28.251  19.452  31.496  0.00  0.00     0.093 C 
ATOM     35  H   NAG d1770      29.359  18.502  33.052  0.00  0.00     0.091 H 
ATOM     36  H   NAG d1770      28.879  22.060  31.495  0.00  0.00     0.132 H 
ATOM     37  H   NAG d1770      28.376  19.999  35.664  0.00  0.00     0.078 H 
ATOM     38  H   NAG d1770      29.430  21.349  35.576  0.00  0.00     0.078 H 
ATOM     39  H   NAG d1770      31.621  21.384  31.235  0.00  0.00     0.212 HD
ATOM     40  H   NAG d1770      26.692  19.271  33.600  0.00  0.00     0.210 HD
ATOM     41  H   NAG d1770      28.407  21.022  29.136  0.00  0.00     0.163 HD
ATOM     42  H   NAG d1770      30.070  18.679  34.807  0.00  0.00     0.209 HD
ATOM     43  H   NAG d1770      28.469  20.825  27.107  0.00  0.00     0.040 H 
ATOM     44  H   NAG d1770      28.938  19.244  26.532  0.00  0.00     0.040 H 
ATOM     45  H   NAG d1770      30.081  20.564  26.485  0.00  0.00     0.040 H 
ATOM     46  H   NAG d1770      30.270  19.593  30.765  0.00  0.00     0.084 H 
ATOM     47  H   NAG d1770      28.027  21.113  33.506  0.00  0.00     0.090 H 
ATOM     48  H   NAG d1770      27.422  20.125  31.423  0.00  0.00     0.091 H 
ENDROOT
TORSDOF 11
ENDMDL
MODEL 28
REMARK VINA RESULT:      -7.6      2.692      7.262
REMARK  0 active torsions:
REMARK  status: ('A' for Active; 'I' for Inactive)
REMARK       I    between atoms: C2_1  and  O2_14 
REMARK       I    between atoms: O3_4  and  C3_18 
REMARK       I    between atoms: C4_5  and  O4_13 
REMARK       I    between atoms: C7_7  and  C8_21 
REMARK       I    between atoms: C7_7  and  N2_15 
REMARK       I    between atoms: O3_8  and  C1_12 
REMARK       I    between atoms: O3_8  and  C3_26 
REMARK       I    between atoms: C1_9  and  O1_11 
REMARK       I    between atoms: C6_10  and  C5_25 
REMARK       I    between atoms: C6_10  and  O6_20 
REMARK       I    between atoms: N2_15  and  C2_23 
REMARK       I    between atoms: C6_16  and  C5_17 
ROOT
ATOM      1  C2  GC4 d1769      30.755  19.707  34.271  0.00  0.00     0.107 C 
ATOM      2  O6B GC4 d1769      32.674  20.971  29.869  0.00  0.00    -0.646 OA
ATOM      3  O3  GC4 d1769      32.721  20.152  35.616  0.00  0.00    -0.393 OA
ATOM      4  O5  GC4 d1769      31.091  20.258  31.911  0.00  0.00    -0.343 OA
ATOM      5  C1  GC4 d1769      30.097  20.169  32.963  0.00  0.00     0.159 C 
ATOM      6  O2  GC4 d1769      29.798  19.515  35.311  0.00  0.00    -0.388 OA
ATOM      7  C6  GC4 d1769      32.879  21.573  30.954  0.00  0.00     0.203 C 
ATOM      8  C5  GC4 d1769      31.980  21.335  32.134  0.00  0.00     0.127 C 
ATOM      9  C3  GC4 d1769      31.830  20.732  34.656  0.00  0.00     0.068 C 
ATOM     10  C4  GC4 d1769      32.681  21.242  33.495  0.00  0.00    -0.005 C 
ATOM     11  O6A GC4 d1769      33.764  22.437  31.017  0.00  0.00    -0.646 OA
ATOM     12  H   GC4 d1769      31.212  18.751  34.125  0.00  0.00     0.094 H 
ATOM     13  H   GC4 d1769      32.211  19.817  36.370  0.00  0.00     0.210 HD
ATOM     14  H   GC4 d1769      29.678  21.132  33.166  0.00  0.00     0.133 H 
ATOM     15  H   GC4 d1769      29.344  20.354  35.493  0.00  0.00     0.210 HD
ATOM     16  H   GC4 d1769      31.403  22.233  32.209  0.00  0.00     0.100 H 
ATOM     17  H   GC4 d1769      31.288  21.570  35.042  0.00  0.00     0.087 H 
ATOM     18  H   GC4 d1769      33.030  22.221  33.750  0.00  0.00     0.041 H 
ATOM     19  H   GC4 d1769      33.459  20.519  33.369  0.00  0.00     0.041 H 
ATOM     20  O5  NAG d1770      25.651  20.008  30.228  0.00  0.00    -0.349 OA
ATOM     21  C4  NAG d1770      27.778  18.921  30.536  0.00  0.00     0.089 C 
ATOM     22  C7  NAG d1770      26.951  21.063  34.660  0.00  0.00     0.214 C 
ATOM     23  O3  NAG d1770      29.058  19.368  32.551  0.00  0.00    -0.348 OA
ATOM     24  C1  NAG d1770      25.913  20.980  31.262  0.00  0.00     0.151 C 
ATOM     25  C6  NAG d1770      26.429  18.676  28.382  0.00  0.00     0.043 C 
ATOM     26  O1  NAG d1770      24.683  21.281  31.788  0.00  0.00    -0.369 OA
ATOM     27  O4  NAG d1770      28.939  18.541  29.829  0.00  0.00    -0.390 OA
ATOM     28  N2  NAG d1770      27.155  21.363  33.405  0.00  0.00    -0.349 N 
ATOM     29  O6  NAG d1770      25.824  17.557  28.958  0.00  0.00    -0.398 OA
ATOM     30  C8  NAG d1770      27.380  22.188  35.624  0.00  0.00    -0.003 C 
ATOM     31  O7  NAG d1770      26.428  19.960  35.007  0.00  0.00    -0.274 OA
ATOM     32  C2  NAG d1770      26.847  20.463  32.329  0.00  0.00     0.087 C 
ATOM     33  C5  NAG d1770      26.825  19.578  29.582  0.00  0.00     0.089 C 
ATOM     34  C3  NAG d1770      28.100  19.919  31.659  0.00  0.00     0.093 C 
ATOM     35  H   NAG d1770      27.351  18.043  30.971  0.00  0.00     0.091 H 
ATOM     36  H   NAG d1770      26.408  21.839  30.859  0.00  0.00     0.132 H 
ATOM     37  H   NAG d1770      27.296  18.391  27.824  0.00  0.00     0.078 H 
ATOM     38  H   NAG d1770      25.778  19.178  27.698  0.00  0.00     0.078 H 
ATOM     39  H   NAG d1770      24.276  20.474  32.139  0.00  0.00     0.212 HD
ATOM     40  H   NAG d1770      29.343  19.324  29.425  0.00  0.00     0.210 HD
ATOM     41  H   NAG d1770      27.538  22.244  33.187  0.00  0.00     0.163 HD
ATOM     42  H   NAG d1770      26.447  17.132  29.568  0.00  0.00     0.209 HD
ATOM     43  H   NAG d1770      27.789  23.002  35.063  0.00  0.00     0.040 H 
ATOM     44  H   NAG d1770      28.119  21.815  36.302  0.00  0.00     0.040 H 
ATOM     45  H   NAG d1770      26.529  22.529  36.177  0.00  0.00     0.040 H 
ATOM     46  H   NAG d1770      26.313  19.686  32.836  0.00  0.00     0.084 H 
ATOM     47  H   NAG d1770      27.360  20.422  29.200  0.00  0.00     0.090 H 
ATOM     48  H   NAG d1770      28.558  20.785  31.229  0.00  0.00     0.091 H 
ENDROOT
TORSDOF 11
ENDMDL
MODEL 29
REMARK VINA RESULT:      -7.6      2.570      3.648
REMARK  0 active torsions:
REMARK  status: ('A' for Active; 'I' for Inactive)
REMARK       I    between atoms: C2_1  and  O2_14 
REMARK       I    between atoms: O3_4  and  C3_18 
REMARK       I    between atoms: C4_5  and  O4_13 
REMARK       I    between atoms: C7_7  and  C8_21 
REMARK       I    between atoms: C7_7  and  N2_15 
REMARK       I    between atoms: O3_8  and  C1_12 
REMARK       I    between atoms: O3_8  and  C3_26 
REMARK       I    between atoms: C1_9  and  O1_11 
REMARK       I    between atoms: C6_10  and  C5_25 
REMARK       I    between atoms: C6_10  and  O6_20 
REMARK       I    between atoms: N2_15  and  C2_23 
REMARK       I    between atoms: C6_16  and  C5_17 
ROOT
ATOM      1  C2  GC4 d1769      26.497  18.250  32.413  0.00  0.00     0.107 C 
ATOM      2  O6B GC4 d1769      27.453  22.933  33.757  0.00  0.00    -0.646 OA
ATOM      3  O3  GC4 d1769      24.545  17.910  33.808  0.00  0.00    -0.393 OA
ATOM      4  O5  GC4 d1769      27.394  20.519  32.595  0.00  0.00    -0.343 OA
ATOM      5  C1  GC4 d1769      27.251  19.383  31.705  0.00  0.00     0.159 C 
ATOM      6  O2  GC4 d1769      26.416  17.077  31.606  0.00  0.00    -0.388 OA
ATOM      7  C6  GC4 d1769      26.309  22.449  33.565  0.00  0.00     0.203 C 
ATOM      8  C5  GC4 d1769      26.150  21.154  32.821  0.00  0.00     0.127 C 
ATOM      9  C3  GC4 d1769      25.111  18.773  32.815  0.00  0.00     0.068 C 
ATOM     10  C4  GC4 d1769      25.096  20.191  33.382  0.00  0.00    -0.005 C 
ATOM     11  O6A GC4 d1769      25.306  23.093  33.902  0.00  0.00    -0.646 OA
ATOM     12  H   GC4 d1769      27.034  17.955  33.291  0.00  0.00     0.094 H 
ATOM     13  H   GC4 d1769      24.539  16.997  33.479  0.00  0.00     0.210 HD
ATOM     14  H   GC4 d1769      26.660  19.646  30.853  0.00  0.00     0.133 H 
ATOM     15  H   GC4 d1769      25.936  17.279  30.787  0.00  0.00     0.210 HD
ATOM     16  H   GC4 d1769      25.748  21.443  31.873  0.00  0.00     0.100 H 
ATOM     17  H   GC4 d1769      24.547  18.790  31.905  0.00  0.00     0.087 H 
ATOM     18  H   GC4 d1769      24.132  20.612  33.185  0.00  0.00     0.041 H 
ATOM     19  H   GC4 d1769      25.325  20.087  34.421  0.00  0.00     0.041 H 
ATOM     20  O5  NAG d1770      30.912  20.371  28.113  0.00  0.00    -0.349 OA
ATOM     21  C4  NAG d1770      30.546  20.058  30.473  0.00  0.00     0.089 C 
ATOM     22  C7  NAG d1770      26.986  17.738  28.418  0.00  0.00     0.214 C 
ATOM     23  O3  NAG d1770      28.486  19.014  31.225  0.00  0.00    -0.348 OA
ATOM     24  C1  NAG d1770      29.524  20.146  27.791  0.00  0.00     0.151 C 
ATOM     25  C6  NAG d1770      32.582  21.307  29.571  0.00  0.00     0.043 C 
ATOM     26  O1  NAG d1770      29.536  19.585  26.540  0.00  0.00    -0.369 OA
ATOM     27  O4  NAG d1770      30.727  20.702  31.716  0.00  0.00    -0.390 OA
ATOM     28  N2  NAG d1770      27.447  18.955  28.534  0.00  0.00    -0.349 N 
ATOM     29  O6  NAG d1770      33.254  20.083  29.558  0.00  0.00    -0.398 OA
ATOM     30  C8  NAG d1770      25.464  17.693  28.170  0.00  0.00    -0.003 C 
ATOM     31  O7  NAG d1770      27.748  16.725  28.484  0.00  0.00    -0.274 OA
ATOM     32  C2  NAG d1770      28.832  19.242  28.783  0.00  0.00     0.087 C 
ATOM     33  C5  NAG d1770      31.084  20.944  29.388  0.00  0.00     0.089 C 
ATOM     34  C3  NAG d1770      29.061  19.790  30.184  0.00  0.00     0.093 C 
ATOM     35  H   NAG d1770      31.062  19.122  30.505  0.00  0.00     0.091 H 
ATOM     36  H   NAG d1770      28.972  21.062  27.825  0.00  0.00     0.132 H 
ATOM     37  H   NAG d1770      32.736  21.811  30.502  0.00  0.00     0.078 H 
ATOM     38  H   NAG d1770      32.933  21.966  28.805  0.00  0.00     0.078 H 
ATOM     39  H   NAG d1770      30.045  18.761  26.560  0.00  0.00     0.212 HD
ATOM     40  H   NAG d1770      30.265  21.555  31.708  0.00  0.00     0.210 HD
ATOM     41  H   NAG d1770      26.818  19.708  28.447  0.00  0.00     0.163 HD
ATOM     42  H   NAG d1770      32.907  19.517  30.265  0.00  0.00     0.209 HD
ATOM     43  H   NAG d1770      25.074  18.689  28.163  0.00  0.00     0.040 H 
ATOM     44  H   NAG d1770      24.992  17.131  28.948  0.00  0.00     0.040 H 
ATOM     45  H   NAG d1770      25.269  17.227  27.226  0.00  0.00     0.040 H 
ATOM     46  H   NAG d1770      29.283  18.278  28.668  0.00  0.00     0.084 H 
ATOM     47  H   NAG d1770      30.512  21.845  29.463  0.00  0.00     0.090 H 
ATOM     48  H   NAG d1770      28.537  20.723  30.184  0.00  0.00     0.091 H 
ENDROOT
TORSDOF 11
ENDMDL
MODEL 30
REMARK VINA RESULT:      -7.6      2.787      6.016
REMARK  0 active torsions:
REMARK  status: ('A' for Active; 'I' for Inactive)
REMARK       I    between atoms: C2_1  and  O2_14 
REMARK       I    between atoms: O3_4  and  C3_18 
REMARK       I    between atoms: C4_5  and  O4_13 
REMARK       I    between atoms: C7_7  and  C8_21 
REMARK       I    between atoms: C7_7  and  N2_15 
REMARK       I    between atoms: O3_8  and  C1_12 
REMARK       I    between atoms: O3_8  and  C3_26 
REMARK       I    between atoms: C1_9  and  O1_11 
REMARK       I    between atoms: C6_10  and  C5_25 
REMARK       I    between atoms: C6_10  and  O6_20 
REMARK       I    between atoms: N2_15  and  C2_23 
REMARK       I    between atoms: C6_16  and  C5_17 
ROOT
ATOM      1  C2  GC4 d1769      24.725  21.265  28.876  0.00  0.00     0.107 C 
ATOM      2  O6B GC4 d1769      21.438  18.601  31.475  0.00  0.00    -0.646 OA
ATOM      3  O3  GC4 d1769      24.013  23.460  29.616  0.00  0.00    -0.393 OA
ATOM      4  O5  GC4 d1769      23.464  19.462  29.945  0.00  0.00    -0.343 OA
ATOM      5  C1  GC4 d1769      24.746  19.810  29.365  0.00  0.00     0.159 C 
ATOM      6  O2  GC4 d1769      25.937  21.622  28.213  0.00  0.00    -0.388 OA
ATOM      7  C6  GC4 d1769      22.036  19.625  31.890  0.00  0.00     0.203 C 
ATOM      8  C5  GC4 d1769      23.256  20.132  31.174  0.00  0.00     0.127 C 
ATOM      9  C3  GC4 d1769      24.435  22.172  30.080  0.00  0.00     0.068 C 
ATOM     10  C4  GC4 d1769      23.359  21.656  31.033  0.00  0.00    -0.005 C 
ATOM     11  O6A GC4 d1769      21.677  20.158  32.948  0.00  0.00    -0.646 OA
ATOM     12  H   GC4 d1769      23.953  21.387  28.145  0.00  0.00     0.094 H 
ATOM     13  H   GC4 d1769      24.677  23.818  29.006  0.00  0.00     0.210 HD
ATOM     14  H   GC4 d1769      25.519  19.756  30.102  0.00  0.00     0.133 H 
ATOM     15  H   GC4 d1769      26.682  21.532  28.828  0.00  0.00     0.210 HD
ATOM     16  H   GC4 d1769      24.066  19.884  31.828  0.00  0.00     0.100 H 
ATOM     17  H   GC4 d1769      25.354  22.205  30.629  0.00  0.00     0.087 H 
ATOM     18  H   GC4 d1769      23.559  22.061  32.003  0.00  0.00     0.041 H 
ATOM     19  H   GC4 d1769      22.428  21.969  30.610  0.00  0.00     0.041 H 
ATOM     20  O5  NAG d1770      26.810  15.106  28.423  0.00  0.00    -0.349 OA
ATOM     21  C4  NAG d1770      24.906  16.511  27.978  0.00  0.00     0.089 C 
ATOM     22  C7  NAG d1770      28.397  19.539  28.943  0.00  0.00     0.214 C 
ATOM     23  O3  NAG d1770      25.074  18.900  28.387  0.00  0.00    -0.348 OA
ATOM     24  C1  NAG d1770      27.469  16.119  29.211  0.00  0.00     0.151 C 
ATOM     25  C6  NAG d1770      24.794  13.970  27.763  0.00  0.00     0.043 C 
ATOM     26  O1  NAG d1770      28.809  15.897  29.027  0.00  0.00    -0.369 OA
ATOM     27  O4  NAG d1770      23.500  16.544  28.102  0.00  0.00    -0.390 OA
ATOM     28  N2  NAG d1770      27.708  18.594  29.525  0.00  0.00    -0.349 N 
ATOM     29  O6  NAG d1770      25.165  14.126  26.426  0.00  0.00    -0.398 OA
ATOM     30  C8  NAG d1770      28.943  20.584  29.937  0.00  0.00    -0.003 C 
ATOM     31  O7  NAG d1770      28.594  19.547  27.689  0.00  0.00    -0.274 OA
ATOM     32  C2  NAG d1770      27.090  17.521  28.799  0.00  0.00     0.087 C 
ATOM     33  C5  NAG d1770      25.407  15.195  28.494  0.00  0.00     0.089 C 
ATOM     34  C3  NAG d1770      25.572  17.633  28.790  0.00  0.00     0.093 C 
ATOM     35  H   NAG d1770      25.152  16.646  26.946  0.00  0.00     0.091 H 
ATOM     36  H   NAG d1770      27.179  16.049  30.239  0.00  0.00     0.132 H 
ATOM     37  H   NAG d1770      23.728  13.969  27.860  0.00  0.00     0.078 H 
ATOM     38  H   NAG d1770      25.139  13.044  28.171  0.00  0.00     0.078 H 
ATOM     39  H   NAG d1770      29.022  15.971  28.084  0.00  0.00     0.212 HD
ATOM     40  H   NAG d1770      23.255  16.424  29.032  0.00  0.00     0.210 HD
ATOM     41  H   NAG d1770      27.608  18.619  30.505  0.00  0.00     0.163 HD
ATOM     42  H   NAG d1770      24.833  14.975  26.095  0.00  0.00     0.209 HD
ATOM     43  H   NAG d1770      28.626  20.335  30.927  0.00  0.00     0.040 H 
ATOM     44  H   NAG d1770      28.572  21.553  29.677  0.00  0.00     0.040 H 
ATOM     45  H   NAG d1770      30.013  20.590  29.897  0.00  0.00     0.040 H 
ATOM     46  H   NAG d1770      27.491  17.657  27.816  0.00  0.00     0.084 H 
ATOM     47  H   NAG d1770      25.090  15.165  29.515  0.00  0.00     0.090 H 
ATOM     48  H   NAG d1770      25.300  17.520  29.819  0.00  0.00     0.091 H 
ENDROOT
TORSDOF 11
ENDMDL
MODEL 31
REMARK VINA RESULT:      -7.5      3.011      6.600
REMARK  0 active torsions:
REMARK  status: ('A' for Active; 'I' for Inactive)
REMARK       I    between atoms: C2_1  and  O2_14 
REMARK       I    between atoms: O3_4  and  C3_18 
REMARK       I    between atoms: C4_5  and  O4_13 
REMARK       I    between atoms: C7_7  and  C8_21 
REMARK       I    between atoms: C7_7  and  N2_15 
REMARK       I    between atoms: O3_8  and  C1_12 
REMARK       I    between atoms: O3_8  and  C3_26 
REMARK       I    between atoms: C1_9  and  O1_11 
REMARK       I    between atoms: C6_10  and  C5_25 
REMARK       I    between atoms: C6_10  and  O6_20 
REMARK       I    between atoms: N2_15  and  C2_23 
REMARK       I    between atoms: C6_16  and  C5_17 
ROOT
ATOM      1  C2  GC4 d1769      27.778  16.655  28.649  0.00  0.00     0.107 C 
ATOM      2  O6B GC4 d1769      29.404  20.848  26.544  0.00  0.00    -0.646 OA
ATOM      3  O3  GC4 d1769      29.933  15.581  28.928  0.00  0.00    -0.393 OA
ATOM      4  O5  GC4 d1769      27.967  18.899  27.694  0.00  0.00    -0.343 OA
ATOM      5  C1  GC4 d1769      27.168  18.061  28.566  0.00  0.00     0.159 C 
ATOM      6  O2  GC4 d1769      26.972  15.768  29.423  0.00  0.00    -0.388 OA
ATOM      7  C6  GC4 d1769      29.968  20.240  27.489  0.00  0.00     0.203 C 
ATOM      8  C5  GC4 d1769      29.217  19.206  28.280  0.00  0.00     0.127 C 
ATOM      9  C3  GC4 d1769      29.202  16.781  29.209  0.00  0.00     0.068 C 
ATOM     10  C4  GC4 d1769      30.013  17.949  28.653  0.00  0.00    -0.005 C 
ATOM     11  O6A GC4 d1769      31.112  20.568  27.832  0.00  0.00    -0.646 OA
ATOM     12  H   GC4 d1769      27.818  16.223  27.671  0.00  0.00     0.094 H 
ATOM     13  H   GC4 d1769      29.443  14.816  29.269  0.00  0.00     0.210 HD
ATOM     14  H   GC4 d1769      27.173  18.445  29.565  0.00  0.00     0.133 H 
ATOM     15  H   GC4 d1769      26.897  16.107  30.329  0.00  0.00     0.210 HD
ATOM     16  H   GC4 d1769      29.035  19.678  29.223  0.00  0.00     0.100 H 
ATOM     17  H   GC4 d1769      29.072  16.955  30.257  0.00  0.00     0.087 H 
ATOM     18  H   GC4 d1769      30.735  18.227  29.392  0.00  0.00     0.041 H 
ATOM     19  H   GC4 d1769      30.436  17.594  27.737  0.00  0.00     0.041 H 
ATOM     20  O5  NAG d1770      22.655  20.683  28.736  0.00  0.00    -0.349 OA
ATOM     21  C4  NAG d1770      24.239  19.646  27.249  0.00  0.00     0.089 C 
ATOM     22  C7  NAG d1770      24.854  17.408  31.360  0.00  0.00     0.214 C 
ATOM     23  O3  NAG d1770      25.858  18.074  28.149  0.00  0.00    -0.348 OA
ATOM     24  C1  NAG d1770      23.403  20.313  29.914  0.00  0.00     0.151 C 
ATOM     25  C6  NAG d1770      22.614  21.447  26.456  0.00  0.00     0.043 C 
ATOM     26  O1  NAG d1770      22.462  20.147  30.896  0.00  0.00    -0.369 OA
ATOM     27  O4  NAG d1770      25.063  19.927  26.137  0.00  0.00    -0.390 OA
ATOM     28  N2  NAG d1770      24.981  18.604  30.847  0.00  0.00    -0.349 N 
ATOM     29  O6  NAG d1770      21.719  20.421  26.147  0.00  0.00    -0.398 OA
ATOM     30  C8  NAG d1770      25.803  17.162  32.551  0.00  0.00    -0.003 C 
ATOM     31  O7  NAG d1770      24.009  16.575  30.911  0.00  0.00    -0.274 OA
ATOM     32  C2  NAG d1770      24.212  19.053  29.720  0.00  0.00     0.087 C 
ATOM     33  C5  NAG d1770      23.480  20.887  27.615  0.00  0.00     0.089 C 
ATOM     34  C3  NAG d1770      25.064  19.207  28.469  0.00  0.00     0.093 C 
ATOM     35  H   NAG d1770      23.578  18.849  26.980  0.00  0.00     0.091 H 
ATOM     36  H   NAG d1770      24.124  21.065  30.158  0.00  0.00     0.132 H 
ATOM     37  H   NAG d1770      23.224  21.682  25.609  0.00  0.00     0.078 H 
ATOM     38  H   NAG d1770      22.111  22.351  26.729  0.00  0.00     0.078 H 
ATOM     39  H   NAG d1770      21.834  19.458  30.629  0.00  0.00     0.212 HD
ATOM     40  H   NAG d1770      25.671  20.648  26.361  0.00  0.00     0.210 HD
ATOM     41  H   NAG d1770      25.632  19.223  31.249  0.00  0.00     0.163 HD
ATOM     42  H   NAG d1770      22.213  19.623  25.904  0.00  0.00     0.209 HD
ATOM     43  H   NAG d1770      26.406  18.030  32.712  0.00  0.00     0.040 H 
ATOM     44  H   NAG d1770      26.434  16.324  32.338  0.00  0.00     0.040 H 
ATOM     45  H   NAG d1770      25.227  16.959  33.430  0.00  0.00     0.040 H 
ATOM     46  H   NAG d1770      23.501  18.261  29.606  0.00  0.00     0.084 H 
ATOM     47  H   NAG d1770      24.235  21.610  27.844  0.00  0.00     0.090 H 
ATOM     48  H   NAG d1770      25.749  19.990  28.719  0.00  0.00     0.091 H 
ENDROOT
TORSDOF 11
ENDMDL
MODEL 32
REMARK VINA RESULT:      -7.5      2.011      6.880
REMARK  0 active torsions:
REMARK  status: ('A' for Active; 'I' for Inactive)
REMARK       I    between atoms: C2_1  and  O2_14 
REMARK       I    between atoms: O3_4  and  C3_18 
REMARK       I    between atoms: C4_5  and  O4_13 
REMARK       I    between atoms: C7_7  and  C8_21 
REMARK       I    between atoms: C7_7  and  N2_15 
REMARK       I    between atoms: O3_8  and  C1_12 
REMARK       I    between atoms: O3_8  and  C3_26 
REMARK       I    between atoms: C1_9  and  O1_11 
REMARK       I    between atoms: C6_10  and  C5_25 
REMARK       I    between atoms: C6_10  and  O6_20 
REMARK       I    between atoms: N2_15  and  C2_23 
REMARK       I    between atoms: C6_16  and  C5_17 
ROOT
ATOM      1  C2  GC4 d1769      28.747  20.705  32.900  0.00  0.00     0.107 C 
ATOM      2  O6B GC4 d1769      31.937  19.626  29.250  0.00  0.00    -0.646 OA
ATOM      3  O3  GC4 d1769      30.227  22.103  34.214  0.00  0.00    -0.393 OA
ATOM      4  O5  GC4 d1769      29.793  19.918  30.833  0.00  0.00    -0.343 OA
ATOM      5  C1  GC4 d1769      28.527  20.271  31.444  0.00  0.00     0.159 C 
ATOM      6  O2  GC4 d1769      27.516  20.972  33.569  0.00  0.00    -0.388 OA
ATOM      7  C6  GC4 d1769      31.821  20.746  29.810  0.00  0.00     0.203 C 
ATOM      8  C5  GC4 d1769      30.602  21.060  30.630  0.00  0.00     0.127 C 
ATOM      9  C3  GC4 d1769      29.683  21.922  32.901  0.00  0.00     0.068 C 
ATOM     10  C4  GC4 d1769      30.857  21.834  31.929  0.00  0.00    -0.005 C 
ATOM     11  O6A GC4 d1769      32.668  21.625  29.602  0.00  0.00    -0.646 OA
ATOM     12  H   GC4 d1769      29.202  19.906  33.448  0.00  0.00     0.094 H 
ATOM     13  H   GC4 d1769      29.505  22.163  34.859  0.00  0.00     0.210 HD
ATOM     14  H   GC4 d1769      28.091  21.112  30.947  0.00  0.00     0.133 H 
ATOM     15  H   GC4 d1769      27.051  21.694  33.117  0.00  0.00     0.210 HD
ATOM     16  H   GC4 d1769      30.053  21.754  30.028  0.00  0.00     0.100 H 
ATOM     17  H   GC4 d1769      29.071  22.742  32.586  0.00  0.00     0.087 H 
ATOM     18  H   GC4 d1769      31.139  22.832  31.665  0.00  0.00     0.041 H 
ATOM     19  H   GC4 d1769      31.617  21.287  32.446  0.00  0.00     0.041 H 
ATOM     20  O5  NAG d1770      25.109  17.973  28.232  0.00  0.00    -0.349 OA
ATOM     21  C4  NAG d1770      27.014  17.567  29.646  0.00  0.00     0.089 C 
ATOM     22  C7  NAG d1770      25.039  21.463  31.436  0.00  0.00     0.214 C 
ATOM     23  O3  NAG d1770      27.639  19.230  31.303  0.00  0.00    -0.348 OA
ATOM     24  C1  NAG d1770      25.072  19.379  28.557  0.00  0.00     0.151 C 
ATOM     25  C6  NAG d1770      26.372  15.984  27.750  0.00  0.00     0.043 C 
ATOM     26  O1  NAG d1770      23.750  19.729  28.474  0.00  0.00    -0.369 OA
ATOM     27  O4  NAG d1770      28.325  17.041  29.615  0.00  0.00    -0.390 OA
ATOM     28  N2  NAG d1770      25.621  21.054  30.339  0.00  0.00    -0.349 N 
ATOM     29  O6  NAG d1770      25.593  15.286  28.675  0.00  0.00    -0.398 OA
ATOM     30  C8  NAG d1770      25.187  22.982  31.664  0.00  0.00    -0.003 C 
ATOM     31  O7  NAG d1770      24.408  20.666  32.195  0.00  0.00    -0.274 OA
ATOM     32  C2  NAG d1770      25.627  19.678  29.929  0.00  0.00     0.087 C 
ATOM     33  C5  NAG d1770      26.411  17.442  28.279  0.00  0.00     0.089 C 
ATOM     34  C3  NAG d1770      27.009  19.051  30.043  0.00  0.00     0.093 C 
ATOM     35  H   NAG d1770      26.453  17.018  30.373  0.00  0.00     0.091 H 
ATOM     36  H   NAG d1770      25.689  19.940  27.885  0.00  0.00     0.132 H 
ATOM     37  H   NAG d1770      27.359  15.574  27.704  0.00  0.00     0.078 H 
ATOM     38  H   NAG d1770      25.970  15.925  26.760  0.00  0.00     0.078 H 
ATOM     39  H   NAG d1770      23.235  19.196  29.099  0.00  0.00     0.212 HD
ATOM     40  H   NAG d1770      28.852  17.526  28.962  0.00  0.00     0.210 HD
ATOM     41  H   NAG d1770      26.074  21.717  29.770  0.00  0.00     0.163 HD
ATOM     42  H   NAG d1770      25.990  15.364  29.556  0.00  0.00     0.209 HD
ATOM     43  H   NAG d1770      25.768  23.406  30.872  0.00  0.00     0.040 H 
ATOM     44  H   NAG d1770      25.678  23.156  32.598  0.00  0.00     0.040 H 
ATOM     45  H   NAG d1770      24.218  23.437  31.679  0.00  0.00     0.040 H 
ATOM     46  H   NAG d1770      24.945  19.235  30.625  0.00  0.00     0.084 H 
ATOM     47  H   NAG d1770      27.059  18.009  27.643  0.00  0.00     0.090 H 
ATOM     48  H   NAG d1770      27.598  19.598  29.336  0.00  0.00     0.091 H 
ENDROOT
TORSDOF 11
ENDMDL
MODEL 33
REMARK VINA RESULT:      -7.5      2.043      2.393
REMARK  0 active torsions:
REMARK  status: ('A' for Active; 'I' for Inactive)
REMARK       I    between atoms: C2_1  and  O2_14 
REMARK       I    between atoms: O3_4  and  C3_18 
REMARK       I    between atoms: C4_5  and  O4_13 
REMARK       I    between atoms: C7_7  and  C8_21 
REMARK       I    between atoms: C7_7  and  N2_15 
REMARK       I    between atoms: O3_8  and  C1_12 
REMARK       I    between atoms: O3_8  and  C3_26 
REMARK       I    between atoms: C1_9  and  O1_11 
REMARK       I    between atoms: C6_10  and  C5_25 
REMARK       I    between atoms: C6_10  and  O6_20 
REMARK       I    between atoms: N2_15  and  C2_23 
REMARK       I    between atoms: C6_16  and  C5_17 
ROOT
ATOM      1  C2  GC4 d1769      25.316  18.236  28.521  0.00  0.00     0.107 C 
ATOM      2  O6B GC4 d1769      23.405  22.132  30.935  0.00  0.00    -0.646 OA
ATOM      3  O3  GC4 d1769      23.807  18.264  26.625  0.00  0.00    -0.393 OA
ATOM      4  O5  GC4 d1769      24.894  20.073  30.081  0.00  0.00    -0.343 OA
ATOM      5  C1  GC4 d1769      25.921  19.196  29.555  0.00  0.00     0.159 C 
ATOM      6  O2  GC4 d1769      26.273  17.292  28.045  0.00  0.00    -0.388 OA
ATOM      7  C6  GC4 d1769      23.556  22.049  29.690  0.00  0.00     0.203 C 
ATOM      8  C5  GC4 d1769      24.462  21.002  29.105  0.00  0.00     0.127 C 
ATOM      9  C3  GC4 d1769      24.714  19.073  27.384  0.00  0.00     0.068 C 
ATOM     10  C4  GC4 d1769      23.949  20.317  27.832  0.00  0.00    -0.005 C 
ATOM     11  O6A GC4 d1769      23.036  22.896  28.951  0.00  0.00    -0.646 OA
ATOM     12  H   GC4 d1769      24.545  17.653  28.980  0.00  0.00     0.094 H 
ATOM     13  H   GC4 d1769      24.263  17.463  26.323  0.00  0.00     0.210 HD
ATOM     14  H   GC4 d1769      26.666  19.760  29.035  0.00  0.00     0.133 H 
ATOM     15  H   GC4 d1769      27.005  17.761  27.614  0.00  0.00     0.210 HD
ATOM     16  H   GC4 d1769      25.316  21.551  28.769  0.00  0.00     0.100 H 
ATOM     17  H   GC4 d1769      25.555  19.408  26.812  0.00  0.00     0.087 H 
ATOM     18  H   GC4 d1769      23.991  21.031  27.037  0.00  0.00     0.041 H 
ATOM     19  H   GC4 d1769      22.962  19.978  28.065  0.00  0.00     0.041 H 
ATOM     20  O5  NAG d1770      29.661  19.635  33.174  0.00  0.00    -0.349 OA
ATOM     21  C4  NAG d1770      27.348  19.057  32.837  0.00  0.00     0.089 C 
ATOM     22  C7  NAG d1770      29.372  18.275  28.645  0.00  0.00     0.214 C 
ATOM     23  O3  NAG d1770      26.564  18.561  30.592  0.00  0.00    -0.348 OA
ATOM     24  C1  NAG d1770      29.880  19.889  31.770  0.00  0.00     0.151 C 
ATOM     25  C6  NAG d1770      28.247  19.776  35.116  0.00  0.00     0.043 C 
ATOM     26  O1  NAG d1770      31.194  19.567  31.551  0.00  0.00    -0.369 OA
ATOM     27  O4  NAG d1770      26.047  19.401  33.264  0.00  0.00    -0.390 OA
ATOM     28  N2  NAG d1770      29.125  19.263  29.464  0.00  0.00    -0.349 N 
ATOM     29  O6  NAG d1770      28.501  18.427  35.375  0.00  0.00    -0.398 OA
ATOM     30  C8  NAG d1770      29.479  18.727  27.173  0.00  0.00    -0.003 C 
ATOM     31  O7  NAG d1770      29.525  17.085  29.059  0.00  0.00    -0.274 OA
ATOM     32  C2  NAG d1770      28.968  19.080  30.879  0.00  0.00     0.087 C 
ATOM     33  C5  NAG d1770      28.339  19.910  33.572  0.00  0.00     0.089 C 
ATOM     34  C3  NAG d1770      27.531  19.293  31.330  0.00  0.00     0.093 C 
ATOM     35  H   NAG d1770      27.500  18.018  33.040  0.00  0.00     0.091 H 
ATOM     36  H   NAG d1770      29.662  20.909  31.530  0.00  0.00     0.132 H 
ATOM     37  H   NAG d1770      27.272  20.049  35.459  0.00  0.00     0.078 H 
ATOM     38  H   NAG d1770      28.939  20.419  35.617  0.00  0.00     0.078 H 
ATOM     39  H   NAG d1770      31.342  18.637  31.782  0.00  0.00     0.212 HD
ATOM     40  H   NAG d1770      25.888  20.342  33.088  0.00  0.00     0.210 HD
ATOM     41  H   NAG d1770      29.042  20.172  29.094  0.00  0.00     0.163 HD
ATOM     42  H   NAG d1770      27.853  17.880  34.904  0.00  0.00     0.209 HD
ATOM     43  H   NAG d1770      29.305  19.780  27.110  0.00  0.00     0.040 H 
ATOM     44  H   NAG d1770      28.749  18.209  26.587  0.00  0.00     0.040 H 
ATOM     45  H   NAG d1770      30.457  18.503  26.802  0.00  0.00     0.040 H 
ATOM     46  H   NAG d1770      29.264  18.059  31.006  0.00  0.00     0.084 H 
ATOM     47  H   NAG d1770      28.081  20.914  33.310  0.00  0.00     0.090 H 
ATOM     48  H   NAG d1770      27.346  20.326  31.120  0.00  0.00     0.091 H 
ENDROOT
TORSDOF 11
ENDMDL
MODEL 34
REMARK VINA RESULT:      -7.5      2.357      6.443
REMARK  0 active torsions:
REMARK  status: ('A' for Active; 'I' for Inactive)
REMARK       I    between atoms: C2_1  and  O2_14 
REMARK       I    between atoms: O3_4  and  C3_18 
REMARK       I    between atoms: C4_5  and  O4_13 
REMARK       I    between atoms: C7_7  and  C8_21 
REMARK       I    between atoms: C7_7  and  N2_15 
REMARK       I    between atoms: O3_8  and  C1_12 
REMARK       I    between atoms: O3_8  and  C3_26 
REMARK       I    between atoms: C1_9  and  O1_11 
REMARK       I    between atoms: C6_10  and  C5_25 
REMARK       I    between atoms: C6_10  and  O6_20 
REMARK       I    between atoms: N2_15  and  C2_23 
REMARK       I    between atoms: C6_16  and  C5_17 
ROOT
ATOM      1  C2  GC4 d1769      28.473  19.118  29.308  0.00  0.00     0.107 C 
ATOM      2  O6B GC4 d1769      26.068  22.637  31.857  0.00  0.00    -0.646 OA
ATOM      3  O3  GC4 d1769      30.514  19.118  30.614  0.00  0.00    -0.393 OA
ATOM      4  O5  GC4 d1769      26.797  20.668  30.191  0.00  0.00    -0.343 OA
ATOM      5  C1  GC4 d1769      26.977  19.425  29.467  0.00  0.00     0.159 C 
ATOM      6  O2  GC4 d1769      28.698  17.951  28.520  0.00  0.00    -0.388 OA
ATOM      7  C6  GC4 d1769      26.790  21.738  32.358  0.00  0.00     0.203 C 
ATOM      8  C5  GC4 d1769      27.167  20.530  31.549  0.00  0.00     0.127 C 
ATOM      9  C3  GC4 d1769      29.089  18.999  30.709  0.00  0.00     0.068 C 
ATOM     10  C4  GC4 d1769      28.611  20.043  31.716  0.00  0.00    -0.005 C 
ATOM     11  O6A GC4 d1769      27.107  21.804  33.554  0.00  0.00    -0.646 OA
ATOM     12  H   GC4 d1769      28.948  19.917  28.778  0.00  0.00     0.094 H 
ATOM     13  H   GC4 d1769      30.852  18.466  29.980  0.00  0.00     0.210 HD
ATOM     14  H   GC4 d1769      26.564  18.606  30.018  0.00  0.00     0.133 H 
ATOM     15  H   GC4 d1769      28.287  17.185  28.951  0.00  0.00     0.210 HD
ATOM     16  H   GC4 d1769      26.584  19.739  31.973  0.00  0.00     0.100 H 
ATOM     17  H   GC4 d1769      28.773  18.043  31.070  0.00  0.00     0.087 H 
ATOM     18  H   GC4 d1769      28.702  19.619  32.694  0.00  0.00     0.041 H 
ATOM     19  H   GC4 d1769      29.226  20.903  31.551  0.00  0.00     0.041 H 
ATOM     20  O5  NAG d1770      22.317  18.831  27.184  0.00  0.00    -0.349 OA
ATOM     21  C4  NAG d1770      24.187  20.330  27.411  0.00  0.00     0.089 C 
ATOM     22  C7  NAG d1770      25.992  16.064  28.319  0.00  0.00     0.214 C 
ATOM     23  O3  NAG d1770      26.292  19.480  28.275  0.00  0.00    -0.348 OA
ATOM     24  C1  NAG d1770      22.920  17.829  28.031  0.00  0.00     0.151 C 
ATOM     25  C6  NAG d1770      21.877  21.144  26.690  0.00  0.00     0.043 C 
ATOM     26  O1  NAG d1770      22.451  16.633  27.556  0.00  0.00    -0.369 OA
ATOM     27  O4  NAG d1770      24.509  21.649  27.800  0.00  0.00    -0.390 OA
ATOM     28  N2  NAG d1770      25.114  16.900  28.809  0.00  0.00    -0.349 N 
ATOM     29  O6  NAG d1770      22.274  20.919  25.371  0.00  0.00    -0.398 OA
ATOM     30  C8  NAG d1770      26.599  15.135  29.391  0.00  0.00    -0.003 C 
ATOM     31  O7  NAG d1770      26.269  16.034  27.082  0.00  0.00    -0.274 OA
ATOM     32  C2  NAG d1770      24.429  17.870  28.002  0.00  0.00     0.087 C 
ATOM     33  C5  NAG d1770      22.705  20.138  27.534  0.00  0.00     0.089 C 
ATOM     34  C3  NAG d1770      24.885  19.291  28.301  0.00  0.00     0.093 C 
ATOM     35  H   NAG d1770      24.517  20.192  26.403  0.00  0.00     0.091 H 
ATOM     36  H   NAG d1770      22.663  17.994  29.056  0.00  0.00     0.132 H 
ATOM     37  H   NAG d1770      22.096  22.149  26.983  0.00  0.00     0.078 H 
ATOM     38  H   NAG d1770      20.824  21.009  26.822  0.00  0.00     0.078 H 
ATOM     39  H   NAG d1770      22.709  16.530  26.627  0.00  0.00     0.212 HD
ATOM     40  H   NAG d1770      24.218  21.796  28.714  0.00  0.00     0.210 HD
ATOM     41  H   NAG d1770      24.914  16.864  29.772  0.00  0.00     0.163 HD
ATOM     42  H   NAG d1770      23.232  21.051  25.294  0.00  0.00     0.209 HD
ATOM     43  H   NAG d1770      26.189  15.379  30.348  0.00  0.00     0.040 H 
ATOM     44  H   NAG d1770      27.661  15.265  29.415  0.00  0.00     0.040 H 
ATOM     45  H   NAG d1770      26.370  14.117  29.153  0.00  0.00     0.040 H 
ATOM     46  H   NAG d1770      24.712  17.576  27.012  0.00  0.00     0.084 H 
ATOM     47  H   NAG d1770      22.492  20.317  28.567  0.00  0.00     0.090 H 
ATOM     48  H   NAG d1770      24.582  19.449  29.315  0.00  0.00     0.091 H 
ENDROOT
TORSDOF 11
ENDMDL
MODEL 35
REMARK VINA RESULT:      -7.4      2.841      5.597
REMARK  0 active torsions:
REMARK  status: ('A' for Active; 'I' for Inactive)
REMARK       I    between atoms: C2_1  and  O2_14 
REMARK       I    between atoms: O3_4  and  C3_18 
REMARK       I    between atoms: C4_5  and  O4_13 
REMARK       I    between atoms: C7_7  and  C8_21 
REMARK       I    between atoms: C7_7  and  N2_15 
REMARK       I    between atoms: O3_8  and  C1_12 
REMARK       I    between atoms: O3_8  and  C3_26 
REMARK       I    between atoms: C1_9  and  O1_11 
REMARK       I    between atoms: C6_10  and  C5_25 
REMARK       I    between atoms: C6_10  and  O6_20 
REMARK       I    between atoms: N2_15  and  C2_23 
REMARK       I    between atoms: C6_16  and  C5_17 
ROOT
ATOM      1  C2  GC4 d1769      25.923  17.041  31.219  0.00  0.00     0.107 C 
ATOM      2  O6B GC4 d1769      29.754  19.718  32.897  0.00  0.00    -0.646 OA
ATOM      3  O3  GC4 d1769      25.241  16.093  33.343  0.00  0.00    -0.393 OA
ATOM      4  O5  GC4 d1769      27.803  18.590  31.445  0.00  0.00    -0.343 OA
ATOM      5  C1  GC4 d1769      26.623  18.287  30.659  0.00  0.00     0.159 C 
ATOM      6  O2  GC4 d1769      24.808  16.650  30.419  0.00  0.00    -0.388 OA
ATOM      7  C6  GC4 d1769      28.650  19.577  33.483  0.00  0.00     0.203 C 
ATOM      8  C5  GC4 d1769      27.455  19.060  32.733  0.00  0.00     0.127 C 
ATOM      9  C3  GC4 d1769      25.521  17.328  32.672  0.00  0.00     0.068 C 
ATOM     10  C4  GC4 d1769      26.570  18.068  33.498  0.00  0.00    -0.005 C 
ATOM     11  O6A GC4 d1769      28.525  19.961  34.654  0.00  0.00    -0.646 OA
ATOM     12  H   GC4 d1769      26.596  16.209  31.195  0.00  0.00     0.094 H 
ATOM     13  H   GC4 d1769      24.575  15.596  32.842  0.00  0.00     0.210 HD
ATOM     14  H   GC4 d1769      25.911  19.082  30.728  0.00  0.00     0.133 H 
ATOM     15  H   GC4 d1769      24.155  17.368  30.401  0.00  0.00     0.210 HD
ATOM     16  H   GC4 d1769      26.828  19.919  32.616  0.00  0.00     0.100 H 
ATOM     17  H   GC4 d1769      24.665  17.968  32.601  0.00  0.00     0.087 H 
ATOM     18  H   GC4 d1769      26.059  18.611  34.266  0.00  0.00     0.041 H 
ATOM     19  H   GC4 d1769      27.233  17.313  33.863  0.00  0.00     0.041 H 
ATOM     20  O5  NAG d1770      27.551  20.946  26.261  0.00  0.00    -0.349 OA
ATOM     21  C4  NAG d1770      28.441  19.259  27.730  0.00  0.00     0.089 C 
ATOM     22  C7  NAG d1770      23.780  19.107  28.462  0.00  0.00     0.214 C 
ATOM     23  O3  NAG d1770      26.966  18.182  29.331  0.00  0.00    -0.348 OA
ATOM     24  C1  NAG d1770      26.355  21.111  27.051  0.00  0.00     0.151 C 
ATOM     25  C6  NAG d1770      29.927  20.589  26.137  0.00  0.00     0.043 C 
ATOM     26  O1  NAG d1770      25.381  21.463  26.154  0.00  0.00    -0.369 OA
ATOM     27  O4  NAG d1770      29.580  18.957  28.509  0.00  0.00    -0.390 OA
ATOM     28  N2  NAG d1770      24.786  19.929  28.608  0.00  0.00    -0.349 N 
ATOM     29  O6  NAG d1770      29.709  19.587  25.190  0.00  0.00    -0.398 OA
ATOM     30  C8  NAG d1770      22.634  19.378  29.458  0.00  0.00    -0.003 C 
ATOM     31  O7  NAG d1770      23.776  18.209  27.565  0.00  0.00    -0.274 OA
ATOM     32  C2  NAG d1770      25.972  19.858  27.802  0.00  0.00     0.087 C 
ATOM     33  C5  NAG d1770      28.663  20.571  27.038  0.00  0.00     0.089 C 
ATOM     34  C3  NAG d1770      27.178  19.378  28.597  0.00  0.00     0.093 C 
ATOM     35  H   NAG d1770      28.300  18.465  27.028  0.00  0.00     0.091 H 
ATOM     36  H   NAG d1770      26.500  21.851  27.811  0.00  0.00     0.132 H 
ATOM     37  H   NAG d1770      30.803  20.379  26.714  0.00  0.00     0.078 H 
ATOM     38  H   NAG d1770      30.084  21.545  25.682  0.00  0.00     0.078 H 
ATOM     39  H   NAG d1770      25.287  20.764  25.488  0.00  0.00     0.212 HD
ATOM     40  H   NAG d1770      29.727  19.665  29.154  0.00  0.00     0.210 HD
ATOM     41  H   NAG d1770      24.728  20.626  29.301  0.00  0.00     0.163 HD
ATOM     42  H   NAG d1770      29.573  18.739  25.642  0.00  0.00     0.209 HD
ATOM     43  H   NAG d1770      22.903  20.189  30.100  0.00  0.00     0.040 H 
ATOM     44  H   NAG d1770      22.457  18.501  30.045  0.00  0.00     0.040 H 
ATOM     45  H   NAG d1770      21.744  19.630  28.918  0.00  0.00     0.040 H 
ATOM     46  H   NAG d1770      25.693  19.142  27.057  0.00  0.00     0.084 H 
ATOM     47  H   NAG d1770      28.810  21.275  27.830  0.00  0.00     0.090 H 
ATOM     48  H   NAG d1770      27.331  20.150  29.322  0.00  0.00     0.091 H 
ENDROOT
TORSDOF 11
ENDMDL
MODEL 36
REMARK VINA RESULT:      -7.4      2.587      4.483
REMARK  0 active torsions:
REMARK  status: ('A' for Active; 'I' for Inactive)
REMARK       I    between atoms: C2_1  and  O2_14 
REMARK       I    between atoms: O3_4  and  C3_18 
REMARK       I    between atoms: C4_5  and  O4_13 
REMARK       I    between atoms: C7_7  and  C8_21 
REMARK       I    between atoms: C7_7  and  N2_15 
REMARK       I    between atoms: O3_8  and  C1_12 
REMARK       I    between atoms: O3_8  and  C3_26 
REMARK       I    between atoms: C1_9  and  O1_11 
REMARK       I    between atoms: C6_10  and  C5_25 
REMARK       I    between atoms: C6_10  and  O6_20 
REMARK       I    between atoms: N2_15  and  C2_23 
REMARK       I    between atoms: C6_16  and  C5_17 
ROOT
ATOM      1  C2  GC4 d1769      26.314  20.840  30.084  0.00  0.00     0.107 C 
ATOM      2  O6B GC4 d1769      30.672  20.612  27.715  0.00  0.00    -0.646 OA
ATOM      3  O3  GC4 d1769      24.884  20.525  28.153  0.00  0.00    -0.393 OA
ATOM      4  O5  GC4 d1769      28.691  20.726  29.518  0.00  0.00    -0.343 OA
ATOM      5  C1  GC4 d1769      27.725  20.484  30.571  0.00  0.00     0.159 C 
ATOM      6  O2  GC4 d1769      25.342  20.706  31.120  0.00  0.00    -0.388 OA
ATOM      7  C6  GC4 d1769      29.671  19.892  27.471  0.00  0.00     0.203 C 
ATOM      8  C5  GC4 d1769      28.550  19.791  28.466  0.00  0.00     0.127 C 
ATOM      9  C3  GC4 d1769      25.989  19.961  28.869  0.00  0.00     0.068 C 
ATOM     10  C4  GC4 d1769      27.135  19.786  27.874  0.00  0.00    -0.005 C 
ATOM     11  O6A GC4 d1769      29.657  19.188  26.453  0.00  0.00    -0.646 OA
ATOM     12  H   GC4 d1769      26.283  21.870  29.796  0.00  0.00     0.094 H 
ATOM     13  H   GC4 d1769      24.136  20.650  28.758  0.00  0.00     0.210 HD
ATOM     14  H   GC4 d1769      27.698  19.446  30.825  0.00  0.00     0.133 H 
ATOM     15  H   GC4 d1769      25.321  19.786  31.427  0.00  0.00     0.210 HD
ATOM     16  H   GC4 d1769      28.653  18.809  28.879  0.00  0.00     0.100 H 
ATOM     17  H   GC4 d1769      25.774  18.995  29.276  0.00  0.00     0.087 H 
ATOM     18  H   GC4 d1769      26.993  18.851  27.373  0.00  0.00     0.041 H 
ATOM     19  H   GC4 d1769      27.089  20.640  27.231  0.00  0.00     0.041 H 
ATOM     20  O5  NAG d1770      30.776  20.327  34.807  0.00  0.00    -0.349 OA
ATOM     21  C4  NAG d1770      30.138  21.691  32.928  0.00  0.00     0.089 C 
ATOM     22  C7  NAG d1770      26.446  18.827  33.604  0.00  0.00     0.214 C 
ATOM     23  O3  NAG d1770      28.105  21.155  31.710  0.00  0.00    -0.348 OA
ATOM     24  C1  NAG d1770      29.874  19.263  34.439  0.00  0.00     0.151 C 
ATOM     25  C6  NAG d1770      32.341  22.040  34.170  0.00  0.00     0.043 C 
ATOM     26  O1  NAG d1770      29.503  18.684  35.624  0.00  0.00    -0.369 OA
ATOM     27  O4  NAG d1770      30.682  22.364  31.813  0.00  0.00    -0.390 OA
ATOM     28  N2  NAG d1770      27.710  18.764  33.276  0.00  0.00    -0.349 N 
ATOM     29  O6  NAG d1770      31.664  22.940  34.996  0.00  0.00    -0.398 OA
ATOM     30  C8  NAG d1770      25.620  17.652  33.040  0.00  0.00    -0.003 C 
ATOM     31  O7  NAG d1770      25.991  19.760  34.333  0.00  0.00    -0.274 OA
ATOM     32  C2  NAG d1770      28.668  19.756  33.675  0.00  0.00     0.087 C 
ATOM     33  C5  NAG d1770      31.253  21.041  33.692  0.00  0.00     0.089 C 
ATOM     34  C3  NAG d1770      29.145  20.599  32.501  0.00  0.00     0.093 C 
ATOM     35  H   NAG d1770      29.619  22.407  33.529  0.00  0.00     0.091 H 
ATOM     36  H   NAG d1770      30.352  18.572  33.776  0.00  0.00     0.132 H 
ATOM     37  H   NAG d1770      32.776  22.548  33.336  0.00  0.00     0.078 H 
ATOM     38  H   NAG d1770      33.142  21.549  34.681  0.00  0.00     0.078 H 
ATOM     39  H   NAG d1770      29.076  19.347  36.188  0.00  0.00     0.212 HD
ATOM     40  H   NAG d1770      31.157  21.731  31.254  0.00  0.00     0.210 HD
ATOM     41  H   NAG d1770      28.018  18.004  32.732  0.00  0.00     0.163 HD
ATOM     42  H   NAG d1770      30.949  23.362  34.496  0.00  0.00     0.209 HD
ATOM     43  H   NAG d1770      26.255  17.015  32.461  0.00  0.00     0.040 H 
ATOM     44  H   NAG d1770      24.836  18.033  32.420  0.00  0.00     0.040 H 
ATOM     45  H   NAG d1770      25.195  17.093  33.849  0.00  0.00     0.040 H 
ATOM     46  H   NAG d1770      28.103  20.345  34.367  0.00  0.00     0.084 H 
ATOM     47  H   NAG d1770      31.704  20.367  32.994  0.00  0.00     0.090 H 
ATOM     48  H   NAG d1770      29.654  19.898  31.873  0.00  0.00     0.091 H 
ENDROOT
TORSDOF 11
ENDMDL
MODEL 37
REMARK VINA RESULT:      -7.4      2.069      6.843
REMARK  0 active torsions:
REMARK  status: ('A' for Active; 'I' for Inactive)
REMARK       I    between atoms: C2_1  and  O2_14 
REMARK       I    between atoms: O3_4  and  C3_18 
REMARK       I    between atoms: C4_5  and  O4_13 
REMARK       I    between atoms: C7_7  and  C8_21 
REMARK       I    between atoms: C7_7  and  N2_15 
REMARK       I    between atoms: O3_8  and  C1_12 
REMARK       I    between atoms: O3_8  and  C3_26 
REMARK       I    between atoms: C1_9  and  O1_11 
REMARK       I    between atoms: C6_10  and  C5_25 
REMARK       I    between atoms: C6_10  and  O6_20 
REMARK       I    between atoms: N2_15  and  C2_23 
REMARK       I    between atoms: C6_16  and  C5_17 
ROOT
ATOM      1  C2  GC4 d1769      28.895  21.224  33.478  0.00  0.00     0.107 C 
ATOM      2  O6B GC4 d1769      32.697  20.757  30.319  0.00  0.00    -0.646 OA
ATOM      3  O3  GC4 d1769      29.989  22.673  35.083  0.00  0.00    -0.393 OA
ATOM      4  O5  GC4 d1769      30.322  20.704  31.561  0.00  0.00    -0.343 OA
ATOM      5  C1  GC4 d1769      28.946  20.875  31.985  0.00  0.00     0.159 C 
ATOM      6  O2  GC4 d1769      27.555  21.309  33.961  0.00  0.00    -0.388 OA
ATOM      7  C6  GC4 d1769      32.370  21.815  30.915  0.00  0.00     0.203 C 
ATOM      8  C5  GC4 d1769      31.014  21.938  31.550  0.00  0.00     0.127 C 
ATOM      9  C3  GC4 d1769      29.672  22.530  33.693  0.00  0.00     0.068 C 
ATOM     10  C4  GC4 d1769      30.980  22.639  32.914  0.00  0.00    -0.005 C 
ATOM     11  O6A GC4 d1769      33.130  22.792  30.890  0.00  0.00    -0.646 OA
ATOM     12  H   GC4 d1769      29.353  20.441  34.046  0.00  0.00     0.094 H 
ATOM     13  H   GC4 d1769      29.177  22.609  35.609  0.00  0.00     0.210 HD
ATOM     14  H   GC4 d1769      28.495  21.698  31.472  0.00  0.00     0.133 H 
ATOM     15  H   GC4 d1769      27.082  22.008  33.481  0.00  0.00     0.210 HD
ATOM     16  H   GC4 d1769      30.483  22.610  30.908  0.00  0.00     0.100 H 
ATOM     17  H   GC4 d1769      29.023  23.301  33.331  0.00  0.00     0.087 H 
ATOM     18  H   GC4 d1769      31.180  23.677  32.752  0.00  0.00     0.041 H 
ATOM     19  H   GC4 d1769      31.713  22.140  33.512  0.00  0.00     0.041 H 
ATOM     20  O5  NAG d1770      26.337  18.463  28.157  0.00  0.00    -0.349 OA
ATOM     21  C4  NAG d1770      28.045  18.161  29.827  0.00  0.00     0.089 C 
ATOM     22  C7  NAG d1770      25.384  21.686  31.497  0.00  0.00     0.214 C 
ATOM     23  O3  NAG d1770      28.217  19.758  31.650  0.00  0.00    -0.348 OA
ATOM     24  C1  NAG d1770      26.089  19.830  28.548  0.00  0.00     0.151 C 
ATOM     25  C6  NAG d1770      27.882  16.660  27.769  0.00  0.00     0.043 C 
ATOM     26  O1  NAG d1770      24.763  20.042  28.279  0.00  0.00    -0.369 OA
ATOM     27  O4  NAG d1770      29.397  17.782  29.973  0.00  0.00    -0.390 OA
ATOM     28  N2  NAG d1770      26.167  21.421  30.483  0.00  0.00    -0.349 N 
ATOM     29  O6  NAG d1770      27.060  15.818  28.521  0.00  0.00    -0.398 OA
ATOM     30  C8  NAG d1770      25.319  23.191  31.827  0.00  0.00    -0.003 C 
ATOM     31  O7  NAG d1770      24.744  20.773  32.103  0.00  0.00    -0.274 OA
ATOM     32  C2  NAG d1770      26.395  20.087  30.004  0.00  0.00     0.087 C 
ATOM     33  C5  NAG d1770      27.671  18.072  28.377  0.00  0.00     0.089 C 
ATOM     34  C3  NAG d1770      27.808  19.604  30.299  0.00  0.00     0.093 C 
ATOM     35  H   NAG d1770      27.449  17.505  30.425  0.00  0.00     0.091 H 
ATOM     36  H   NAG d1770      26.730  20.501  28.013  0.00  0.00     0.132 H 
ATOM     37  H   NAG d1770      28.905  16.362  27.856  0.00  0.00     0.078 H 
ATOM     38  H   NAG d1770      27.642  16.630  26.727  0.00  0.00     0.078 H 
ATOM     39  H   NAG d1770      24.226  19.414  28.785  0.00  0.00     0.212 HD
ATOM     40  H   NAG d1770      29.956  18.367  29.437  0.00  0.00     0.210 HD
ATOM     41  H   NAG d1770      26.620  22.168  30.030  0.00  0.00     0.163 HD
ATOM     42  H   NAG d1770      27.309  15.874  29.457  0.00  0.00     0.209 HD
ATOM     43  H   NAG d1770      25.958  23.731  31.161  0.00  0.00     0.040 H 
ATOM     44  H   NAG d1770      25.640  23.349  32.835  0.00  0.00     0.040 H 
ATOM     45  H   NAG d1770      24.312  23.538  31.716  0.00  0.00     0.040 H 
ATOM     46  H   NAG d1770      25.673  19.524  30.560  0.00  0.00     0.084 H 
ATOM     47  H   NAG d1770      28.336  18.749  27.883  0.00  0.00     0.090 H 
ATOM     48  H   NAG d1770      28.428  20.260  29.724  0.00  0.00     0.091 H 
ENDROOT
TORSDOF 11
ENDMDL
MODEL 38
REMARK VINA RESULT:      -7.4      2.358      5.085
REMARK  0 active torsions:
REMARK  status: ('A' for Active; 'I' for Inactive)
REMARK       I    between atoms: C2_1  and  O2_14 
REMARK       I    between atoms: O3_4  and  C3_18 
REMARK       I    between atoms: C4_5  and  O4_13 
REMARK       I    between atoms: C7_7  and  C8_21 
REMARK       I    between atoms: C7_7  and  N2_15 
REMARK       I    between atoms: O3_8  and  C1_12 
REMARK       I    between atoms: O3_8  and  C3_26 
REMARK       I    between atoms: C1_9  and  O1_11 
REMARK       I    between atoms: C6_10  and  C5_25 
REMARK       I    between atoms: C6_10  and  O6_20 
REMARK       I    between atoms: N2_15  and  C2_23 
REMARK       I    between atoms: C6_16  and  C5_17 
ROOT
ATOM      1  C2  GC4 d1769      23.683  18.935  28.308  0.00  0.00     0.107 C 
ATOM      2  O6B GC4 d1769      25.865  14.543  27.530  0.00  0.00    -0.646 OA
ATOM      3  O3  GC4 d1769      21.438  18.295  27.657  0.00  0.00    -0.393 OA
ATOM      4  O5  GC4 d1769      25.255  17.063  28.210  0.00  0.00    -0.343 OA
ATOM      5  C1  GC4 d1769      24.961  18.312  28.886  0.00  0.00     0.159 C 
ATOM      6  O2  GC4 d1769      23.407  20.212  28.880  0.00  0.00    -0.388 OA
ATOM      7  C6  GC4 d1769      24.723  14.712  28.030  0.00  0.00     0.203 C 
ATOM      8  C5  GC4 d1769      24.316  16.061  28.549  0.00  0.00     0.127 C 
ATOM      9  C3  GC4 d1769      22.528  17.945  28.518  0.00  0.00     0.068 C 
ATOM     10  C4  GC4 d1769      22.873  16.483  28.243  0.00  0.00    -0.005 C 
ATOM     11  O6A GC4 d1769      23.972  13.739  28.183  0.00  0.00    -0.646 OA
ATOM     12  H   GC4 d1769      23.812  19.113  27.261  0.00  0.00     0.094 H 
ATOM     13  H   GC4 d1769      21.192  19.222  27.807  0.00  0.00     0.210 HD
ATOM     14  H   GC4 d1769      24.764  18.140  29.923  0.00  0.00     0.133 H 
ATOM     15  H   GC4 d1769      23.278  20.118  29.837  0.00  0.00     0.210 HD
ATOM     16  H   GC4 d1769      24.324  15.946  29.613  0.00  0.00     0.100 H 
ATOM     17  H   GC4 d1769      22.283  18.023  29.556  0.00  0.00     0.087 H 
ATOM     18  H   GC4 d1769      22.223  15.876  28.837  0.00  0.00     0.041 H 
ATOM     19  H   GC4 d1769      22.754  16.353  27.188  0.00  0.00     0.041 H 
ATOM     20  O5  NAG d1770      29.566  19.463  31.062  0.00  0.00    -0.349 OA
ATOM     21  C4  NAG d1770      28.478  18.984  28.969  0.00  0.00     0.089 C 
ATOM     22  C7  NAG d1770      25.031  20.663  31.723  0.00  0.00     0.214 C 
ATOM     23  O3  NAG d1770      26.058  19.139  28.827  0.00  0.00    -0.348 OA
ATOM     24  C1  NAG d1770      28.337  19.361  31.812  0.00  0.00     0.151 C 
ATOM     25  C6  NAG d1770      30.992  18.678  29.290  0.00  0.00     0.043 C 
ATOM     26  O1  NAG d1770      28.488  20.228  32.862  0.00  0.00    -0.369 OA
ATOM     27  O4  NAG d1770      28.530  18.098  27.870  0.00  0.00    -0.390 OA
ATOM     28  N2  NAG d1770      25.852  19.647  31.660  0.00  0.00    -0.349 N 
ATOM     29  O6  NAG d1770      31.148  19.996  28.856  0.00  0.00    -0.398 OA
ATOM     30  C8  NAG d1770      23.728  20.336  32.481  0.00  0.00    -0.003 C 
ATOM     31  O7  NAG d1770      25.323  21.791  31.220  0.00  0.00    -0.274 OA
ATOM     32  C2  NAG d1770      27.120  19.712  30.990  0.00  0.00     0.087 C 
ATOM     33  C5  NAG d1770      29.577  18.632  29.927  0.00  0.00     0.089 C 
ATOM     34  C3  NAG d1770      27.138  18.885  29.713  0.00  0.00     0.093 C 
ATOM     35  H   NAG d1770      28.588  19.981  28.597  0.00  0.00     0.091 H 
ATOM     36  H   NAG d1770      28.169  18.354  32.131  0.00  0.00     0.132 H 
ATOM     37  H   NAG d1770      31.055  18.000  28.465  0.00  0.00     0.078 H 
ATOM     38  H   NAG d1770      31.754  18.389  29.983  0.00  0.00     0.078 H 
ATOM     39  H   NAG d1770      28.637  21.124  32.523  0.00  0.00     0.212 HD
ATOM     40  H   NAG d1770      28.431  17.187  28.186  0.00  0.00     0.210 HD
ATOM     41  H   NAG d1770      25.589  18.802  32.090  0.00  0.00     0.163 HD
ATOM     42  H   NAG d1770      30.440  20.217  28.232  0.00  0.00     0.209 HD
ATOM     43  H   NAG d1770      23.745  19.314  32.795  0.00  0.00     0.040 H 
ATOM     44  H   NAG d1770      22.890  20.497  31.837  0.00  0.00     0.040 H 
ATOM     45  H   NAG d1770      23.645  20.971  33.339  0.00  0.00     0.040 H 
ATOM     46  H   NAG d1770      27.204  20.757  30.772  0.00  0.00     0.084 H 
ATOM     47  H   NAG d1770      29.374  17.621  30.213  0.00  0.00     0.090 H 
ATOM     48  H   NAG d1770      27.010  17.879  30.057  0.00  0.00     0.091 H 
ENDROOT
TORSDOF 11
ENDMDL
MODEL 39
REMARK VINA RESULT:      -7.4      2.442      4.535
REMARK  0 active torsions:
REMARK  status: ('A' for Active; 'I' for Inactive)
REMARK       I    between atoms: C2_1  and  O2_14 
REMARK       I    between atoms: O3_4  and  C3_18 
REMARK       I    between atoms: C4_5  and  O4_13 
REMARK       I    between atoms: C7_7  and  C8_21 
REMARK       I    between atoms: C7_7  and  N2_15 
REMARK       I    between atoms: O3_8  and  C1_12 
REMARK       I    between atoms: O3_8  and  C3_26 
REMARK       I    between atoms: C1_9  and  O1_11 
REMARK       I    between atoms: C6_10  and  C5_25 
REMARK       I    between atoms: C6_10  and  O6_20 
REMARK       I    between atoms: N2_15  and  C2_23 
REMARK       I    between atoms: C6_16  and  C5_17 
ROOT
ATOM      1  C2  GC4 d1769      25.372  20.648  31.359  0.00  0.00     0.107 C 
ATOM      2  O6B GC4 d1769      24.003  17.367  27.892  0.00  0.00    -0.646 OA
ATOM      3  O3  GC4 d1769      23.478  20.354  32.841  0.00  0.00    -0.393 OA
ATOM      4  O5  GC4 d1769      25.287  19.152  29.424  0.00  0.00    -0.343 OA
ATOM      5  C1  GC4 d1769      26.181  19.863  30.317  0.00  0.00     0.159 C 
ATOM      6  O2  GC4 d1769      26.210  21.437  32.201  0.00  0.00    -0.388 OA
ATOM      7  C6  GC4 d1769      23.874  17.212  29.133  0.00  0.00     0.203 C 
ATOM      8  C5  GC4 d1769      24.638  18.085  30.088  0.00  0.00     0.127 C 
ATOM      9  C3  GC4 d1769      24.522  19.650  32.158  0.00  0.00     0.068 C 
ATOM     10  C4  GC4 d1769      23.862  18.552  31.326  0.00  0.00    -0.005 C 
ATOM     11  O6A GC4 d1769      23.193  16.273  29.566  0.00  0.00    -0.646 OA
ATOM     12  H   GC4 d1769      24.729  21.345  30.862  0.00  0.00     0.094 H 
ATOM     13  H   GC4 d1769      23.864  21.061  33.382  0.00  0.00     0.210 HD
ATOM     14  H   GC4 d1769      26.785  19.174  30.869  0.00  0.00     0.133 H 
ATOM     15  H   GC4 d1769      26.821  20.858  32.683  0.00  0.00     0.210 HD
ATOM     16  H   GC4 d1769      25.389  17.439  30.491  0.00  0.00     0.100 H 
ATOM     17  H   GC4 d1769      25.210  19.172  32.824  0.00  0.00     0.087 H 
ATOM     18  H   GC4 d1769      23.718  17.703  31.960  0.00  0.00     0.041 H 
ATOM     19  H   GC4 d1769      22.956  18.980  30.953  0.00  0.00     0.041 H 
ATOM     20  O5  NAG d1770      30.629  19.894  27.580  0.00  0.00    -0.349 OA
ATOM     21  C4  NAG d1770      28.306  20.523  27.510  0.00  0.00     0.089 C 
ATOM     22  C7  NAG d1770      29.352  20.416  32.112  0.00  0.00     0.214 C 
ATOM     23  O3  NAG d1770      27.046  20.641  29.584  0.00  0.00    -0.348 OA
ATOM     24  C1  NAG d1770      30.527  19.376  28.923  0.00  0.00     0.151 C 
ATOM     25  C6  NAG d1770      29.683  20.186  25.387  0.00  0.00     0.043 C 
ATOM     26  O1  NAG d1770      31.762  19.582  29.479  0.00  0.00    -0.369 OA
ATOM     27  O4  NAG d1770      27.129  20.332  26.754  0.00  0.00    -0.390 OA
ATOM     28  N2  NAG d1770      29.283  19.609  31.086  0.00  0.00    -0.349 N 
ATOM     29  O6  NAG d1770      30.003  21.544  25.450  0.00  0.00    -0.398 OA
ATOM     30  C8  NAG d1770      29.123  19.698  33.458  0.00  0.00    -0.003 C 
ATOM     31  O7  NAG d1770      29.607  21.652  31.974  0.00  0.00    -0.274 OA
ATOM     32  C2  NAG d1770      29.448  20.056  29.732  0.00  0.00     0.087 C 
ATOM     33  C5  NAG d1770      29.426  19.767  26.860  0.00  0.00     0.089 C 
ATOM     34  C3  NAG d1770      28.145  20.006  28.948  0.00  0.00     0.093 C 
ATOM     35  H   NAG d1770      28.511  21.572  27.546  0.00  0.00     0.091 H 
ATOM     36  H   NAG d1770      30.249  18.343  28.911  0.00  0.00     0.132 H 
ATOM     37  H   NAG d1770      28.806  20.033  24.794  0.00  0.00     0.078 H 
ATOM     38  H   NAG d1770      30.462  19.610  24.935  0.00  0.00     0.078 H 
ATOM     39  H   NAG d1770      31.968  20.529  29.466  0.00  0.00     0.212 HD
ATOM     40  H   NAG d1770      26.924  19.386  26.709  0.00  0.00     0.210 HD
ATOM     41  H   NAG d1770      29.110  18.654  31.249  0.00  0.00     0.163 HD
ATOM     42  H   NAG d1770      29.273  22.029  25.865  0.00  0.00     0.209 HD
ATOM     43  H   NAG d1770      28.928  18.662  33.281  0.00  0.00     0.040 H 
ATOM     44  H   NAG d1770      28.287  20.138  33.960  0.00  0.00     0.040 H 
ATOM     45  H   NAG d1770      29.997  19.797  34.069  0.00  0.00     0.040 H 
ATOM     46  H   NAG d1770      29.776  21.066  29.869  0.00  0.00     0.084 H 
ATOM     47  H   NAG d1770      29.104  18.747  26.863  0.00  0.00     0.090 H 
ATOM     48  H   NAG d1770      27.907  18.963  28.913  0.00  0.00     0.091 H 
ENDROOT
TORSDOF 11
ENDMDL
MODEL 40
REMARK VINA RESULT:      -7.4      4.071      4.920
REMARK  0 active torsions:
REMARK  status: ('A' for Active; 'I' for Inactive)
REMARK       I    between atoms: C2_1  and  O2_14 
REMARK       I    between atoms: O3_4  and  C3_18 
REMARK       I    between atoms: C4_5  and  O4_13 
REMARK       I    between atoms: C7_7  and  C8_21 
REMARK       I    between atoms: C7_7  and  N2_15 
REMARK       I    between atoms: O3_8  and  C1_12 
REMARK       I    between atoms: O3_8  and  C3_26 
REMARK       I    between atoms: C1_9  and  O1_11 
REMARK       I    between atoms: C6_10  and  C5_25 
REMARK       I    between atoms: C6_10  and  O6_20 
REMARK       I    between atoms: N2_15  and  C2_23 
REMARK       I    between atoms: C6_16  and  C5_17 
ROOT
ATOM      1  C2  GC4 d1769      22.320  17.632  28.840  0.00  0.00     0.107 C 
ATOM      2  O6B GC4 d1769      22.667  22.533  28.115  0.00  0.00    -0.646 OA
ATOM      3  O3  GC4 d1769      21.439  17.049  26.659  0.00  0.00    -0.393 OA
ATOM      4  O5  GC4 d1769      22.797  20.023  29.048  0.00  0.00    -0.343 OA
ATOM      5  C1  GC4 d1769      23.192  18.705  29.506  0.00  0.00     0.159 C 
ATOM      6  O2  GC4 d1769      22.611  16.326  29.333  0.00  0.00    -0.388 OA
ATOM      7  C6  GC4 d1769      22.942  21.648  27.265  0.00  0.00     0.203 C 
ATOM      8  C5  GC4 d1769      23.150  20.224  27.693  0.00  0.00     0.127 C 
ATOM      9  C3  GC4 d1769      22.509  17.734  27.321  0.00  0.00     0.068 C 
ATOM     10  C4  GC4 d1769      22.549  19.157  26.768  0.00  0.00    -0.005 C 
ATOM     11  O6A GC4 d1769      23.138  21.973  26.086  0.00  0.00    -0.646 OA
ATOM     12  H   GC4 d1769      21.291  17.805  29.082  0.00  0.00     0.094 H 
ATOM     13  H   GC4 d1769      21.386  16.138  26.988  0.00  0.00     0.210 HD
ATOM     14  H   GC4 d1769      24.199  18.492  29.213  0.00  0.00     0.133 H 
ATOM     15  H   GC4 d1769      23.537  16.108  29.143  0.00  0.00     0.210 HD
ATOM     16  H   GC4 d1769      24.205  20.073  27.599  0.00  0.00     0.100 H 
ATOM     17  H   GC4 d1769      23.467  17.295  27.132  0.00  0.00     0.087 H 
ATOM     18  H   GC4 d1769      23.127  19.143  25.868  0.00  0.00     0.041 H 
ATOM     19  H   GC4 d1769      21.527  19.440  26.630  0.00  0.00     0.041 H 
ATOM     20  O5  NAG d1770      25.844  19.835  33.861  0.00  0.00    -0.349 OA
ATOM     21  C4  NAG d1770      23.718  20.100  32.763  0.00  0.00     0.089 C 
ATOM     22  C7  NAG d1770      25.557  16.207  30.828  0.00  0.00     0.214 C 
ATOM     23  O3  NAG d1770      23.168  18.667  30.881  0.00  0.00    -0.348 OA
ATOM     24  C1  NAG d1770      26.394  19.060  32.775  0.00  0.00     0.151 C 
ATOM     25  C6  NAG d1770      24.484  21.665  34.629  0.00  0.00     0.043 C 
ATOM     26  O1  NAG d1770      27.291  18.208  33.364  0.00  0.00    -0.369 OA
ATOM     27  O4  NAG d1770      22.811  21.092  32.330  0.00  0.00    -0.390 OA
ATOM     28  N2  NAG d1770      25.801  17.488  30.915  0.00  0.00    -0.349 N 
ATOM     29  O6  NAG d1770      23.861  20.800  35.530  0.00  0.00    -0.398 OA
ATOM     30  C8  NAG d1770      26.143  15.569  29.552  0.00  0.00    -0.003 C 
ATOM     31  O7  NAG d1770      24.921  15.585  31.733  0.00  0.00    -0.274 OA
ATOM     32  C2  NAG d1770      25.341  18.295  32.010  0.00  0.00     0.087 C 
ATOM     33  C5  NAG d1770      24.885  20.769  33.426  0.00  0.00     0.089 C 
ATOM     34  C3  NAG d1770      24.245  19.263  31.588  0.00  0.00     0.093 C 
ATOM     35  H   NAG d1770      23.203  19.452  33.440  0.00  0.00     0.091 H 
ATOM     36  H   NAG d1770      26.851  19.698  32.047  0.00  0.00     0.132 H 
ATOM     37  H   NAG d1770      23.809  22.434  34.316  0.00  0.00     0.078 H 
ATOM     38  H   NAG d1770      25.329  22.158  35.063  0.00  0.00     0.078 H 
ATOM     39  H   NAG d1770      26.831  17.653  34.013  0.00  0.00     0.212 HD
ATOM     40  H   NAG d1770      23.259  21.692  31.714  0.00  0.00     0.210 HD
ATOM     41  H   NAG d1770      26.323  17.918  30.200  0.00  0.00     0.163 HD
ATOM     42  H   NAG d1770      23.103  20.375  35.099  0.00  0.00     0.209 HD
ATOM     43  H   NAG d1770      26.626  16.322  28.966  0.00  0.00     0.040 H 
ATOM     44  H   NAG d1770      25.354  15.125  28.981  0.00  0.00     0.040 H 
ATOM     45  H   NAG d1770      26.854  14.816  29.823  0.00  0.00     0.040 H 
ATOM     46  H   NAG d1770      24.963  17.558  32.687  0.00  0.00     0.084 H 
ATOM     47  H   NAG d1770      25.305  21.397  32.669  0.00  0.00     0.090 H 
ATOM     48  H   NAG d1770      24.732  19.915  30.893  0.00  0.00     0.091 H 
ENDROOT
TORSDOF 11
ENDMDL
MODEL 41
REMARK VINA RESULT:      -7.4      2.539      5.543
REMARK  0 active torsions:
REMARK  status: ('A' for Active; 'I' for Inactive)
REMARK       I    between atoms: C2_1  and  O2_14 
REMARK       I    between atoms: O3_4  and  C3_18 
REMARK       I    between atoms: C4_5  and  O4_13 
REMARK       I    between atoms: C7_7  and  C8_21 
REMARK       I    between atoms: C7_7  and  N2_15 
REMARK       I    between atoms: O3_8  and  C1_12 
REMARK       I    between atoms: O3_8  and  C3_26 
REMARK       I    between atoms: C1_9  and  O1_11 
REMARK       I    between atoms: C6_10  and  C5_25 
REMARK       I    between atoms: C6_10  and  O6_20 
REMARK       I    between atoms: N2_15  and  C2_23 
REMARK       I    between atoms: C6_16  and  C5_17 
ROOT
ATOM      1  C2  GC4 d1769      29.164  19.675  28.351  0.00  0.00     0.107 C 
ATOM      2  O6B GC4 d1769      32.005  16.016  30.140  0.00  0.00    -0.646 OA
ATOM      3  O3  GC4 d1769      29.298  19.066  26.009  0.00  0.00    -0.393 OA
ATOM      4  O5  GC4 d1769      30.357  18.102  29.797  0.00  0.00    -0.343 OA
ATOM      5  C1  GC4 d1769      29.241  19.026  29.740  0.00  0.00     0.159 C 
ATOM      6  O2  GC4 d1769      28.137  20.661  28.279  0.00  0.00    -0.388 OA
ATOM      7  C6  GC4 d1769      31.164  15.899  29.213  0.00  0.00     0.203 C 
ATOM      8  C5  GC4 d1769      30.118  16.957  29.001  0.00  0.00     0.127 C 
ATOM      9  C3  GC4 d1769      28.974  18.563  27.311  0.00  0.00     0.068 C 
ATOM     10  C4  GC4 d1769      29.820  17.312  27.539  0.00  0.00    -0.005 C 
ATOM     11  O6A GC4 d1769      31.136  14.861  28.539  0.00  0.00    -0.646 OA
ATOM     12  H   GC4 d1769      30.076  20.198  28.149  0.00  0.00     0.094 H 
ATOM     13  H   GC4 d1769      28.775  19.864  25.831  0.00  0.00     0.210 HD
ATOM     14  H   GC4 d1769      28.316  18.505  29.875  0.00  0.00     0.133 H 
ATOM     15  H   GC4 d1769      27.277  20.247  28.455  0.00  0.00     0.210 HD
ATOM     16  H   GC4 d1769      29.211  16.501  29.340  0.00  0.00     0.100 H 
ATOM     17  H   GC4 d1769      27.948  18.271  27.402  0.00  0.00     0.087 H 
ATOM     18  H   GC4 d1769      29.305  16.484  27.100  0.00  0.00     0.041 H 
ATOM     19  H   GC4 d1769      30.770  17.524  27.095  0.00  0.00     0.041 H 
ATOM     20  O5  NAG d1770      28.271  19.848  34.805  0.00  0.00    -0.349 OA
ATOM     21  C4  NAG d1770      29.979  19.976  33.113  0.00  0.00     0.089 C 
ATOM     22  C7  NAG d1770      25.928  20.314  30.713  0.00  0.00     0.214 C 
ATOM     23  O3  NAG d1770      29.335  19.930  30.771  0.00  0.00    -0.348 OA
ATOM     24  C1  NAG d1770      27.273  19.386  33.870  0.00  0.00     0.151 C 
ATOM     25  C6  NAG d1770      30.542  19.830  35.599  0.00  0.00     0.043 C 
ATOM     26  O1  NAG d1770      26.085  19.872  34.350  0.00  0.00    -0.369 OA
ATOM     27  O4  NAG d1770      31.277  19.508  32.812  0.00  0.00    -0.390 OA
ATOM     28  N2  NAG d1770      26.574  19.461  31.464  0.00  0.00    -0.349 N 
ATOM     29  O6  NAG d1770      30.525  21.226  35.625  0.00  0.00    -0.398 OA
ATOM     30  C8  NAG d1770      24.977  19.630  29.709  0.00  0.00    -0.003 C 
ATOM     31  O7  NAG d1770      26.078  21.567  30.845  0.00  0.00    -0.274 OA
ATOM     32  C2  NAG d1770      27.525  19.866  32.461  0.00  0.00     0.087 C 
ATOM     33  C5  NAG d1770      29.571  19.439  34.453  0.00  0.00     0.089 C 
ATOM     34  C3  NAG d1770      28.952  19.507  32.071  0.00  0.00     0.093 C 
ATOM     35  H   NAG d1770      30.003  21.045  33.112  0.00  0.00     0.091 H 
ATOM     36  H   NAG d1770      27.283  18.318  33.801  0.00  0.00     0.132 H 
ATOM     37  H   NAG d1770      31.528  19.468  35.396  0.00  0.00     0.078 H 
ATOM     38  H   NAG d1770      30.249  19.407  36.537  0.00  0.00     0.078 H 
ATOM     39  H   NAG d1770      26.125  20.839  34.394  0.00  0.00     0.212 HD
ATOM     40  H   NAG d1770      31.278  18.538  32.808  0.00  0.00     0.210 HD
ATOM     41  H   NAG d1770      26.401  18.499  31.341  0.00  0.00     0.163 HD
ATOM     42  H   NAG d1770      30.797  21.568  34.759  0.00  0.00     0.209 HD
ATOM     43  H   NAG d1770      25.051  18.568  29.814  0.00  0.00     0.040 H 
ATOM     44  H   NAG d1770      25.249  19.910  28.713  0.00  0.00     0.040 H 
ATOM     45  H   NAG d1770      23.971  19.938  29.904  0.00  0.00     0.040 H 
ATOM     46  H   NAG d1770      27.387  20.927  32.482  0.00  0.00     0.084 H 
ATOM     47  H   NAG d1770      29.601  18.376  34.340  0.00  0.00     0.090 H 
ATOM     48  H   NAG d1770      28.951  18.437  32.048  0.00  0.00     0.091 H 
ENDROOT
TORSDOF 11
ENDMDL
MODEL 42
REMARK VINA RESULT:      -7.3      3.036      5.574
REMARK  0 active torsions:
REMARK  status: ('A' for Active; 'I' for Inactive)
REMARK       I    between atoms: C2_1  and  O2_14 
REMARK       I    between atoms: O3_4  and  C3_18 
REMARK       I    between atoms: C4_5  and  O4_13 
REMARK       I    between atoms: C7_7  and  C8_21 
REMARK       I    between atoms: C7_7  and  N2_15 
REMARK       I    between atoms: O3_8  and  C1_12 
REMARK       I    between atoms: O3_8  and  C3_26 
REMARK       I    between atoms: C1_9  and  O1_11 
REMARK       I    between atoms: C6_10  and  C5_25 
REMARK       I    between atoms: C6_10  and  O6_20 
REMARK       I    between atoms: N2_15  and  C2_23 
REMARK       I    between atoms: C6_16  and  C5_17 
ROOT
ATOM      1  C2  GC4 d1769      29.951  19.351  31.075  0.00  0.00     0.107 C 
ATOM      2  O6B GC4 d1769      26.229  20.388  27.955  0.00  0.00    -0.646 OA
ATOM      3  O3  GC4 d1769      31.410  18.259  29.478  0.00  0.00    -0.393 OA
ATOM      4  O5  GC4 d1769      27.899  20.196  30.043  0.00  0.00    -0.343 OA
ATOM      5  C1  GC4 d1769      28.845  20.415  31.119  0.00  0.00     0.159 C 
ATOM      6  O2  GC4 d1769      30.853  19.473  32.173  0.00  0.00    -0.388 OA
ATOM      7  C6  GC4 d1769      27.453  20.472  27.683  0.00  0.00     0.203 C 
ATOM      8  C5  GC4 d1769      28.475  20.490  28.784  0.00  0.00     0.127 C 
ATOM      9  C3  GC4 d1769      30.667  19.459  29.722  0.00  0.00     0.068 C 
ATOM     10  C4  GC4 d1769      29.750  19.679  28.521  0.00  0.00    -0.005 C 
ATOM     11  O6A GC4 d1769      27.809  20.642  26.509  0.00  0.00    -0.646 OA
ATOM     12  H   GC4 d1769      29.516  18.378  31.170  0.00  0.00     0.094 H 
ATOM     13  H   GC4 d1769      32.006  18.090  30.225  0.00  0.00     0.210 HD
ATOM     14  H   GC4 d1769      29.337  21.358  31.000  0.00  0.00     0.133 H 
ATOM     15  H   GC4 d1769      31.284  20.342  32.143  0.00  0.00     0.210 HD
ATOM     16  H   GC4 d1769      28.820  21.502  28.806  0.00  0.00     0.100 H 
ATOM     17  H   GC4 d1769      31.290  20.326  29.807  0.00  0.00     0.087 H 
ATOM     18  H   GC4 d1769      30.312  20.190  27.768  0.00  0.00     0.041 H 
ATOM     19  H   GC4 d1769      29.416  18.704  28.233  0.00  0.00     0.041 H 
ATOM     20  O5  NAG d1770      26.106  23.474  34.347  0.00  0.00    -0.349 OA
ATOM     21  C4  NAG d1770      26.096  21.347  33.217  0.00  0.00     0.089 C 
ATOM     22  C7  NAG d1770      30.670  22.454  33.588  0.00  0.00     0.214 C 
ATOM     23  O3  NAG d1770      28.176  20.471  32.319  0.00  0.00    -0.348 OA
ATOM     24  C1  NAG d1770      27.402  23.832  33.823  0.00  0.00     0.151 C 
ATOM     25  C6  NAG d1770      23.948  22.456  34.038  0.00  0.00     0.043 C 
ATOM     26  O1  NAG d1770      27.969  24.624  34.786  0.00  0.00    -0.369 OA
ATOM     27  O4  NAG d1770      25.330  20.575  32.316  0.00  0.00    -0.390 OA
ATOM     28  N2  NAG d1770      29.581  22.894  33.014  0.00  0.00    -0.349 N 
ATOM     29  O6  NAG d1770      24.121  21.766  35.240  0.00  0.00    -0.398 OA
ATOM     30  C8  NAG d1770      31.953  22.856  32.832  0.00  0.00    -0.003 C 
ATOM     31  O7  NAG d1770      30.634  21.789  34.668  0.00  0.00    -0.274 OA
ATOM     32  C2  NAG d1770      28.268  22.630  33.531  0.00  0.00     0.087 C 
ATOM     33  C5  NAG d1770      25.381  22.641  33.473  0.00  0.00     0.089 C 
ATOM     34  C3  NAG d1770      27.486  21.668  32.647  0.00  0.00     0.093 C 
ATOM     35  H   NAG d1770      26.218  20.784  34.118  0.00  0.00     0.091 H 
ATOM     36  H   NAG d1770      27.306  24.334  32.882  0.00  0.00     0.132 H 
ATOM     37  H   NAG d1770      23.347  21.886  33.361  0.00  0.00     0.078 H 
ATOM     38  H   NAG d1770      23.447  23.390  34.180  0.00  0.00     0.078 H 
ATOM     39  H   NAG d1770      28.034  24.128  35.616  0.00  0.00     0.212 HD
ATOM     40  H   NAG d1770      25.207  21.069  31.491  0.00  0.00     0.210 HD
ATOM     41  H   NAG d1770      29.665  23.429  32.192  0.00  0.00     0.163 HD
ATOM     42  H   NAG d1770      24.577  20.928  35.069  0.00  0.00     0.209 HD
ATOM     43  H   NAG d1770      31.691  23.411  31.955  0.00  0.00     0.040 H 
ATOM     44  H   NAG d1770      32.491  21.976  32.549  0.00  0.00     0.040 H 
ATOM     45  H   NAG d1770      32.567  23.462  33.466  0.00  0.00     0.040 H 
ATOM     46  H   NAG d1770      28.487  22.188  34.481  0.00  0.00     0.084 H 
ATOM     47  H   NAG d1770      25.302  23.103  32.511  0.00  0.00     0.090 H 
ATOM     48  H   NAG d1770      27.366  22.204  31.729  0.00  0.00     0.091 H 
ENDROOT
TORSDOF 11
ENDMDL
MODEL 43
REMARK VINA RESULT:      -7.3      3.306      5.132
REMARK  0 active torsions:
REMARK  status: ('A' for Active; 'I' for Inactive)
REMARK       I    between atoms: C2_1  and  O2_14 
REMARK       I    between atoms: O3_4  and  C3_18 
REMARK       I    between atoms: C4_5  and  O4_13 
REMARK       I    between atoms: C7_7  and  C8_21 
REMARK       I    between atoms: C7_7  and  N2_15 
REMARK       I    between atoms: O3_8  and  C1_12 
REMARK       I    between atoms: O3_8  and  C3_26 
REMARK       I    between atoms: C1_9  and  O1_11 
REMARK       I    between atoms: C6_10  and  C5_25 
REMARK       I    between atoms: C6_10  and  O6_20 
REMARK       I    between atoms: N2_15  and  C2_23 
REMARK       I    between atoms: C6_16  and  C5_17 
ROOT
ATOM      1  C2  GC4 d1769      27.474  19.079  30.937  0.00  0.00     0.107 C 
ATOM      2  O6B GC4 d1769      24.314  21.630  28.080  0.00  0.00    -0.646 OA
ATOM      3  O3  GC4 d1769      28.232  17.511  29.252  0.00  0.00    -0.393 OA
ATOM      4  O5  GC4 d1769      25.893  20.720  30.045  0.00  0.00    -0.343 OA
ATOM      5  C1  GC4 d1769      26.917  20.505  31.048  0.00  0.00     0.159 C 
ATOM      6  O2  GC4 d1769      28.419  18.793  31.966  0.00  0.00    -0.388 OA
ATOM      7  C6  GC4 d1769      25.440  21.204  27.720  0.00  0.00     0.203 C 
ATOM      8  C5  GC4 d1769      26.450  20.773  28.745  0.00  0.00     0.127 C 
ATOM      9  C3  GC4 d1769      28.075  18.906  29.535  0.00  0.00     0.068 C 
ATOM     10  C4  GC4 d1769      27.251  19.511  28.400  0.00  0.00    -0.005 C 
ATOM     11  O6A GC4 d1769      25.752  21.233  26.522  0.00  0.00    -0.646 OA
ATOM     12  H   GC4 d1769      26.681  18.373  31.073  0.00  0.00     0.094 H 
ATOM     13  H   GC4 d1769      28.753  17.094  29.956  0.00  0.00     0.210 HD
ATOM     14  H   GC4 d1769      27.747  21.161  30.885  0.00  0.00     0.133 H 
ATOM     15  H   GC4 d1769      29.169  19.405  31.897  0.00  0.00     0.210 HD
ATOM     16  H   GC4 d1769      27.186  21.550  28.731  0.00  0.00     0.100 H 
ATOM     17  H   GC4 d1769      29.005  19.434  29.566  0.00  0.00     0.087 H 
ATOM     18  H   GC4 d1769      27.921  19.757  27.604  0.00  0.00     0.041 H 
ATOM     19  H   GC4 d1769      26.523  18.769  28.147  0.00  0.00     0.041 H 
ATOM     20  O5  NAG d1770      25.929  24.361  34.429  0.00  0.00    -0.349 OA
ATOM     21  C4  NAG d1770      24.958  22.454  33.327  0.00  0.00     0.089 C 
ATOM     22  C7  NAG d1770      29.591  21.552  33.359  0.00  0.00     0.214 C 
ATOM     23  O3  NAG d1770      26.417  20.811  32.292  0.00  0.00    -0.348 OA
ATOM     24  C1  NAG d1770      27.217  24.159  33.810  0.00  0.00     0.151 C 
ATOM     25  C6  NAG d1770      23.528  24.339  34.287  0.00  0.00     0.043 C 
ATOM     26  O1  NAG d1770      28.128  24.625  34.722  0.00  0.00    -0.369 OA
ATOM     27  O4  NAG d1770      23.880  22.088  32.491  0.00  0.00    -0.390 OA
ATOM     28  N2  NAG d1770      28.747  22.416  32.859  0.00  0.00    -0.349 N 
ATOM     29  O6  NAG d1770      23.482  23.616  35.481  0.00  0.00    -0.398 OA
ATOM     30  C8  NAG d1770      30.869  21.400  32.508  0.00  0.00    -0.003 C 
ATOM     31  O7  NAG d1770      29.357  20.941  34.446  0.00  0.00    -0.274 OA
ATOM     32  C2  NAG d1770      27.482  22.712  33.471  0.00  0.00     0.087 C 
ATOM     33  C5  NAG d1770      24.866  23.923  33.619  0.00  0.00     0.089 C 
ATOM     34  C3  NAG d1770      26.312  22.179  32.656  0.00  0.00     0.093 C 
ATOM     35  H   NAG d1770      24.896  21.873  34.222  0.00  0.00     0.091 H 
ATOM     36  H   NAG d1770      27.273  24.673  32.873  0.00  0.00     0.132 H 
ATOM     37  H   NAG d1770      22.699  24.084  33.660  0.00  0.00     0.078 H 
ATOM     38  H   NAG d1770      23.472  25.394  34.453  0.00  0.00     0.078 H 
ATOM     39  H   NAG d1770      28.038  24.129  35.550  0.00  0.00     0.212 HD
ATOM     40  H   NAG d1770      23.917  22.605  31.671  0.00  0.00     0.210 HD
ATOM     41  H   NAG d1770      28.989  22.884  32.027  0.00  0.00     0.163 HD
ATOM     42  H   NAG d1770      23.535  22.667  35.286  0.00  0.00     0.209 HD
ATOM     43  H   NAG d1770      30.801  22.030  31.647  0.00  0.00     0.040 H 
ATOM     44  H   NAG d1770      30.972  20.381  32.198  0.00  0.00     0.040 H 
ATOM     45  H   NAG d1770      31.722  21.682  33.091  0.00  0.00     0.040 H 
ATOM     46  H   NAG d1770      27.563  22.200  34.407  0.00  0.00     0.084 H 
ATOM     47  H   NAG d1770      24.919  24.395  32.660  0.00  0.00     0.090 H 
ATOM     48  H   NAG d1770      26.362  22.734  31.742  0.00  0.00     0.091 H 
ENDROOT
TORSDOF 11
ENDMDL
MODEL 44
REMARK VINA RESULT:      -7.3      2.736      6.886
REMARK  0 active torsions:
REMARK  status: ('A' for Active; 'I' for Inactive)
REMARK       I    between atoms: C2_1  and  O2_14 
REMARK       I    between atoms: O3_4  and  C3_18 
REMARK       I    between atoms: C4_5  and  O4_13 
REMARK       I    between atoms: C7_7  and  C8_21 
REMARK       I    between atoms: C7_7  and  N2_15 
REMARK       I    between atoms: O3_8  and  C1_12 
REMARK       I    between atoms: O3_8  and  C3_26 
REMARK       I    between atoms: C1_9  and  O1_11 
REMARK       I    between atoms: C6_10  and  C5_25 
REMARK       I    between atoms: C6_10  and  O6_20 
REMARK       I    between atoms: N2_15  and  C2_23 
REMARK       I    between atoms: C6_16  and  C5_17 
ROOT
ATOM      1  C2  GC4 d1769      28.737  19.356  32.939  0.00  0.00     0.107 C 
ATOM      2  O6B GC4 d1769      31.523  21.045  29.191  0.00  0.00    -0.646 OA
ATOM      3  O3  GC4 d1769      30.528  18.996  34.531  0.00  0.00    -0.393 OA
ATOM      4  O5  GC4 d1769      29.534  20.312  30.833  0.00  0.00    -0.343 OA
ATOM      5  C1  GC4 d1769      28.399  20.241  31.731  0.00  0.00     0.159 C 
ATOM      6  O2  GC4 d1769      27.616  19.181  33.803  0.00  0.00    -0.388 OA
ATOM      7  C6  GC4 d1769      31.688  21.324  30.406  0.00  0.00     0.203 C 
ATOM      8  C5  GC4 d1769      30.592  21.061  31.399  0.00  0.00     0.127 C 
ATOM      9  C3  GC4 d1769      29.939  19.975  33.666  0.00  0.00     0.068 C 
ATOM     10  C4  GC4 d1769      31.044  20.502  32.754  0.00  0.00    -0.005 C 
ATOM     11  O6A GC4 d1769      32.719  21.909  30.765  0.00  0.00    -0.646 OA
ATOM     12  H   GC4 d1769      28.994  18.373  32.602  0.00  0.00     0.094 H 
ATOM     13  H   GC4 d1769      29.851  18.640  35.126  0.00  0.00     0.210 HD
ATOM     14  H   GC4 d1769      28.172  21.208  32.127  0.00  0.00     0.133 H 
ATOM     15  H   GC4 d1769      27.333  20.044  34.145  0.00  0.00     0.210 HD
ATOM     16  H   GC4 d1769      30.218  22.034  31.641  0.00  0.00     0.100 H 
ATOM     17  H   GC4 d1769      29.538  20.814  34.197  0.00  0.00     0.087 H 
ATOM     18  H   GC4 d1769      31.554  21.284  33.277  0.00  0.00     0.041 H 
ATOM     19  H   GC4 d1769      31.657  19.655  32.526  0.00  0.00     0.041 H 
ATOM     20  O5  NAG d1770      24.485  21.783  28.637  0.00  0.00    -0.349 OA
ATOM     21  C4  NAG d1770      26.256  20.168  28.862  0.00  0.00     0.089 C 
ATOM     22  C7  NAG d1770      25.302  21.486  33.294  0.00  0.00     0.214 C 
ATOM     23  O3  NAG d1770      27.285  19.831  31.037  0.00  0.00    -0.348 OA
ATOM     24  C1  NAG d1770      24.793  22.410  29.900  0.00  0.00     0.151 C 
ATOM     25  C6  NAG d1770      25.225  20.741  26.598  0.00  0.00     0.043 C 
ATOM     26  O1  NAG d1770      23.593  22.880  30.365  0.00  0.00    -0.369 OA
ATOM     27  O4  NAG d1770      27.400  19.678  28.195  0.00  0.00    -0.390 OA
ATOM     28  N2  NAG d1770      25.753  21.995  32.177  0.00  0.00    -0.349 N 
ATOM     29  O6  NAG d1770      24.313  19.707  26.818  0.00  0.00    -0.398 OA
ATOM     30  C8  NAG d1770      25.815  22.230  34.544  0.00  0.00    -0.003 C 
ATOM     31  O7  NAG d1770      24.508  20.496  33.304  0.00  0.00    -0.274 OA
ATOM     32  C2  NAG d1770      25.422  21.457  30.888  0.00  0.00     0.087 C 
ATOM     33  C5  NAG d1770      25.622  21.232  28.017  0.00  0.00     0.089 C 
ATOM     34  C3  NAG d1770      26.614  20.783  30.224  0.00  0.00     0.093 C 
ATOM     35  H   NAG d1770      25.589  19.347  29.023  0.00  0.00     0.091 H 
ATOM     36  H   NAG d1770      25.517  23.188  29.772  0.00  0.00     0.132 H 
ATOM     37  H   NAG d1770      26.083  20.381  26.071  0.00  0.00     0.078 H 
ATOM     38  H   NAG d1770      24.808  21.526  26.003  0.00  0.00     0.078 H 
ATOM     39  H   NAG d1770      22.973  22.142  30.465  0.00  0.00     0.212 HD
ATOM     40  H   NAG d1770      28.020  20.407  28.039  0.00  0.00     0.210 HD
ATOM     41  H   NAG d1770      26.345  22.780  32.223  0.00  0.00     0.163 HD
ATOM     42  H   NAG d1770      24.730  19.018  27.359  0.00  0.00     0.209 HD
ATOM     43  H   NAG d1770      26.470  23.021  34.244  0.00  0.00     0.040 H 
ATOM     44  H   NAG d1770      26.345  21.548  35.174  0.00  0.00     0.040 H 
ATOM     45  H   NAG d1770      24.984  22.640  35.081  0.00  0.00     0.040 H 
ATOM     46  H   NAG d1770      24.663  20.743  31.132  0.00  0.00     0.084 H 
ATOM     47  H   NAG d1770      26.378  21.981  27.909  0.00  0.00     0.090 H 
ATOM     48  H   NAG d1770      27.307  21.582  30.068  0.00  0.00     0.091 H 
ENDROOT
TORSDOF 11
ENDMDL
MODEL 45
REMARK VINA RESULT:      -7.3      2.232      4.745
REMARK  0 active torsions:
REMARK  status: ('A' for Active; 'I' for Inactive)
REMARK       I    between atoms: C2_1  and  O2_14 
REMARK       I    between atoms: O3_4  and  C3_18 
REMARK       I    between atoms: C4_5  and  O4_13 
REMARK       I    between atoms: C7_7  and  C8_21 
REMARK       I    between atoms: C7_7  and  N2_15 
REMARK       I    between atoms: O3_8  and  C1_12 
REMARK       I    between atoms: O3_8  and  C3_26 
REMARK       I    between atoms: C1_9  and  O1_11 
REMARK       I    between atoms: C6_10  and  C5_25 
REMARK       I    between atoms: C6_10  and  O6_20 
REMARK       I    between atoms: N2_15  and  C2_23 
REMARK       I    between atoms: C6_16  and  C5_17 
ROOT
ATOM      1  C2  GC4 d1769      27.113  20.742  30.550  0.00  0.00     0.107 C 
ATOM      2  O6B GC4 d1769      29.552  17.572  27.606  0.00  0.00    -0.646 OA
ATOM      3  O3  GC4 d1769      24.869  19.971  30.059  0.00  0.00    -0.393 OA
ATOM      4  O5  GC4 d1769      28.827  19.429  29.399  0.00  0.00    -0.343 OA
ATOM      5  C1  GC4 d1769      28.555  20.215  30.586  0.00  0.00     0.159 C 
ATOM      6  O2  GC4 d1769      26.831  21.599  31.655  0.00  0.00    -0.388 OA
ATOM      7  C6  GC4 d1769      28.546  17.291  28.307  0.00  0.00     0.203 C 
ATOM      8  C5  GC4 d1769      28.116  18.206  29.418  0.00  0.00     0.127 C 
ATOM      9  C3  GC4 d1769      26.163  19.538  30.494  0.00  0.00     0.068 C 
ATOM     10  C4  GC4 d1769      26.603  18.411  29.562  0.00  0.00    -0.005 C 
ATOM     11  O6A GC4 d1769      27.970  16.207  28.143  0.00  0.00    -0.646 OA
ATOM     12  H   GC4 d1769      26.974  21.346  29.678  0.00  0.00     0.094 H 
ATOM     13  H   GC4 d1769      24.558  20.690  30.632  0.00  0.00     0.210 HD
ATOM     14  H   GC4 d1769      28.626  19.607  31.463  0.00  0.00     0.133 H 
ATOM     15  H   GC4 d1769      26.941  21.107  32.483  0.00  0.00     0.210 HD
ATOM     16  H   GC4 d1769      28.385  17.680  30.310  0.00  0.00     0.100 H 
ATOM     17  H   GC4 d1769      26.159  19.142  31.488  0.00  0.00     0.087 H 
ATOM     18  H   GC4 d1769      26.184  17.499  29.930  0.00  0.00     0.041 H 
ATOM     19  H   GC4 d1769      26.257  18.692  28.589  0.00  0.00     0.041 H 
ATOM     20  O5  NAG d1770      33.374  21.316  32.271  0.00  0.00    -0.349 OA
ATOM     21  C4  NAG d1770      31.891  21.502  30.383  0.00  0.00     0.089 C 
ATOM     22  C7  NAG d1770      29.008  21.199  34.109  0.00  0.00     0.214 C 
ATOM     23  O3  NAG d1770      29.504  21.202  30.716  0.00  0.00    -0.348 OA
ATOM     24  C1  NAG d1770      32.373  20.675  33.090  0.00  0.00     0.151 C 
ATOM     25  C6  NAG d1770      34.429  21.612  30.130  0.00  0.00     0.043 C 
ATOM     26  O1  NAG d1770      32.662  21.061  34.373  0.00  0.00    -0.369 OA
ATOM     27  O4  NAG d1770      31.790  21.159  29.017  0.00  0.00    -0.390 OA
ATOM     28  N2  NAG d1770      29.905  20.484  33.481  0.00  0.00    -0.349 N 
ATOM     29  O6  NAG d1770      34.326  22.996  30.290  0.00  0.00    -0.398 OA
ATOM     30  C8  NAG d1770      27.965  20.337  34.850  0.00  0.00    -0.003 C 
ATOM     31  O7  NAG d1770      29.042  22.467  34.104  0.00  0.00    -0.274 OA
ATOM     32  C2  NAG d1770      30.966  21.068  32.710  0.00  0.00     0.087 C 
ATOM     33  C5  NAG d1770      33.216  21.028  30.903  0.00  0.00     0.089 C 
ATOM     34  C3  NAG d1770      30.782  20.841  31.217  0.00  0.00     0.093 C 
ATOM     35  H   NAG d1770      31.795  22.563  30.467  0.00  0.00     0.091 H 
ATOM     36  H   NAG d1770      32.403  19.612  32.964  0.00  0.00     0.132 H 
ATOM     37  H   NAG d1770      34.378  21.349  29.095  0.00  0.00     0.078 H 
ATOM     38  H   NAG d1770      35.360  21.234  30.496  0.00  0.00     0.078 H 
ATOM     39  H   NAG d1770      32.623  22.027  34.436  0.00  0.00     0.212 HD
ATOM     40  H   NAG d1770      31.874  20.198  28.918  0.00  0.00     0.210 HD
ATOM     41  H   NAG d1770      29.850  19.502  33.539  0.00  0.00     0.163 HD
ATOM     42  H   NAG d1770      33.471  23.298  29.947  0.00  0.00     0.209 HD
ATOM     43  H   NAG d1770      28.174  19.302  34.683  0.00  0.00     0.040 H 
ATOM     44  H   NAG d1770      26.987  20.568  34.484  0.00  0.00     0.040 H 
ATOM     45  H   NAG d1770      28.011  20.546  35.899  0.00  0.00     0.040 H 
ATOM     46  H   NAG d1770      30.874  22.106  32.956  0.00  0.00     0.084 H 
ATOM     47  H   NAG d1770      33.205  19.969  30.752  0.00  0.00     0.090 H 
ATOM     48  H   NAG d1770      30.856  19.780  31.107  0.00  0.00     0.091 H 
ENDROOT
TORSDOF 11
ENDMDL
MODEL 46
REMARK VINA RESULT:      -7.3      2.598      3.267
REMARK  0 active torsions:
REMARK  status: ('A' for Active; 'I' for Inactive)
REMARK       I    between atoms: C2_1  and  O2_14 
REMARK       I    between atoms: O3_4  and  C3_18 
REMARK       I    between atoms: C4_5  and  O4_13 
REMARK       I    between atoms: C7_7  and  C8_21 
REMARK       I    between atoms: C7_7  and  N2_15 
REMARK       I    between atoms: O3_8  and  C1_12 
REMARK       I    between atoms: O3_8  and  C3_26 
REMARK       I    between atoms: C1_9  and  O1_11 
REMARK       I    between atoms: C6_10  and  C5_25 
REMARK       I    between atoms: C6_10  and  O6_20 
REMARK       I    between atoms: N2_15  and  C2_23 
REMARK       I    between atoms: C6_16  and  C5_17 
ROOT
ATOM      1  C2  GC4 d1769      24.411  19.406  32.216  0.00  0.00     0.107 C 
ATOM      2  O6B GC4 d1769      25.812  24.094  33.064  0.00  0.00    -0.646 OA
ATOM      3  O3  GC4 d1769      22.017  19.779  32.243  0.00  0.00    -0.393 OA
ATOM      4  O5  GC4 d1769      25.684  21.475  32.507  0.00  0.00    -0.343 OA
ATOM      5  C1  GC4 d1769      25.714  20.157  31.905  0.00  0.00     0.159 C 
ATOM      6  O2  GC4 d1769      24.435  18.068  31.722  0.00  0.00    -0.388 OA
ATOM      7  C6  GC4 d1769      24.859  23.741  32.324  0.00  0.00     0.203 C 
ATOM      8  C5  GC4 d1769      24.752  22.317  31.856  0.00  0.00     0.127 C 
ATOM      9  C3  GC4 d1769      23.241  20.216  31.640  0.00  0.00     0.068 C 
ATOM     10  C4  GC4 d1769      23.337  21.726  31.846  0.00  0.00    -0.005 C 
ATOM     11  O6A GC4 d1769      24.065  24.591  31.901  0.00  0.00    -0.646 OA
ATOM     12  H   GC4 d1769      24.293  19.317  33.276  0.00  0.00     0.094 H 
ATOM     13  H   GC4 d1769      21.924  18.820  32.129  0.00  0.00     0.210 HD
ATOM     14  H   GC4 d1769      25.765  20.232  30.839  0.00  0.00     0.133 H 
ATOM     15  H   GC4 d1769      24.541  18.081  30.758  0.00  0.00     0.210 HD
ATOM     16  H   GC4 d1769      25.014  22.362  30.819  0.00  0.00     0.100 H 
ATOM     17  H   GC4 d1769      23.275  20.037  30.585  0.00  0.00     0.087 H 
ATOM     18  H   GC4 d1769      22.791  22.199  31.057  0.00  0.00     0.041 H 
ATOM     19  H   GC4 d1769      22.943  21.908  32.823  0.00  0.00     0.041 H 
ATOM     20  O5  NAG d1770      30.818  19.495  31.022  0.00  0.00    -0.349 OA
ATOM     21  C4  NAG d1770      29.192  19.960  32.736  0.00  0.00     0.089 C 
ATOM     22  C7  NAG d1770      26.761  17.654  29.411  0.00  0.00     0.214 C 
ATOM     23  O3  NAG d1770      26.848  19.490  32.306  0.00  0.00    -0.348 OA
ATOM     24  C1  NAG d1770      29.813  19.381  29.993  0.00  0.00     0.151 C 
ATOM     25  C6  NAG d1770      31.654  20.581  33.000  0.00  0.00     0.043 C 
ATOM     26  O1  NAG d1770      30.321  18.475  29.099  0.00  0.00    -0.369 OA
ATOM     27  O4  NAG d1770      28.866  20.916  33.723  0.00  0.00    -0.390 OA
ATOM     28  N2  NAG d1770      27.419  18.773  29.570  0.00  0.00    -0.349 N 
ATOM     29  O6  NAG d1770      31.847  19.328  33.585  0.00  0.00    -0.398 OA
ATOM     30  C8  NAG d1770      25.662  17.752  28.333  0.00  0.00    -0.003 C 
ATOM     31  O7  NAG d1770      27.045  16.612  30.076  0.00  0.00    -0.274 OA
ATOM     32  C2  NAG d1770      28.477  18.924  30.528  0.00  0.00     0.087 C 
ATOM     33  C5  NAG d1770      30.449  20.394  32.040  0.00  0.00     0.089 C 
ATOM     34  C3  NAG d1770      28.079  19.829  31.685  0.00  0.00     0.093 C 
ATOM     35  H   NAG d1770      29.319  19.014  33.218  0.00  0.00     0.091 H 
ATOM     36  H   NAG d1770      29.617  20.333  29.546  0.00  0.00     0.132 H 
ATOM     37  H   NAG d1770      31.431  21.315  33.745  0.00  0.00     0.078 H 
ATOM     38  H   NAG d1770      32.528  20.923  32.486  0.00  0.00     0.078 H 
ATOM     39  H   NAG d1770      30.481  17.632  29.549  0.00  0.00     0.212 HD
ATOM     40  H   NAG d1770      28.746  21.783  33.306  0.00  0.00     0.210 HD
ATOM     41  H   NAG d1770      27.178  19.545  29.009  0.00  0.00     0.163 HD
ATOM     42  H   NAG d1770      31.035  19.055  34.039  0.00  0.00     0.209 HD
ATOM     43  H   NAG d1770      25.640  18.744  27.934  0.00  0.00     0.040 H 
ATOM     44  H   NAG d1770      24.713  17.522  28.770  0.00  0.00     0.040 H 
ATOM     45  H   NAG d1770      25.870  17.056  27.547  0.00  0.00     0.040 H 
ATOM     46  H   NAG d1770      28.622  17.917  30.860  0.00  0.00     0.084 H 
ATOM     47  H   NAG d1770      30.210  21.347  31.617  0.00  0.00     0.090 H 
ATOM     48  H   NAG d1770      27.928  20.783  31.224  0.00  0.00     0.091 H 
ENDROOT
TORSDOF 11
ENDMDL
MODEL 47
REMARK VINA RESULT:      -7.2      2.521      4.704
REMARK  0 active torsions:
REMARK  status: ('A' for Active; 'I' for Inactive)
REMARK       I    between atoms: C2_1  and  O2_14 
REMARK       I    between atoms: O3_4  and  C3_18 
REMARK       I    between atoms: C4_5  and  O4_13 
REMARK       I    between atoms: C7_7  and  C8_21 
REMARK       I    between atoms: C7_7  and  N2_15 
REMARK       I    between atoms: O3_8  and  C1_12 
REMARK       I    between atoms: O3_8  and  C3_26 
REMARK       I    between atoms: C1_9  and  O1_11 
REMARK       I    between atoms: C6_10  and  C5_25 
REMARK       I    between atoms: C6_10  and  O6_20 
REMARK       I    between atoms: N2_15  and  C2_23 
REMARK       I    between atoms: C6_16  and  C5_17 
ROOT
ATOM      1  C2  GC4 d1769      25.846  18.250  29.280  0.00  0.00     0.107 C 
ATOM      2  O6B GC4 d1769      30.611  18.043  27.898  0.00  0.00    -0.646 OA
ATOM      3  O3  GC4 d1769      24.938  16.882  27.498  0.00  0.00    -0.393 OA
ATOM      4  O5  GC4 d1769      28.283  18.438  29.166  0.00  0.00    -0.343 OA
ATOM      5  C1  GC4 d1769      27.149  18.436  30.069  0.00  0.00     0.159 C 
ATOM      6  O2  GC4 d1769      24.697  18.336  30.119  0.00  0.00    -0.388 OA
ATOM      7  C6  GC4 d1769      29.797  17.086  27.852  0.00  0.00     0.203 C 
ATOM      8  C5  GC4 d1769      28.507  17.152  28.620  0.00  0.00     0.127 C 
ATOM      9  C3  GC4 d1769      25.922  16.908  28.538  0.00  0.00     0.068 C 
ATOM     10  C4  GC4 d1769      27.273  16.602  27.894  0.00  0.00    -0.005 C 
ATOM     11  O6A GC4 d1769      30.105  16.047  27.253  0.00  0.00    -0.646 OA
ATOM     12  H   GC4 d1769      25.741  19.043  28.569  0.00  0.00     0.094 H 
ATOM     13  H   GC4 d1769      24.064  17.073  27.874  0.00  0.00     0.210 HD
ATOM     14  H   GC4 d1769      27.208  17.608  30.744  0.00  0.00     0.133 H 
ATOM     15  H   GC4 d1769      24.733  17.637  30.791  0.00  0.00     0.210 HD
ATOM     16  H   GC4 d1769      28.649  16.467  29.430  0.00  0.00     0.100 H 
ATOM     17  H   GC4 d1769      25.755  16.166  29.290  0.00  0.00     0.087 H 
ATOM     18  H   GC4 d1769      27.375  15.539  27.837  0.00  0.00     0.041 H 
ATOM     19  H   GC4 d1769      27.256  17.093  26.944  0.00  0.00     0.041 H 
ATOM     20  O5  NAG d1770      29.176  20.663  34.337  0.00  0.00    -0.349 OA
ATOM     21  C4  NAG d1770      28.792  20.981  31.981  0.00  0.00     0.089 C 
ATOM     22  C7  NAG d1770      25.466  17.903  33.304  0.00  0.00     0.214 C 
ATOM     23  O3  NAG d1770      27.172  19.573  30.843  0.00  0.00    -0.348 OA
ATOM     24  C1  NAG d1770      28.531  19.372  34.345  0.00  0.00     0.151 C 
ATOM     25  C6  NAG d1770      30.596  22.270  33.246  0.00  0.00     0.043 C 
ATOM     26  O1  NAG d1770      27.988  19.253  35.597  0.00  0.00    -0.369 OA
ATOM     27  O4  NAG d1770      29.473  21.250  30.774  0.00  0.00    -0.390 OA
ATOM     28  N2  NAG d1770      26.768  17.990  33.221  0.00  0.00    -0.349 N 
ATOM     29  O6  NAG d1770      29.637  23.256  33.491  0.00  0.00    -0.398 OA
ATOM     30  C8  NAG d1770      24.953  16.452  33.198  0.00  0.00    -0.003 C 
ATOM     31  O7  NAG d1770      24.738  18.927  33.480  0.00  0.00    -0.274 OA
ATOM     32  C2  NAG d1770      27.470  19.241  33.279  0.00  0.00     0.087 C 
ATOM     33  C5  NAG d1770      29.788  20.953  33.103  0.00  0.00     0.089 C 
ATOM     34  C3  NAG d1770      28.076  19.622  31.937  0.00  0.00     0.093 C 
ATOM     35  H   NAG d1770      28.060  21.747  32.128  0.00  0.00     0.091 H 
ATOM     36  H   NAG d1770      29.234  18.595  34.126  0.00  0.00     0.132 H 
ATOM     37  H   NAG d1770      31.133  22.482  32.346  0.00  0.00     0.078 H 
ATOM     38  H   NAG d1770      31.323  22.213  34.029  0.00  0.00     0.078 H 
ATOM     39  H   NAG d1770      27.361  19.977  35.748  0.00  0.00     0.212 HD
ATOM     40  H   NAG d1770      30.143  20.566  30.622  0.00  0.00     0.210 HD
ATOM     41  H   NAG d1770      27.290  17.162  33.113  0.00  0.00     0.163 HD
ATOM     42  H   NAG d1770      29.000  23.275  32.760  0.00  0.00     0.209 HD
ATOM     43  H   NAG d1770      25.781  15.791  33.052  0.00  0.00     0.040 H 
ATOM     44  H   NAG d1770      24.282  16.371  32.369  0.00  0.00     0.040 H 
ATOM     45  H   NAG d1770      24.440  16.188  34.099  0.00  0.00     0.040 H 
ATOM     46  H   NAG d1770      26.690  19.921  33.556  0.00  0.00     0.084 H 
ATOM     47  H   NAG d1770      30.470  20.172  32.841  0.00  0.00     0.090 H 
ATOM     48  H   NAG d1770      28.803  18.858  31.757  0.00  0.00     0.091 H 
ENDROOT
TORSDOF 11
ENDMDL
MODEL 48
REMARK VINA RESULT:      -7.2      2.640      4.958
REMARK  0 active torsions:
REMARK  status: ('A' for Active; 'I' for Inactive)
REMARK       I    between atoms: C2_1  and  O2_14 
REMARK       I    between atoms: O3_4  and  C3_18 
REMARK       I    between atoms: C4_5  and  O4_13 
REMARK       I    between atoms: C7_7  and  C8_21 
REMARK       I    between atoms: C7_7  and  N2_15 
REMARK       I    between atoms: O3_8  and  C1_12 
REMARK       I    between atoms: O3_8  and  C3_26 
REMARK       I    between atoms: C1_9  and  O1_11 
REMARK       I    between atoms: C6_10  and  C5_25 
REMARK       I    between atoms: C6_10  and  O6_20 
REMARK       I    between atoms: N2_15  and  C2_23 
REMARK       I    between atoms: C6_16  and  C5_17 
ROOT
ATOM      1  C2  GC4 d1769      28.672  19.724  27.497  0.00  0.00     0.107 C 
ATOM      2  O6B GC4 d1769      23.719  19.753  27.134  0.00  0.00    -0.646 OA
ATOM      3  O3  GC4 d1769      29.145  21.021  25.506  0.00  0.00    -0.393 OA
ATOM      4  O5  GC4 d1769      26.272  19.475  27.904  0.00  0.00    -0.343 OA
ATOM      5  C1  GC4 d1769      27.568  19.547  28.549  0.00  0.00     0.159 C 
ATOM      6  O2  GC4 d1769      29.973  19.706  28.080  0.00  0.00    -0.388 OA
ATOM      7  C6  GC4 d1769      24.475  20.725  26.877  0.00  0.00     0.203 C 
ATOM      8  C5  GC4 d1769      25.898  20.726  27.360  0.00  0.00     0.127 C 
ATOM      9  C3  GC4 d1769      28.399  21.024  26.729  0.00  0.00     0.068 C 
ATOM     10  C4  GC4 d1769      26.935  21.267  26.369  0.00  0.00    -0.005 C 
ATOM     11  O6A GC4 d1769      24.015  21.725  26.311  0.00  0.00    -0.646 OA
ATOM     12  H   GC4 d1769      28.654  18.898  26.815  0.00  0.00     0.094 H 
ATOM     13  H   GC4 d1769      30.084  20.869  25.699  0.00  0.00     0.210 HD
ATOM     14  H   GC4 d1769      27.624  20.406  29.184  0.00  0.00     0.133 H 
ATOM     15  H   GC4 d1769      30.055  20.437  28.713  0.00  0.00     0.210 HD
ATOM     16  H   GC4 d1769      25.905  21.447  28.151  0.00  0.00     0.100 H 
ATOM     17  H   GC4 d1769      28.695  21.807  27.396  0.00  0.00     0.087 H 
ATOM     18  H   GC4 d1769      26.789  22.324  26.288  0.00  0.00     0.041 H 
ATOM     19  H   GC4 d1769      26.771  20.730  25.459  0.00  0.00     0.041 H 
ATOM     20  O5  NAG d1770      26.546  17.490  33.239  0.00  0.00    -0.349 OA
ATOM     21  C4  NAG d1770      26.443  17.064  30.872  0.00  0.00     0.089 C 
ATOM     22  C7  NAG d1770      29.869  20.279  31.334  0.00  0.00     0.214 C 
ATOM     23  O3  NAG d1770      27.744  18.450  29.359  0.00  0.00    -0.348 OA
ATOM     24  C1  NAG d1770      27.137  18.794  33.056  0.00  0.00     0.151 C 
ATOM     25  C6  NAG d1770      24.984  15.798  32.542  0.00  0.00     0.043 C 
ATOM     26  O1  NAG d1770      27.924  18.987  34.160  0.00  0.00    -0.369 OA
ATOM     27  O4  NAG d1770      25.535  16.719  29.847  0.00  0.00    -0.390 OA
ATOM     28  N2  NAG d1770      28.582  20.158  31.528  0.00  0.00    -0.349 N 
ATOM     29  O6  NAG d1770      26.004  14.848  32.623  0.00  0.00    -0.398 OA
ATOM     30  C8  NAG d1770      30.301  21.734  31.058  0.00  0.00    -0.003 C 
ATOM     31  O7  NAG d1770      30.651  19.281  31.397  0.00  0.00    -0.274 OA
ATOM     32  C2  NAG d1770      27.949  18.896  31.787  0.00  0.00     0.087 C 
ATOM     33  C5  NAG d1770      25.702  17.125  32.174  0.00  0.00     0.089 C 
ATOM     34  C3  NAG d1770      27.089  18.435  30.619  0.00  0.00     0.093 C 
ATOM     35  H   NAG d1770      27.214  16.323  30.896  0.00  0.00     0.091 H 
ATOM     36  H   NAG d1770      26.379  19.543  32.955  0.00  0.00     0.132 H 
ATOM     37  H   NAG d1770      24.279  15.530  31.783  0.00  0.00     0.078 H 
ATOM     38  H   NAG d1770      24.435  15.878  33.456  0.00  0.00     0.078 H 
ATOM     39  H   NAG d1770      28.592  18.287  34.208  0.00  0.00     0.212 HD
ATOM     40  H   NAG d1770      24.826  17.380  29.808  0.00  0.00     0.210 HD
ATOM     41  H   NAG d1770      28.022  20.968  31.496  0.00  0.00     0.163 HD
ATOM     42  H   NAG d1770      26.476  14.807  31.777  0.00  0.00     0.209 HD
ATOM     43  H   NAG d1770      29.440  22.368  31.060  0.00  0.00     0.040 H 
ATOM     44  H   NAG d1770      30.782  21.789  30.105  0.00  0.00     0.040 H 
ATOM     45  H   NAG d1770      30.982  22.055  31.820  0.00  0.00     0.040 H 
ATOM     46  H   NAG d1770      28.790  18.249  31.924  0.00  0.00     0.084 H 
ATOM     47  H   NAG d1770      24.955  17.877  32.027  0.00  0.00     0.090 H 
ATOM     48  H   NAG d1770      26.317  19.173  30.562  0.00  0.00     0.091 H 
ENDROOT
TORSDOF 11
ENDMDL
MODEL 49
REMARK VINA RESULT:      -7.2      3.028      6.619
REMARK  0 active torsions:
REMARK  status: ('A' for Active; 'I' for Inactive)
REMARK       I    between atoms: C2_1  and  O2_14 
REMARK       I    between atoms: O3_4  and  C3_18 
REMARK       I    between atoms: C4_5  and  O4_13 
REMARK       I    between atoms: C7_7  and  C8_21 
REMARK       I    between atoms: C7_7  and  N2_15 
REMARK       I    between atoms: O3_8  and  C1_12 
REMARK       I    between atoms: O3_8  and  C3_26 
REMARK       I    between atoms: C1_9  and  O1_11 
REMARK       I    between atoms: C6_10  and  C5_25 
REMARK       I    between atoms: C6_10  and  O6_20 
REMARK       I    between atoms: N2_15  and  C2_23 
REMARK       I    between atoms: C6_16  and  C5_17 
ROOT
ATOM      1  C2  GC4 d1769      27.563  20.261  31.344  0.00  0.00     0.107 C 
ATOM      2  O6B GC4 d1769      24.548  24.155  30.711  0.00  0.00    -0.646 OA
ATOM      3  O3  GC4 d1769      28.965  21.220  33.072  0.00  0.00    -0.393 OA
ATOM      4  O5  GC4 d1769      25.754  21.762  30.665  0.00  0.00    -0.343 OA
ATOM      5  C1  GC4 d1769      26.133  20.368  30.797  0.00  0.00     0.159 C 
ATOM      6  O2  GC4 d1769      28.012  18.908  31.401  0.00  0.00    -0.388 OA
ATOM      7  C6  GC4 d1769      24.986  23.744  31.816  0.00  0.00     0.203 C 
ATOM      8  C5  GC4 d1769      25.581  22.369  31.930  0.00  0.00     0.127 C 
ATOM      9  C3  GC4 d1769      27.605  20.944  32.718  0.00  0.00     0.068 C 
ATOM     10  C4  GC4 d1769      26.834  22.259  32.808  0.00  0.00    -0.005 C 
ATOM     11  O6A GC4 d1769      24.836  24.438  32.830  0.00  0.00    -0.646 OA
ATOM     12  H   GC4 d1769      28.240  20.757  30.680  0.00  0.00     0.094 H 
ATOM     13  H   GC4 d1769      29.485  20.402  33.025  0.00  0.00     0.210 HD
ATOM     14  H   GC4 d1769      25.506  19.874  31.508  0.00  0.00     0.133 H 
ATOM     15  H   GC4 d1769      27.435  18.400  31.993  0.00  0.00     0.210 HD
ATOM     16  H   GC4 d1769      24.846  21.810  32.470  0.00  0.00     0.100 H 
ATOM     17  H   GC4 d1769      27.131  20.253  33.384  0.00  0.00     0.087 H 
ATOM     18  H   GC4 d1769      26.532  22.392  33.826  0.00  0.00     0.041 H 
ATOM     19  H   GC4 d1769      27.505  23.010  32.448  0.00  0.00     0.041 H 
ATOM     20  O5  NAG d1770      22.644  18.012  27.706  0.00  0.00    -0.349 OA
ATOM     21  C4  NAG d1770      24.362  19.699  27.756  0.00  0.00     0.089 C 
ATOM     22  C7  NAG d1770      25.492  16.772  31.284  0.00  0.00     0.214 C 
ATOM     23  O3  NAG d1770      25.947  19.723  29.597  0.00  0.00    -0.348 OA
ATOM     24  C1  NAG d1770      22.839  17.665  29.094  0.00  0.00     0.151 C 
ATOM     25  C6  NAG d1770      22.530  19.682  25.978  0.00  0.00     0.043 C 
ATOM     26  O1  NAG d1770      22.526  16.333  29.174  0.00  0.00    -0.369 OA
ATOM     27  O4  NAG d1770      24.576  21.070  27.495  0.00  0.00    -0.390 OA
ATOM     28  N2  NAG d1770      24.536  17.593  30.937  0.00  0.00    -0.349 N 
ATOM     29  O6  NAG d1770      23.382  18.901  25.193  0.00  0.00    -0.398 OA
ATOM     30  C8  NAG d1770      25.610  16.599  32.812  0.00  0.00    -0.003 C 
ATOM     31  O7  NAG d1770      26.211  16.181  30.421  0.00  0.00    -0.274 OA
ATOM     32  C2  NAG d1770      24.249  17.920  29.568  0.00  0.00     0.087 C 
ATOM     33  C5  NAG d1770      22.934  19.364  27.443  0.00  0.00     0.089 C 
ATOM     34  C3  NAG d1770      24.626  19.355  29.230  0.00  0.00     0.093 C 
ATOM     35  H   NAG d1770      25.038  19.135  27.148  0.00  0.00     0.091 H 
ATOM     36  H   NAG d1770      22.224  18.270  29.727  0.00  0.00     0.132 H 
ATOM     37  H   NAG d1770      22.670  20.721  25.767  0.00  0.00     0.078 H 
ATOM     38  H   NAG d1770      21.500  19.467  25.789  0.00  0.00     0.078 H 
ATOM     39  H   NAG d1770      23.108  15.828  28.585  0.00  0.00     0.212 HD
ATOM     40  H   NAG d1770      23.971  21.600  28.038  0.00  0.00     0.210 HD
ATOM     41  H   NAG d1770      23.988  18.005  31.644  0.00  0.00     0.163 HD
ATOM     42  H   NAG d1770      24.303  19.126  25.394  0.00  0.00     0.209 HD
ATOM     43  H   NAG d1770      24.883  17.214  33.298  0.00  0.00     0.040 H 
ATOM     44  H   NAG d1770      26.590  16.886  33.129  0.00  0.00     0.040 H 
ATOM     45  H   NAG d1770      25.439  15.574  33.070  0.00  0.00     0.040 H 
ATOM     46  H   NAG d1770      24.868  17.225  29.039  0.00  0.00     0.084 H 
ATOM     47  H   NAG d1770      22.359  19.993  28.090  0.00  0.00     0.090 H 
ATOM     48  H   NAG d1770      23.973  19.942  29.842  0.00  0.00     0.091 H 
ENDROOT
TORSDOF 11
ENDMDL
MODEL 50
REMARK VINA RESULT:      -7.2      4.526      5.464
REMARK  0 active torsions:
REMARK  status: ('A' for Active; 'I' for Inactive)
REMARK       I    between atoms: C2_1  and  O2_14 
REMARK       I    between atoms: O3_4  and  C3_18 
REMARK       I    between atoms: C4_5  and  O4_13 
REMARK       I    between atoms: C7_7  and  C8_21 
REMARK       I    between atoms: C7_7  and  N2_15 
REMARK       I    between atoms: O3_8  and  C1_12 
REMARK       I    between atoms: O3_8  and  C3_26 
REMARK       I    between atoms: C1_9  and  O1_11 
REMARK       I    between atoms: C6_10  and  C5_25 
REMARK       I    between atoms: C6_10  and  O6_20 
REMARK       I    between atoms: N2_15  and  C2_23 
REMARK       I    between atoms: C6_16  and  C5_17 
ROOT
ATOM      1  C2  GC4 d1769      22.076  17.891  28.839  0.00  0.00     0.107 C 
ATOM      2  O6B GC4 d1769      22.764  22.424  26.931  0.00  0.00    -0.646 OA
ATOM      3  O3  GC4 d1769      21.494  16.761  26.776  0.00  0.00    -0.393 OA
ATOM      4  O5  GC4 d1769      22.635  20.247  28.491  0.00  0.00    -0.343 OA
ATOM      5  C1  GC4 d1769      22.894  19.093  29.330  0.00  0.00     0.159 C 
ATOM      6  O2  GC4 d1769      22.230  16.758  29.692  0.00  0.00    -0.388 OA
ATOM      7  C6  GC4 d1769      23.115  21.344  26.391  0.00  0.00     0.203 C 
ATOM      8  C5  GC4 d1769      23.190  20.081  27.201  0.00  0.00     0.127 C 
ATOM      9  C3  GC4 d1769      22.489  17.587  27.392  0.00  0.00     0.068 C 
ATOM     10  C4  GC4 d1769      22.678  18.814  26.503  0.00  0.00    -0.005 C 
ATOM     11  O6A GC4 d1769      23.497  21.345  25.213  0.00  0.00    -0.646 OA
ATOM     12  H   GC4 d1769      21.034  18.130  28.868  0.00  0.00     0.094 H 
ATOM     13  H   GC4 d1769      21.350  15.969  27.317  0.00  0.00     0.210 HD
ATOM     14  H   GC4 d1769      23.921  18.802  29.259  0.00  0.00     0.133 H 
ATOM     15  H   GC4 d1769      23.162  16.489  29.709  0.00  0.00     0.210 HD
ATOM     16  H   GC4 d1769      24.239  19.901  27.311  0.00  0.00     0.100 H 
ATOM     17  H   GC4 d1769      23.442  17.104  27.472  0.00  0.00     0.087 H 
ATOM     18  H   GC4 d1769      23.379  18.558  25.737  0.00  0.00     0.041 H 
ATOM     19  H   GC4 d1769      21.702  19.059  26.142  0.00  0.00     0.041 H 
ATOM     20  O5  NAG d1770      24.939  21.307  33.595  0.00  0.00    -0.349 OA
ATOM     21  C4  NAG d1770      23.010  21.292  32.155  0.00  0.00     0.089 C 
ATOM     22  C7  NAG d1770      24.918  17.010  31.599  0.00  0.00     0.214 C 
ATOM     23  O3  NAG d1770      22.669  19.418  30.647  0.00  0.00    -0.348 OA
ATOM     24  C1  NAG d1770      25.602  20.268  32.844  0.00  0.00     0.151 C 
ATOM     25  C6  NAG d1770      23.573  23.286  33.646  0.00  0.00     0.043 C 
ATOM     26  O1  NAG d1770      26.361  19.593  33.763  0.00  0.00    -0.369 OA
ATOM     27  O4  NAG d1770      22.225  22.143  31.346  0.00  0.00    -0.390 OA
ATOM     28  N2  NAG d1770      25.209  18.267  31.387  0.00  0.00    -0.349 N 
ATOM     29  O6  NAG d1770      22.784  22.695  34.634  0.00  0.00    -0.398 OA
ATOM     30  C8  NAG d1770      25.651  16.053  30.636  0.00  0.00    -0.003 C 
ATOM     31  O7  NAG d1770      24.128  16.654  32.525  0.00  0.00    -0.274 OA
ATOM     32  C2  NAG d1770      24.635  19.338  32.151  0.00  0.00     0.087 C 
ATOM     33  C5  NAG d1770      24.100  22.101  32.792  0.00  0.00     0.089 C 
ATOM     34  C3  NAG d1770      23.661  20.170  31.331  0.00  0.00     0.093 C 
ATOM     35  H   NAG d1770      22.371  20.850  32.889  0.00  0.00     0.091 H 
ATOM     36  H   NAG d1770      26.191  20.687  32.054  0.00  0.00     0.132 H 
ATOM     37  H   NAG d1770      22.989  23.951  33.045  0.00  0.00     0.078 H 
ATOM     38  H   NAG d1770      24.369  23.868  34.061  0.00  0.00     0.078 H 
ATOM     39  H   NAG d1770      25.786  19.233  34.456  0.00  0.00     0.212 HD
ATOM     40  H   NAG d1770      22.786  22.556  30.672  0.00  0.00     0.210 HD
ATOM     41  H   NAG d1770      25.850  18.488  30.673  0.00  0.00     0.163 HD
ATOM     42  H   NAG d1770      22.077  22.178  34.217  0.00  0.00     0.209 HD
ATOM     43  H   NAG d1770      26.250  16.621  29.956  0.00  0.00     0.040 H 
ATOM     44  H   NAG d1770      24.933  15.481  30.086  0.00  0.00     0.040 H 
ATOM     45  H   NAG d1770      26.278  15.392  31.198  0.00  0.00     0.040 H 
ATOM     46  H   NAG d1770      24.128  18.808  32.931  0.00  0.00     0.084 H 
ATOM     47  H   NAG d1770      24.655  22.505  31.972  0.00  0.00     0.090 H 
ATOM     48  H   NAG d1770      24.274  20.612  30.574  0.00  0.00     0.091 H 
ENDROOT
TORSDOF 11
ENDMDL
MODEL 51
REMARK VINA RESULT:      -7.1      1.653      5.926
REMARK  0 active torsions:
REMARK  status: ('A' for Active; 'I' for Inactive)
REMARK       I    between atoms: C2_1  and  O2_14 
REMARK       I    between atoms: O3_4  and  C3_18 
REMARK       I    between atoms: C4_5  and  O4_13 
REMARK       I    between atoms: C7_7  and  C8_21 
REMARK       I    between atoms: C7_7  and  N2_15 
REMARK       I    between atoms: O3_8  and  C1_12 
REMARK       I    between atoms: O3_8  and  C3_26 
REMARK       I    between atoms: C1_9  and  O1_11 
REMARK       I    between atoms: C6_10  and  C5_25 
REMARK       I    between atoms: C6_10  and  O6_20 
REMARK       I    between atoms: N2_15  and  C2_23 
REMARK       I    between atoms: C6_16  and  C5_17 
ROOT
ATOM      1  C2  GC4 d1769      30.378  20.369  28.615  0.00  0.00     0.107 C 
ATOM      2  O6B GC4 d1769      28.908  22.566  32.818  0.00  0.00    -0.646 OA
ATOM      3  O3  GC4 d1769      32.655  21.196  28.602  0.00  0.00    -0.393 OA
ATOM      4  O5  GC4 d1769      29.132  21.085  30.595  0.00  0.00    -0.343 OA
ATOM      5  C1  GC4 d1769      29.256  20.032  29.606  0.00  0.00     0.159 C 
ATOM      6  O2  GC4 d1769      30.473  19.404  27.568  0.00  0.00    -0.388 OA
ATOM      7  C6  GC4 d1769      30.033  22.039  32.626  0.00  0.00     0.203 C 
ATOM      8  C5  GC4 d1769      30.242  21.099  31.473  0.00  0.00     0.127 C 
ATOM      9  C3  GC4 d1769      31.690  20.502  29.400  0.00  0.00     0.068 C 
ATOM     10  C4  GC4 d1769      31.575  21.248  30.728  0.00  0.00    -0.005 C 
ATOM     11  O6A GC4 d1769      30.942  22.219  33.447  0.00  0.00    -0.646 OA
ATOM     12  H   GC4 d1769      30.160  21.297  28.128  0.00  0.00     0.094 H 
ATOM     13  H   GC4 d1769      32.754  20.746  27.748  0.00  0.00     0.210 HD
ATOM     14  H   GC4 d1769      29.539  19.111  30.072  0.00  0.00     0.133 H 
ATOM     15  H   GC4 d1769      30.671  18.533  27.948  0.00  0.00     0.210 HD
ATOM     16  H   GC4 d1769      30.316  20.135  31.930  0.00  0.00     0.100 H 
ATOM     17  H   GC4 d1769      31.980  19.497  29.626  0.00  0.00     0.087 H 
ATOM     18  H   GC4 d1769      32.350  20.891  31.372  0.00  0.00     0.041 H 
ATOM     19  H   GC4 d1769      31.652  22.286  30.481  0.00  0.00     0.041 H 
ATOM     20  O5  NAG d1770      24.659  17.594  30.058  0.00  0.00    -0.349 OA
ATOM     21  C4  NAG d1770      25.687  19.728  29.625  0.00  0.00     0.089 C 
ATOM     22  C7  NAG d1770      28.966  16.573  28.368  0.00  0.00     0.214 C 
ATOM     23  O3  NAG d1770      28.036  19.810  29.011  0.00  0.00    -0.348 OA
ATOM     24  C1  NAG d1770      25.930  16.922  30.183  0.00  0.00     0.151 C 
ATOM     25  C6  NAG d1770      23.282  19.526  30.455  0.00  0.00     0.043 C 
ATOM     26  O1  NAG d1770      25.701  15.642  29.751  0.00  0.00    -0.369 OA
ATOM     27  O4  NAG d1770      25.717  21.058  30.096  0.00  0.00    -0.390 OA
ATOM     28  N2  NAG d1770      28.321  16.970  29.433  0.00  0.00    -0.349 N 
ATOM     29  O6  NAG d1770      22.885  19.495  29.116  0.00  0.00    -0.398 OA
ATOM     30  C8  NAG d1770      30.347  15.967  28.692  0.00  0.00    -0.003 C 
ATOM     31  O7  NAG d1770      28.463  16.671  27.207  0.00  0.00    -0.274 OA
ATOM     32  C2  NAG d1770      27.023  17.580  29.375  0.00  0.00     0.087 C 
ATOM     33  C5  NAG d1770      24.720  18.941  30.459  0.00  0.00     0.089 C 
ATOM     34  C3  NAG d1770      27.067  19.059  29.727  0.00  0.00     0.093 C 
ATOM     35  H   NAG d1770      25.392  19.746  28.597  0.00  0.00     0.091 H 
ATOM     36  H   NAG d1770      26.280  16.957  31.194  0.00  0.00     0.132 H 
ATOM     37  H   NAG d1770      23.282  20.529  30.825  0.00  0.00     0.078 H 
ATOM     38  H   NAG d1770      22.619  18.969  31.084  0.00  0.00     0.078 H 
ATOM     39  H   NAG d1770      25.387  15.663  28.834  0.00  0.00     0.212 HD
ATOM     40  H   NAG d1770      25.983  21.065  31.028  0.00  0.00     0.210 HD
ATOM     41  H   NAG d1770      28.745  16.846  30.314  0.00  0.00     0.163 HD
ATOM     42  H   NAG d1770      23.509  20.010  28.582  0.00  0.00     0.209 HD
ATOM     43  H   NAG d1770      30.517  16.012  29.747  0.00  0.00     0.040 H 
ATOM     44  H   NAG d1770      31.108  16.522  28.184  0.00  0.00     0.040 H 
ATOM     45  H   NAG d1770      30.374  14.947  28.370  0.00  0.00     0.040 H 
ATOM     46  H   NAG d1770      26.755  17.436  28.348  0.00  0.00     0.084 H 
ATOM     47  H   NAG d1770      25.102  19.009  31.456  0.00  0.00     0.090 H 
ATOM     48  H   NAG d1770      27.379  19.070  30.751  0.00  0.00     0.091 H 
ENDROOT
TORSDOF 11
ENDMDL
MODEL 52
REMARK VINA RESULT:      -7.1      2.418      5.060
REMARK  0 active torsions:
REMARK  status: ('A' for Active; 'I' for Inactive)
REMARK       I    between atoms: C2_1  and  O2_14 
REMARK       I    between atoms: O3_4  and  C3_18 
REMARK       I    between atoms: C4_5  and  O4_13 
REMARK       I    between atoms: C7_7  and  C8_21 
REMARK       I    between atoms: C7_7  and  N2_15 
REMARK       I    between atoms: O3_8  and  C1_12 
REMARK       I    between atoms: O3_8  and  C3_26 
REMARK       I    between atoms: C1_9  and  O1_11 
REMARK       I    between atoms: C6_10  and  C5_25 
REMARK       I    between atoms: C6_10  and  O6_20 
REMARK       I    between atoms: N2_15  and  C2_23 
REMARK       I    between atoms: C6_16  and  C5_17 
ROOT
ATOM      1  C2  GC4 d1769      25.112  19.754  27.496  0.00  0.00     0.107 C 
ATOM      2  O6B GC4 d1769      27.314  15.734  29.407  0.00  0.00    -0.646 OA
ATOM      3  O3  GC4 d1769      23.726  18.615  25.867  0.00  0.00    -0.393 OA
ATOM      4  O5  GC4 d1769      26.418  18.202  28.864  0.00  0.00    -0.343 OA
ATOM      5  C1  GC4 d1769      25.774  19.501  28.857  0.00  0.00     0.159 C 
ATOM      6  O2  GC4 d1769      24.546  21.061  27.413  0.00  0.00    -0.388 OA
ATOM      7  C6  GC4 d1769      26.104  15.814  29.073  0.00  0.00     0.203 C 
ATOM      8  C5  GC4 d1769      25.466  17.156  28.854  0.00  0.00     0.127 C 
ATOM      9  C3  GC4 d1769      24.068  18.654  27.258  0.00  0.00     0.068 C 
ATOM     10  C4  GC4 d1769      24.508  17.248  27.659  0.00  0.00    -0.005 C 
ATOM     11  O6A GC4 d1769      25.414  14.787  29.023  0.00  0.00    -0.646 OA
ATOM     12  H   GC4 d1769      25.852  19.714  26.724  0.00  0.00     0.094 H 
ATOM     13  H   GC4 d1769      23.440  19.496  25.579  0.00  0.00     0.210 HD
ATOM     14  H   GC4 d1769      24.987  19.533  29.581  0.00  0.00     0.133 H 
ATOM     15  H   GC4 d1769      23.862  21.161  28.093  0.00  0.00     0.210 HD
ATOM     16  H   GC4 d1769      24.824  17.283  29.701  0.00  0.00     0.100 H 
ATOM     17  H   GC4 d1769      23.241  18.918  27.884  0.00  0.00     0.087 H 
ATOM     18  H   GC4 d1769      23.630  16.687  27.901  0.00  0.00     0.041 H 
ATOM     19  H   GC4 d1769      25.055  16.869  26.822  0.00  0.00     0.041 H 
ATOM     20  O5  NAG d1770      28.105  21.871  32.885  0.00  0.00    -0.349 OA
ATOM     21  C4  NAG d1770      28.515  20.761  30.788  0.00  0.00     0.089 C 
ATOM     22  C7  NAG d1770      24.105  22.400  30.402  0.00  0.00     0.214 C 
ATOM     23  O3  NAG d1770      26.681  20.468  29.223  0.00  0.00    -0.348 OA
ATOM     24  C1  NAG d1770      26.674  21.731  32.766  0.00  0.00     0.151 C 
ATOM     25  C6  NAG d1770      30.314  20.965  32.588  0.00  0.00     0.043 C 
ATOM     26  O1  NAG d1770      26.155  22.822  33.412  0.00  0.00    -0.369 OA
ATOM     27  O4  NAG d1770      29.224  19.675  30.230  0.00  0.00    -0.390 OA
ATOM     28  N2  NAG d1770      24.794  21.551  31.118  0.00  0.00    -0.349 N 
ATOM     29  O6  NAG d1770      30.703  22.160  31.980  0.00  0.00    -0.398 OA
ATOM     30  C8  NAG d1770      22.609  22.034  30.310  0.00  0.00    -0.003 C 
ATOM     31  O7  NAG d1770      24.644  23.421  29.875  0.00  0.00    -0.274 OA
ATOM     32  C2  NAG d1770      26.208  21.680  31.331  0.00  0.00     0.087 C 
ATOM     33  C5  NAG d1770      28.804  20.822  32.259  0.00  0.00     0.089 C 
ATOM     34  C3  NAG d1770      26.999  20.604  30.600  0.00  0.00     0.093 C 
ATOM     35  H   NAG d1770      28.830  21.654  30.291  0.00  0.00     0.091 H 
ATOM     36  H   NAG d1770      26.346  20.806  33.193  0.00  0.00     0.132 H 
ATOM     37  H   NAG d1770      30.866  20.141  32.186  0.00  0.00     0.078 H 
ATOM     38  H   NAG d1770      30.498  20.971  33.641  0.00  0.00     0.078 H 
ATOM     39  H   NAG d1770      26.480  23.633  32.991  0.00  0.00     0.212 HD
ATOM     40  H   NAG d1770      28.953  18.854  30.667  0.00  0.00     0.210 HD
ATOM     41  H   NAG d1770      24.323  20.790  31.529  0.00  0.00     0.163 HD
ATOM     42  H   NAG d1770      30.521  22.114  31.029  0.00  0.00     0.209 HD
ATOM     43  H   NAG d1770      22.431  21.125  30.845  0.00  0.00     0.040 H 
ATOM     44  H   NAG d1770      22.337  21.904  29.284  0.00  0.00     0.040 H 
ATOM     45  H   NAG d1770      22.022  22.821  30.738  0.00  0.00     0.040 H 
ATOM     46  H   NAG d1770      26.408  22.648  30.922  0.00  0.00     0.084 H 
ATOM     47  H   NAG d1770      28.468  19.881  32.641  0.00  0.00     0.090 H 
ATOM     48  H   NAG d1770      26.687  19.694  31.068  0.00  0.00     0.091 H 
ENDROOT
TORSDOF 11
ENDMDL
MODEL 53
REMARK VINA RESULT:      -7.1      3.064      5.598
REMARK  0 active torsions:
REMARK  status: ('A' for Active; 'I' for Inactive)
REMARK       I    between atoms: C2_1  and  O2_14 
REMARK       I    between atoms: O3_4  and  C3_18 
REMARK       I    between atoms: C4_5  and  O4_13 
REMARK       I    between atoms: C7_7  and  C8_21 
REMARK       I    between atoms: C7_7  and  N2_15 
REMARK       I    between atoms: O3_8  and  C1_12 
REMARK       I    between atoms: O3_8  and  C3_26 
REMARK       I    between atoms: C1_9  and  O1_11 
REMARK       I    between atoms: C6_10  and  C5_25 
REMARK       I    between atoms: C6_10  and  O6_20 
REMARK       I    between atoms: N2_15  and  C2_23 
REMARK       I    between atoms: C6_16  and  C5_17 
ROOT
ATOM      1  C2  GC4 d1769      26.893  18.267  29.898  0.00  0.00     0.107 C 
ATOM      2  O6B GC4 d1769      27.487  21.496  26.172  0.00  0.00    -0.646 OA
ATOM      3  O3  GC4 d1769      28.234  16.470  28.979  0.00  0.00    -0.393 OA
ATOM      4  O5  GC4 d1769      26.889  20.255  28.472  0.00  0.00    -0.343 OA
ATOM      5  C1  GC4 d1769      26.784  19.797  29.843  0.00  0.00     0.159 C 
ATOM      6  O2  GC4 d1769      26.701  17.765  31.219  0.00  0.00    -0.388 OA
ATOM      7  C6  GC4 d1769      28.382  20.742  26.633  0.00  0.00     0.203 C 
ATOM      8  C5  GC4 d1769      28.201  20.083  27.971  0.00  0.00     0.127 C 
ATOM      9  C3  GC4 d1769      28.255  17.862  29.316  0.00  0.00     0.068 C 
ATOM     10  C4  GC4 d1769      28.676  18.628  28.064  0.00  0.00    -0.005 C 
ATOM     11  O6A GC4 d1769      29.455  20.624  26.027  0.00  0.00    -0.646 OA
ATOM     12  H   GC4 d1769      26.112  17.830  29.311  0.00  0.00     0.094 H 
ATOM     13  H   GC4 d1769      27.970  15.952  29.756  0.00  0.00     0.210 HD
ATOM     14  H   GC4 d1769      27.597  20.173  30.428  0.00  0.00     0.133 H 
ATOM     15  H   GC4 d1769      27.385  18.127  31.805  0.00  0.00     0.210 HD
ATOM     16  H   GC4 d1769      28.874  20.609  28.616  0.00  0.00     0.100 H 
ATOM     17  H   GC4 d1769      28.964  18.096  30.084  0.00  0.00     0.087 H 
ATOM     18  H   GC4 d1769      29.745  18.630  28.027  0.00  0.00     0.041 H 
ATOM     19  H   GC4 d1769      28.210  18.120  27.247  0.00  0.00     0.041 H 
ATOM     20  O5  NAG d1770      24.607  23.925  32.187  0.00  0.00    -0.349 OA
ATOM     21  C4  NAG d1770      24.320  22.337  30.401  0.00  0.00     0.089 C 
ATOM     22  C7  NAG d1770      27.110  20.123  33.500  0.00  0.00     0.214 C 
ATOM     23  O3  NAG d1770      25.633  20.292  30.409  0.00  0.00    -0.348 OA
ATOM     24  C1  NAG d1770      25.846  23.327  32.623  0.00  0.00     0.151 C 
ATOM     25  C6  NAG d1770      23.137  24.598  30.406  0.00  0.00     0.043 C 
ATOM     26  O1  NAG d1770      25.893  23.548  33.974  0.00  0.00    -0.369 OA
ATOM     27  O4  NAG d1770      24.133  22.263  29.003  0.00  0.00    -0.390 OA
ATOM     28  N2  NAG d1770      27.122  21.172  32.719  0.00  0.00    -0.349 N 
ATOM     29  O6  NAG d1770      22.077  23.977  31.069  0.00  0.00    -0.398 OA
ATOM     30  C8  NAG d1770      28.521  19.565  33.777  0.00  0.00    -0.003 C 
ATOM     31  O7  NAG d1770      26.031  19.658  33.978  0.00  0.00    -0.274 OA
ATOM     32  C2  NAG d1770      25.925  21.852  32.312  0.00  0.00     0.087 C 
ATOM     33  C5  NAG d1770      24.394  23.780  30.804  0.00  0.00     0.089 C 
ATOM     34  C3  NAG d1770      25.623  21.647  30.834  0.00  0.00     0.093 C 
ATOM     35  H   NAG d1770      23.499  21.841  30.873  0.00  0.00     0.091 H 
ATOM     36  H   NAG d1770      26.679  23.759  32.106  0.00  0.00     0.132 H 
ATOM     37  H   NAG d1770      22.988  24.568  29.347  0.00  0.00     0.078 H 
ATOM     38  H   NAG d1770      23.228  25.630  30.672  0.00  0.00     0.078 H 
ATOM     39  H   NAG d1770      25.121  23.140  34.395  0.00  0.00     0.212 HD
ATOM     40  H   NAG d1770      24.869  22.708  28.555  0.00  0.00     0.210 HD
ATOM     41  H   NAG d1770      27.988  21.510  32.397  0.00  0.00     0.163 HD
ATOM     42  H   NAG d1770      22.030  23.046  30.801  0.00  0.00     0.209 HD
ATOM     43  H   NAG d1770      29.245  20.147  33.247  0.00  0.00     0.040 H 
ATOM     44  H   NAG d1770      28.573  18.547  33.450  0.00  0.00     0.040 H 
ATOM     45  H   NAG d1770      28.724  19.612  34.827  0.00  0.00     0.040 H 
ATOM     46  H   NAG d1770      25.182  21.382  32.924  0.00  0.00     0.084 H 
ATOM     47  H   NAG d1770      25.230  24.171  30.263  0.00  0.00     0.090 H 
ATOM     48  H   NAG d1770      26.444  22.121  30.337  0.00  0.00     0.091 H 
ENDROOT
TORSDOF 11
ENDMDL
MODEL 54
REMARK VINA RESULT:      -7.1      2.565      6.952
REMARK  0 active torsions:
REMARK  status: ('A' for Active; 'I' for Inactive)
REMARK       I    between atoms: C2_1  and  O2_14 
REMARK       I    between atoms: O3_4  and  C3_18 
REMARK       I    between atoms: C4_5  and  O4_13 
REMARK       I    between atoms: C7_7  and  C8_21 
REMARK       I    between atoms: C7_7  and  N2_15 
REMARK       I    between atoms: O3_8  and  C1_12 
REMARK       I    between atoms: O3_8  and  C3_26 
REMARK       I    between atoms: C1_9  and  O1_11 
REMARK       I    between atoms: C6_10  and  C5_25 
REMARK       I    between atoms: C6_10  and  O6_20 
REMARK       I    between atoms: N2_15  and  C2_23 
REMARK       I    between atoms: C6_16  and  C5_17 
ROOT
ATOM      1  C2  GC4 d1769      28.891  19.459  31.921  0.00  0.00     0.107 C 
ATOM      2  O6B GC4 d1769      29.433  19.033  27.003  0.00  0.00    -0.646 OA
ATOM      3  O3  GC4 d1769      31.195  19.991  32.451  0.00  0.00    -0.393 OA
ATOM      4  O5  GC4 d1769      28.516  19.214  29.516  0.00  0.00    -0.343 OA
ATOM      5  C1  GC4 d1769      27.890  19.596  30.766  0.00  0.00     0.159 C 
ATOM      6  O2  GC4 d1769      28.290  19.735  33.185  0.00  0.00    -0.388 OA
ATOM      7  C6  GC4 d1769      29.992  19.897  27.726  0.00  0.00     0.203 C 
ATOM      8  C5  GC4 d1769      29.486  20.163  29.116  0.00  0.00     0.127 C 
ATOM      9  C3  GC4 d1769      30.085  20.380  31.634  0.00  0.00     0.068 C 
ATOM     10  C4  GC4 d1769      30.565  20.383  30.184  0.00  0.00    -0.005 C 
ATOM     11  O6A GC4 d1769      30.897  20.598  27.255  0.00  0.00    -0.646 OA
ATOM     12  H   GC4 d1769      29.231  18.446  31.982  0.00  0.00     0.094 H 
ATOM     13  H   GC4 d1769      30.924  19.979  33.382  0.00  0.00     0.210 HD
ATOM     14  H   GC4 d1769      27.603  20.627  30.743  0.00  0.00     0.133 H 
ATOM     15  H   GC4 d1769      27.958  20.647  33.193  0.00  0.00     0.210 HD
ATOM     16  H   GC4 d1769      29.007  21.117  29.042  0.00  0.00     0.100 H 
ATOM     17  H   GC4 d1769      29.731  21.367  31.852  0.00  0.00     0.087 H 
ATOM     18  H   GC4 d1769      31.025  21.329  29.994  0.00  0.00     0.041 H 
ATOM     19  H   GC4 d1769      31.227  19.547  30.100  0.00  0.00     0.041 H 
ATOM     20  O5  NAG d1770      22.817  19.281  29.563  0.00  0.00    -0.349 OA
ATOM     21  C4  NAG d1770      24.876  18.034  29.622  0.00  0.00     0.089 C 
ATOM     22  C7  NAG d1770      25.465  21.420  32.858  0.00  0.00     0.214 C 
ATOM     23  O3  NAG d1770      26.733  18.873  30.944  0.00  0.00    -0.348 OA
ATOM     24  C1  NAG d1770      23.433  20.470  30.101  0.00  0.00     0.151 C 
ATOM     25  C6  NAG d1770      22.922  17.354  28.127  0.00  0.00     0.043 C 
ATOM     26  O1  NAG d1770      22.442  21.095  30.811  0.00  0.00    -0.369 OA
ATOM     27  O4  NAG d1770      25.744  17.289  28.794  0.00  0.00    -0.390 OA
ATOM     28  N2  NAG d1770      25.291  21.293  31.569  0.00  0.00    -0.349 N 
ATOM     29  O6  NAG d1770      22.465  16.564  29.184  0.00  0.00    -0.398 OA
ATOM     30  C8  NAG d1770      26.227  22.707  33.237  0.00  0.00    -0.003 C 
ATOM     31  O7  NAG d1770      25.017  20.564  33.681  0.00  0.00    -0.274 OA
ATOM     32  C2  NAG d1770      24.621  20.167  30.982  0.00  0.00     0.087 C 
ATOM     33  C5  NAG d1770      23.712  18.507  28.802  0.00  0.00     0.089 C 
ATOM     34  C3  NAG d1770      25.579  19.265  30.216  0.00  0.00     0.093 C 
ATOM     35  H   NAG d1770      24.558  17.402  30.424  0.00  0.00     0.091 H 
ATOM     36  H   NAG d1770      23.826  21.083  29.316  0.00  0.00     0.132 H 
ATOM     37  H   NAG d1770      23.560  16.787  27.482  0.00  0.00     0.078 H 
ATOM     38  H   NAG d1770      22.119  17.717  27.520  0.00  0.00     0.078 H 
ATOM     39  H   NAG d1770      22.120  20.502  31.507  0.00  0.00     0.212 HD
ATOM     40  H   NAG d1770      26.045  17.845  28.059  0.00  0.00     0.210 HD
ATOM     41  H   NAG d1770      25.634  21.999  30.975  0.00  0.00     0.163 HD
ATOM     42  H   NAG d1770      23.221  16.255  29.707  0.00  0.00     0.209 HD
ATOM     43  H   NAG d1770      26.487  23.243  32.349  0.00  0.00     0.040 H 
ATOM     44  H   NAG d1770      27.118  22.450  33.772  0.00  0.00     0.040 H 
ATOM     45  H   NAG d1770      25.605  23.322  33.855  0.00  0.00     0.040 H 
ATOM     46  H   NAG d1770      24.228  19.667  31.844  0.00  0.00     0.084 H 
ATOM     47  H   NAG d1770      24.149  19.106  28.030  0.00  0.00     0.090 H 
ATOM     48  H   NAG d1770      25.927  19.882  29.415  0.00  0.00     0.091 H 
ENDROOT
TORSDOF 11
ENDMDL
MODEL 55
REMARK VINA RESULT:      -7.0      3.037      5.138
REMARK  0 active torsions:
REMARK  status: ('A' for Active; 'I' for Inactive)
REMARK       I    between atoms: C2_1  and  O2_14 
REMARK       I    between atoms: O3_4  and  C3_18 
REMARK       I    between atoms: C4_5  and  O4_13 
REMARK       I    between atoms: C7_7  and  C8_21 
REMARK       I    between atoms: C7_7  and  N2_15 
REMARK       I    between atoms: O3_8  and  C1_12 
REMARK       I    between atoms: O3_8  and  C3_26 
REMARK       I    between atoms: C1_9  and  O1_11 
REMARK       I    between atoms: C6_10  and  C5_25 
REMARK       I    between atoms: C6_10  and  O6_20 
REMARK       I    between atoms: N2_15  and  C2_23 
REMARK       I    between atoms: C6_16  and  C5_17 
ROOT
ATOM      1  C2  GC4 d1769      24.965  21.000  28.689  0.00  0.00     0.107 C 
ATOM      2  O6B GC4 d1769      29.888  20.591  28.191  0.00  0.00    -0.646 OA
ATOM      3  O3  GC4 d1769      24.463  21.621  26.401  0.00  0.00    -0.393 OA
ATOM      4  O5  GC4 d1769      27.346  20.560  29.039  0.00  0.00    -0.343 OA
ATOM      5  C1  GC4 d1769      26.012  20.214  29.490  0.00  0.00     0.159 C 
ATOM      6  O2  GC4 d1769      23.641  20.762  29.163  0.00  0.00    -0.388 OA
ATOM      7  C6  GC4 d1769      29.036  20.217  27.345  0.00  0.00     0.203 C 
ATOM      8  C5  GC4 d1769      27.597  20.054  27.742  0.00  0.00     0.127 C 
ATOM      9  C3  GC4 d1769      25.123  20.637  27.206  0.00  0.00     0.068 C 
ATOM     10  C4  GC4 d1769      26.566  20.540  26.715  0.00  0.00    -0.005 C 
ATOM     11  O6A GC4 d1769      29.405  19.887  26.210  0.00  0.00    -0.646 OA
ATOM     12  H   GC4 d1769      25.128  22.050  28.817  0.00  0.00     0.094 H 
ATOM     13  H   GC4 d1769      23.540  21.708  26.687  0.00  0.00     0.210 HD
ATOM     14  H   GC4 d1769      25.810  19.180  29.307  0.00  0.00     0.133 H 
ATOM     15  H   GC4 d1769      23.429  19.819  29.073  0.00  0.00     0.210 HD
ATOM     16  H   GC4 d1769      27.449  18.994  27.764  0.00  0.00     0.100 H 
ATOM     17  H   GC4 d1769      24.690  19.662  27.112  0.00  0.00     0.087 H 
ATOM     18  H   GC4 d1769      26.585  19.862  25.887  0.00  0.00     0.041 H 
ATOM     19  H   GC4 d1769      26.854  21.540  26.470  0.00  0.00     0.041 H 
ATOM     20  O5  NAG d1770      26.977  18.086  34.160  0.00  0.00    -0.349 OA
ATOM     21  C4  NAG d1770      27.284  20.073  32.835  0.00  0.00     0.089 C 
ATOM     22  C7  NAG d1770      23.465  18.008  30.982  0.00  0.00     0.214 C 
ATOM     23  O3  NAG d1770      25.922  20.397  30.850  0.00  0.00    -0.348 OA
ATOM     24  C1  NAG d1770      26.243  17.411  33.117  0.00  0.00     0.151 C 
ATOM     25  C6  NAG d1770      28.778  19.533  34.834  0.00  0.00     0.043 C 
ATOM     26  O1  NAG d1770      25.369  16.585  33.773  0.00  0.00    -0.369 OA
ATOM     27  O4  NAG d1770      28.292  20.928  32.338  0.00  0.00    -0.390 OA
ATOM     28  N2  NAG d1770      24.742  17.780  31.144  0.00  0.00    -0.349 N 
ATOM     29  O6  NAG d1770      27.880  20.252  35.625  0.00  0.00    -0.398 OA
ATOM     30  C8  NAG d1770      22.875  17.276  29.759  0.00  0.00    -0.003 C 
ATOM     31  O7  NAG d1770      22.810  18.741  31.784  0.00  0.00    -0.274 OA
ATOM     32  C2  NAG d1770      25.508  18.366  32.207  0.00  0.00     0.087 C 
ATOM     33  C5  NAG d1770      27.927  18.992  33.653  0.00  0.00     0.089 C 
ATOM     34  C3  NAG d1770      26.491  19.410  31.698  0.00  0.00     0.093 C 
ATOM     35  H   NAG d1770      26.611  20.660  33.424  0.00  0.00     0.091 H 
ATOM     36  H   NAG d1770      26.908  16.876  32.470  0.00  0.00     0.132 H 
ATOM     37  H   NAG d1770      29.558  20.170  34.474  0.00  0.00     0.078 H 
ATOM     38  H   NAG d1770      29.254  18.746  35.380  0.00  0.00     0.078 H 
ATOM     39  H   NAG d1770      24.791  17.115  34.344  0.00  0.00     0.212 HD
ATOM     40  H   NAG d1770      28.914  20.414  31.800  0.00  0.00     0.210 HD
ATOM     41  H   NAG d1770      25.198  17.181  30.510  0.00  0.00     0.163 HD
ATOM     42  H   NAG d1770      27.472  20.954  35.093  0.00  0.00     0.209 HD
ATOM     43  H   NAG d1770      23.649  16.731  29.261  0.00  0.00     0.040 H 
ATOM     44  H   NAG d1770      22.452  17.991  29.084  0.00  0.00     0.040 H 
ATOM     45  H   NAG d1770      22.112  16.598  30.082  0.00  0.00     0.040 H 
ATOM     46  H   NAG d1770      24.746  18.817  32.809  0.00  0.00     0.084 H 
ATOM     47  H   NAG d1770      28.583  18.491  32.973  0.00  0.00     0.090 H 
ATOM     48  H   NAG d1770      27.169  18.849  31.089  0.00  0.00     0.091 H 
ENDROOT
TORSDOF 11
ENDMDL
MODEL 56
REMARK VINA RESULT:      -6.9      3.630      6.365
REMARK  0 active torsions:
REMARK  status: ('A' for Active; 'I' for Inactive)
REMARK       I    between atoms: C2_1  and  O2_14 
REMARK       I    between atoms: O3_4  and  C3_18 
REMARK       I    between atoms: C4_5  and  O4_13 
REMARK       I    between atoms: C7_7  and  C8_21 
REMARK       I    between atoms: C7_7  and  N2_15 
REMARK       I    between atoms: O3_8  and  C1_12 
REMARK       I    between atoms: O3_8  and  C3_26 
REMARK       I    between atoms: C1_9  and  O1_11 
REMARK       I    between atoms: C6_10  and  C5_25 
REMARK       I    between atoms: C6_10  and  O6_20 
REMARK       I    between atoms: N2_15  and  C2_23 
REMARK       I    between atoms: C6_16  and  C5_17 
ROOT
ATOM      1  C2  GC4 d1769      26.676  19.756  32.676  0.00  0.00     0.107 C 
ATOM      2  O6B GC4 d1769      23.132  23.231  32.542  0.00  0.00    -0.646 OA
ATOM      3  O3  GC4 d1769      27.312  20.038  34.998  0.00  0.00    -0.393 OA
ATOM      4  O5  GC4 d1769      24.820  21.212  32.030  0.00  0.00    -0.343 OA
ATOM      5  C1  GC4 d1769      25.457  19.938  31.762  0.00  0.00     0.159 C 
ATOM      6  O2  GC4 d1769      27.390  18.556  32.382  0.00  0.00    -0.388 OA
ATOM      7  C6  GC4 d1769      23.343  22.441  33.497  0.00  0.00     0.203 C 
ATOM      8  C5  GC4 d1769      24.183  21.213  33.293  0.00  0.00     0.127 C 
ATOM      9  C3  GC4 d1769      26.195  19.800  34.133  0.00  0.00     0.068 C 
ATOM     10  C4  GC4 d1769      25.149  20.871  34.435  0.00  0.00    -0.005 C 
ATOM     11  O6A GC4 d1769      22.774  22.627  34.582  0.00  0.00    -0.646 OA
ATOM     12  H   GC4 d1769      27.373  20.550  32.508  0.00  0.00     0.094 H 
ATOM     13  H   GC4 d1769      27.997  19.372  34.832  0.00  0.00     0.210 HD
ATOM     14  H   GC4 d1769      24.793  19.131  31.988  0.00  0.00     0.133 H 
ATOM     15  H   GC4 d1769      26.807  17.792  32.516  0.00  0.00     0.210 HD
ATOM     16  H   GC4 d1769      23.479  20.408  33.310  0.00  0.00     0.100 H 
ATOM     17  H   GC4 d1769      25.732  18.850  34.300  0.00  0.00     0.087 H 
ATOM     18  H   GC4 d1769      24.565  20.534  35.266  0.00  0.00     0.041 H 
ATOM     19  H   GC4 d1769      25.702  21.768  34.622  0.00  0.00     0.041 H 
ATOM     20  O5  NAG d1770      23.547  18.756  27.047  0.00  0.00    -0.349 OA
ATOM     21  C4  NAG d1770      24.758  20.430  28.283  0.00  0.00     0.089 C 
ATOM     22  C7  NAG d1770      25.548  16.425  30.654  0.00  0.00     0.214 C 
ATOM     23  O3  NAG d1770      25.749  19.840  30.421  0.00  0.00    -0.348 OA
ATOM     24  C1  NAG d1770      23.440  17.881  28.189  0.00  0.00     0.151 C 
ATOM     25  C6  NAG d1770      23.518  20.975  26.119  0.00  0.00     0.043 C 
ATOM     26  O1  NAG d1770      23.429  16.614  27.667  0.00  0.00    -0.369 OA
ATOM     27  O4  NAG d1770      24.715  21.798  28.630  0.00  0.00    -0.390 OA
ATOM     28  N2  NAG d1770      24.556  17.214  30.332  0.00  0.00    -0.349 N 
ATOM     29  O6  NAG d1770      24.702  20.686  25.437  0.00  0.00    -0.398 OA
ATOM     30  C8  NAG d1770      25.292  15.639  31.957  0.00  0.00    -0.003 C 
ATOM     31  O7  NAG d1770      26.585  16.325  29.929  0.00  0.00    -0.274 OA
ATOM     32  C2  NAG d1770      24.577  18.054  29.168  0.00  0.00     0.087 C 
ATOM     33  C5  NAG d1770      23.580  20.115  27.410  0.00  0.00     0.089 C 
ATOM     34  C3  NAG d1770      24.692  19.529  29.526  0.00  0.00     0.093 C 
ATOM     35  H   NAG d1770      25.681  20.245  27.776  0.00  0.00     0.091 H 
ATOM     36  H   NAG d1770      22.558  18.100  28.755  0.00  0.00     0.132 H 
ATOM     37  H   NAG d1770      23.469  22.016  26.363  0.00  0.00     0.078 H 
ATOM     38  H   NAG d1770      22.652  20.758  25.531  0.00  0.00     0.078 H 
ATOM     39  H   NAG d1770      24.245  16.464  27.166  0.00  0.00     0.212 HD
ATOM     40  H   NAG d1770      23.884  21.988  29.092  0.00  0.00     0.210 HD
ATOM     41  H   NAG d1770      23.762  17.234  30.914  0.00  0.00     0.163 HD
ATOM     42  H   NAG d1770      25.461  20.898  26.003  0.00  0.00     0.209 HD
ATOM     43  H   NAG d1770      24.341  15.918  32.360  0.00  0.00     0.040 H 
ATOM     44  H   NAG d1770      26.060  15.865  32.666  0.00  0.00     0.040 H 
ATOM     45  H   NAG d1770      25.296  14.589  31.748  0.00  0.00     0.040 H 
ATOM     46  H   NAG d1770      25.456  17.711  28.661  0.00  0.00     0.084 H 
ATOM     47  H   NAG d1770      22.726  20.354  28.009  0.00  0.00     0.090 H 
ATOM     48  H   NAG d1770      23.784  19.736  30.053  0.00  0.00     0.091 H 
ENDROOT
TORSDOF 11
ENDMDL
MODEL 57
REMARK VINA RESULT:      -6.9      3.319      4.887
REMARK  0 active torsions:
REMARK  status: ('A' for Active; 'I' for Inactive)
REMARK       I    between atoms: C2_1  and  O2_14 
REMARK       I    between atoms: O3_4  and  C3_18 
REMARK       I    between atoms: C4_5  and  O4_13 
REMARK       I    between atoms: C7_7  and  C8_21 
REMARK       I    between atoms: C7_7  and  N2_15 
REMARK       I    between atoms: O3_8  and  C1_12 
REMARK       I    between atoms: O3_8  and  C3_26 
REMARK       I    between atoms: C1_9  and  O1_11 
REMARK       I    between atoms: C6_10  and  C5_25 
REMARK       I    between atoms: C6_10  and  O6_20 
REMARK       I    between atoms: N2_15  and  C2_23 
REMARK       I    between atoms: C6_16  and  C5_17 
ROOT
ATOM      1  C2  GC4 d1769      25.243  19.084  33.946  0.00  0.00     0.107 C 
ATOM      2  O6B GC4 d1769      27.127  23.591  33.055  0.00  0.00    -0.646 OA
ATOM      3  O3  GC4 d1769      23.624  19.742  35.625  0.00  0.00    -0.393 OA
ATOM      4  O5  GC4 d1769      26.469  20.992  33.030  0.00  0.00    -0.343 OA
ATOM      5  C1  GC4 d1769      25.973  19.664  32.727  0.00  0.00     0.159 C 
ATOM      6  O2  GC4 d1769      24.819  17.740  33.724  0.00  0.00    -0.388 OA
ATOM      7  C6  GC4 d1769      25.912  23.335  33.252  0.00  0.00     0.203 C 
ATOM      8  C5  GC4 d1769      25.410  21.922  33.149  0.00  0.00     0.127 C 
ATOM      9  C3  GC4 d1769      24.070  20.012  34.291  0.00  0.00     0.068 C 
ATOM     10  C4  GC4 d1769      24.382  21.505  34.209  0.00  0.00    -0.005 C 
ATOM     11  O6A GC4 d1769      25.112  24.262  33.432  0.00  0.00    -0.646 OA
ATOM     12  H   GC4 d1769      25.915  19.037  34.778  0.00  0.00     0.094 H 
ATOM     13  H   GC4 d1769      23.416  18.798  35.712  0.00  0.00     0.210 HD
ATOM     14  H   GC4 d1769      25.249  19.704  31.940  0.00  0.00     0.133 H 
ATOM     15  H   GC4 d1769      24.202  17.715  32.976  0.00  0.00     0.210 HD
ATOM     16  H   GC4 d1769      24.851  21.908  32.237  0.00  0.00     0.100 H 
ATOM     17  H   GC4 d1769      23.326  19.803  33.551  0.00  0.00     0.087 H 
ATOM     18  H   GC4 d1769      23.468  22.019  33.997  0.00  0.00     0.041 H 
ATOM     19  H   GC4 d1769      24.821  21.758  35.151  0.00  0.00     0.041 H 
ATOM     20  O5  NAG d1770      28.841  18.373  28.558  0.00  0.00    -0.349 OA
ATOM     21  C4  NAG d1770      28.971  19.074  30.858  0.00  0.00     0.089 C 
ATOM     22  C7  NAG d1770      24.750  16.989  30.506  0.00  0.00     0.214 C 
ATOM     23  O3  NAG d1770      27.004  18.878  32.270  0.00  0.00    -0.348 OA
ATOM     24  C1  NAG d1770      27.398  18.352  28.566  0.00  0.00     0.151 C 
ATOM     25  C6  NAG d1770      30.909  19.402  29.229  0.00  0.00     0.043 C 
ATOM     26  O1  NAG d1770      27.051  17.369  27.677  0.00  0.00    -0.369 OA
ATOM     27  O4  NAG d1770      29.513  20.088  31.677  0.00  0.00    -0.390 OA
ATOM     28  N2  NAG d1770      25.393  18.025  30.034  0.00  0.00    -0.349 N 
ATOM     29  O6  NAG d1770      31.381  18.151  29.631  0.00  0.00    -0.398 OA
ATOM     30  C8  NAG d1770      23.220  17.190  30.526  0.00  0.00    -0.003 C 
ATOM     31  O7  NAG d1770      25.356  15.939  30.877  0.00  0.00    -0.274 OA
ATOM     32  C2  NAG d1770      26.824  18.073  29.935  0.00  0.00     0.087 C 
ATOM     33  C5  NAG d1770      29.372  19.336  29.436  0.00  0.00     0.089 C 
ATOM     34  C3  NAG d1770      27.436  19.050  30.929  0.00  0.00     0.093 C 
ATOM     35  H   NAG d1770      29.343  18.133  31.202  0.00  0.00     0.091 H 
ATOM     36  H   NAG d1770      27.003  19.310  28.295  0.00  0.00     0.132 H 
ATOM     37  H   NAG d1770      31.336  20.177  29.831  0.00  0.00     0.078 H 
ATOM     38  H   NAG d1770      31.170  19.624  28.216  0.00  0.00     0.078 H 
ATOM     39  H   NAG d1770      27.430  16.525  27.965  0.00  0.00     0.212 HD
ATOM     40  H   NAG d1770      29.187  20.952  31.381  0.00  0.00     0.210 HD
ATOM     41  H   NAG d1770      24.873  18.806  29.734  0.00  0.00     0.163 HD
ATOM     42  H   NAG d1770      31.125  17.989  30.552  0.00  0.00     0.209 HD
ATOM     43  H   NAG d1770      22.984  18.166  30.160  0.00  0.00     0.040 H 
ATOM     44  H   NAG d1770      22.859  17.087  31.527  0.00  0.00     0.040 H 
ATOM     45  H   NAG d1770      22.756  16.453  29.902  0.00  0.00     0.040 H 
ATOM     46  H   NAG d1770      27.098  17.065  30.168  0.00  0.00     0.084 H 
ATOM     47  H   NAG d1770      28.965  20.299  29.211  0.00  0.00     0.090 H 
ATOM     48  H   NAG d1770      27.062  20.002  30.616  0.00  0.00     0.091 H 
ENDROOT
TORSDOF 11
ENDMDL
MODEL 58
REMARK VINA RESULT:      -6.9      4.031      6.236
REMARK  0 active torsions:
REMARK  status: ('A' for Active; 'I' for Inactive)
REMARK       I    between atoms: C2_1  and  O2_14 
REMARK       I    between atoms: O3_4  and  C3_18 
REMARK       I    between atoms: C4_5  and  O4_13 
REMARK       I    between atoms: C7_7  and  C8_21 
REMARK       I    between atoms: C7_7  and  N2_15 
REMARK       I    between atoms: O3_8  and  C1_12 
REMARK       I    between atoms: O3_8  and  C3_26 
REMARK       I    between atoms: C1_9  and  O1_11 
REMARK       I    between atoms: C6_10  and  C5_25 
REMARK       I    between atoms: C6_10  and  O6_20 
REMARK       I    between atoms: N2_15  and  C2_23 
REMARK       I    between atoms: C6_16  and  C5_17 
ROOT
ATOM      1  C2  GC4 d1769      25.536  17.202  33.030  0.00  0.00     0.107 C 
ATOM      2  O6B GC4 d1769      21.439  17.633  30.258  0.00  0.00    -0.646 OA
ATOM      3  O3  GC4 d1769      26.215  15.008  32.256  0.00  0.00    -0.393 OA
ATOM      4  O5  GC4 d1769      23.528  18.015  31.894  0.00  0.00    -0.343 OA
ATOM      5  C1  GC4 d1769      24.757  18.431  32.542  0.00  0.00     0.159 C 
ATOM      6  O2  GC4 d1769      26.708  17.567  33.757  0.00  0.00    -0.388 OA
ATOM      7  C6  GC4 d1769      22.528  17.134  29.877  0.00  0.00     0.203 C 
ATOM      8  C5  GC4 d1769      23.788  17.380  30.657  0.00  0.00     0.127 C 
ATOM      9  C3  GC4 d1769      25.860  16.324  31.813  0.00  0.00     0.068 C 
ATOM     10  C4  GC4 d1769      24.723  16.173  30.804  0.00  0.00    -0.005 C 
ATOM     11  O6A GC4 d1769      22.578  16.523  28.801  0.00  0.00    -0.646 OA
ATOM     12  H   GC4 d1769      24.935  16.646  33.719  0.00  0.00     0.094 H 
ATOM     13  H   GC4 d1769      26.938  15.067  32.900  0.00  0.00     0.210 HD
ATOM     14  H   GC4 d1769      25.397  18.931  31.846  0.00  0.00     0.133 H 
ATOM     15  H   GC4 d1769      27.299  18.078  33.182  0.00  0.00     0.210 HD
ATOM     16  H   GC4 d1769      24.347  18.058  30.046  0.00  0.00     0.100 H 
ATOM     17  H   GC4 d1769      26.662  16.828  31.314  0.00  0.00     0.087 H 
ATOM     18  H   GC4 d1769      25.159  15.979  29.847  0.00  0.00     0.041 H 
ATOM     19  H   GC4 d1769      24.112  15.379  31.177  0.00  0.00     0.041 H 
ATOM     20  O5  NAG d1770      23.773  23.452  33.587  0.00  0.00    -0.349 OA
ATOM     21  C4  NAG d1770      22.972  21.208  33.932  0.00  0.00     0.089 C 
ATOM     22  C7  NAG d1770      27.600  20.693  33.157  0.00  0.00     0.214 C 
ATOM     23  O3  NAG d1770      24.472  19.339  33.534  0.00  0.00    -0.348 OA
ATOM     24  C1  NAG d1770      24.922  23.008  32.835  0.00  0.00     0.151 C 
ATOM     25  C6  NAG d1770      21.441  23.240  34.137  0.00  0.00     0.043 C 
ATOM     26  O1  NAG d1770      25.896  23.938  33.090  0.00  0.00    -0.369 OA
ATOM     27  O4  NAG d1770      21.835  20.395  33.733  0.00  0.00    -0.390 OA
ATOM     28  N2  NAG d1770      26.525  21.104  32.537  0.00  0.00    -0.349 N 
ATOM     29  O6  NAG d1770      21.776  23.281  35.492  0.00  0.00    -0.398 OA
ATOM     30  C8  NAG d1770      28.683  20.164  32.194  0.00  0.00    -0.003 C 
ATOM     31  O7  NAG d1770      27.711  20.761  34.419  0.00  0.00    -0.274 OA
ATOM     32  C2  NAG d1770      25.379  21.623  33.228  0.00  0.00     0.087 C 
ATOM     33  C5  NAG d1770      22.668  22.593  33.442  0.00  0.00     0.089 C 
ATOM     34  C3  NAG d1770      24.189  20.678  33.157  0.00  0.00     0.093 C 
ATOM     35  H   NAG d1770      23.205  21.205  34.976  0.00  0.00     0.091 H 
ATOM     36  H   NAG d1770      24.689  22.932  31.793  0.00  0.00     0.132 H 
ATOM     37  H   NAG d1770      20.565  22.646  33.984  0.00  0.00     0.078 H 
ATOM     38  H   NAG d1770      21.223  24.212  33.747  0.00  0.00     0.078 H 
ATOM     39  H   NAG d1770      26.071  23.969  34.043  0.00  0.00     0.212 HD
ATOM     40  H   NAG d1770      21.606  20.384  32.791  0.00  0.00     0.210 HD
ATOM     41  H   NAG d1770      26.500  21.056  31.554  0.00  0.00     0.163 HD
ATOM     42  H   NAG d1770      21.965  22.383  35.806  0.00  0.00     0.209 HD
ATOM     43  H   NAG d1770      28.325  20.220  31.188  0.00  0.00     0.040 H 
ATOM     44  H   NAG d1770      28.910  19.147  32.435  0.00  0.00     0.040 H 
ATOM     45  H   NAG d1770      29.568  20.759  32.290  0.00  0.00     0.040 H 
ATOM     46  H   NAG d1770      25.744  21.708  34.231  0.00  0.00     0.084 H 
ATOM     47  H   NAG d1770      22.435  22.469  32.405  0.00  0.00     0.090 H 
ATOM     48  H   NAG d1770      23.946  20.649  32.115  0.00  0.00     0.091 H 
ENDROOT
TORSDOF 11
ENDMDL
MODEL 59
REMARK VINA RESULT:      -6.9      2.716      5.226
REMARK  0 active torsions:
REMARK  status: ('A' for Active; 'I' for Inactive)
REMARK       I    between atoms: C2_1  and  O2_14 
REMARK       I    between atoms: O3_4  and  C3_18 
REMARK       I    between atoms: C4_5  and  O4_13 
REMARK       I    between atoms: C7_7  and  C8_21 
REMARK       I    between atoms: C7_7  and  N2_15 
REMARK       I    between atoms: O3_8  and  C1_12 
REMARK       I    between atoms: O3_8  and  C3_26 
REMARK       I    between atoms: C1_9  and  O1_11 
REMARK       I    between atoms: C6_10  and  C5_25 
REMARK       I    between atoms: C6_10  and  O6_20 
REMARK       I    between atoms: N2_15  and  C2_23 
REMARK       I    between atoms: C6_16  and  C5_17 
ROOT
ATOM      1  C2  GC4 d1769      25.367  19.687  28.282  0.00  0.00     0.107 C 
ATOM      2  O6B GC4 d1769      27.469  15.340  29.439  0.00  0.00    -0.646 OA
ATOM      3  O3  GC4 d1769      24.140  18.939  26.331  0.00  0.00    -0.393 OA
ATOM      4  O5  GC4 d1769      26.580  17.868  29.379  0.00  0.00    -0.343 OA
ATOM      5  C1  GC4 d1769      25.917  19.138  29.605  0.00  0.00     0.159 C 
ATOM      6  O2  GC4 d1769      24.788  20.981  28.442  0.00  0.00    -0.388 OA
ATOM      7  C6  GC4 d1769      26.290  15.494  29.029  0.00  0.00     0.203 C 
ATOM      8  C5  GC4 d1769      25.649  16.852  29.058  0.00  0.00     0.127 C 
ATOM      9  C3  GC4 d1769      24.364  18.670  27.720  0.00  0.00     0.068 C 
ATOM     10  C4  GC4 d1769      24.793  17.209  27.837  0.00  0.00    -0.005 C 
ATOM     11  O6A GC4 d1769      25.624  14.505  28.695  0.00  0.00    -0.646 OA
ATOM     12  H   GC4 d1769      26.169  19.818  27.586  0.00  0.00     0.094 H 
ATOM     13  H   GC4 d1769      23.865  19.863  26.220  0.00  0.00     0.210 HD
ATOM     14  H   GC4 d1769      25.072  19.011  30.248  0.00  0.00     0.133 H 
ATOM     15  H   GC4 d1769      24.047  20.930  29.067  0.00  0.00     0.210 HD
ATOM     16  H   GC4 d1769      24.938  16.790  29.855  0.00  0.00     0.100 H 
ATOM     17  H   GC4 d1769      23.484  18.790  28.316  0.00  0.00     0.087 H 
ATOM     18  H   GC4 d1769      23.907  16.610  27.873  0.00  0.00     0.041 H 
ATOM     19  H   GC4 d1769      25.414  17.023  26.986  0.00  0.00     0.041 H 
ATOM     20  O5  NAG d1770      27.865  20.553  34.240  0.00  0.00    -0.349 OA
ATOM     21  C4  NAG d1770      28.467  19.934  31.992  0.00  0.00     0.089 C 
ATOM     22  C7  NAG d1770      24.077  21.627  31.604  0.00  0.00     0.214 C 
ATOM     23  O3  NAG d1770      26.774  19.999  30.251  0.00  0.00    -0.348 OA
ATOM     24  C1  NAG d1770      26.451  20.446  33.972  0.00  0.00     0.151 C 
ATOM     25  C6  NAG d1770      30.106  19.731  33.939  0.00  0.00     0.043 C 
ATOM     26  O1  NAG d1770      25.861  21.368  34.797  0.00  0.00    -0.369 OA
ATOM     27  O4  NAG d1770      29.238  18.997  31.270  0.00  0.00    -0.390 OA
ATOM     28  N2  NAG d1770      24.718  20.639  32.171  0.00  0.00    -0.349 N 
ATOM     29  O6  NAG d1770      30.524  21.030  33.645  0.00  0.00    -0.398 OA
ATOM     30  C8  NAG d1770      22.600  21.294  31.307  0.00  0.00    -0.003 C 
ATOM     31  O7  NAG d1770      24.640  22.738  31.363  0.00  0.00    -0.274 OA
ATOM     32  C2  NAG d1770      26.107  20.714  32.526  0.00  0.00     0.087 C 
ATOM     33  C5  NAG d1770      28.631  19.668  33.459  0.00  0.00     0.089 C 
ATOM     34  C3  NAG d1770      26.974  19.825  31.646  0.00  0.00     0.093 C 
ATOM     35  H   NAG d1770      28.806  20.915  31.733  0.00  0.00     0.091 H 
ATOM     36  H   NAG d1770      26.104  19.451  34.155  0.00  0.00     0.132 H 
ATOM     37  H   NAG d1770      30.703  19.015  33.414  0.00  0.00     0.078 H 
ATOM     38  H   NAG d1770      30.200  19.503  34.979  0.00  0.00     0.078 H 
ATOM     39  H   NAG d1770      26.207  22.251  34.593  0.00  0.00     0.212 HD
ATOM     40  H   NAG d1770      28.945  18.100  31.491  0.00  0.00     0.210 HD
ATOM     41  H   NAG d1770      24.227  19.807  32.363  0.00  0.00     0.163 HD
ATOM     42  H   NAG d1770      30.422  21.196  32.695  0.00  0.00     0.209 HD
ATOM     43  H   NAG d1770      22.394  20.289  31.611  0.00  0.00     0.040 H 
ATOM     44  H   NAG d1770      22.416  21.394  30.258  0.00  0.00     0.040 H 
ATOM     45  H   NAG d1770      21.966  21.967  31.846  0.00  0.00     0.040 H 
ATOM     46  H   NAG d1770      26.324  21.749  32.359  0.00  0.00     0.084 H 
ATOM     47  H   NAG d1770      28.280  18.666  33.594  0.00  0.00     0.090 H 
ATOM     48  H   NAG d1770      26.640  18.835  31.874  0.00  0.00     0.091 H 
ENDROOT
TORSDOF 11
ENDMDL
MODEL 60
REMARK VINA RESULT:      -6.9      2.278      4.641
REMARK  0 active torsions:
REMARK  status: ('A' for Active; 'I' for Inactive)
REMARK       I    between atoms: C2_1  and  O2_14 
REMARK       I    between atoms: O3_4  and  C3_18 
REMARK       I    between atoms: C4_5  and  O4_13 
REMARK       I    between atoms: C7_7  and  C8_21 
REMARK       I    between atoms: C7_7  and  N2_15 
REMARK       I    between atoms: O3_8  and  C1_12 
REMARK       I    between atoms: O3_8  and  C3_26 
REMARK       I    between atoms: C1_9  and  O1_11 
REMARK       I    between atoms: C6_10  and  C5_25 
REMARK       I    between atoms: C6_10  and  O6_20 
REMARK       I    between atoms: N2_15  and  C2_23 
REMARK       I    between atoms: C6_16  and  C5_17 
ROOT
ATOM      1  C2  GC4 d1769      26.342  19.382  29.453  0.00  0.00     0.107 C 
ATOM      2  O6B GC4 d1769      30.774  17.787  27.880  0.00  0.00    -0.646 OA
ATOM      3  O3  GC4 d1769      24.991  18.277  27.773  0.00  0.00    -0.393 OA
ATOM      4  O5  GC4 d1769      28.723  18.866  29.228  0.00  0.00    -0.343 OA
ATOM      5  C1  GC4 d1769      27.685  19.214  30.178  0.00  0.00     0.159 C 
ATOM      6  O2  GC4 d1769      25.310  19.817  30.337  0.00  0.00    -0.388 OA
ATOM      7  C6  GC4 d1769      29.721  17.101  27.911  0.00  0.00     0.203 C 
ATOM      8  C5  GC4 d1769      28.545  17.554  28.729  0.00  0.00     0.127 C 
ATOM      9  C3  GC4 d1769      25.997  18.053  28.768  0.00  0.00     0.068 C 
ATOM     10  C4  GC4 d1769      27.169  17.356  28.081  0.00  0.00    -0.005 C 
ATOM     11  O6A GC4 d1769      29.691  16.000  27.345  0.00  0.00    -0.646 OA
ATOM     12  H   GC4 d1769      26.427  20.152  28.714  0.00  0.00     0.094 H 
ATOM     13  H   GC4 d1769      24.228  18.720  28.177  0.00  0.00     0.210 HD
ATOM     14  H   GC4 d1769      27.543  18.424  30.885  0.00  0.00     0.133 H 
ATOM     15  H   GC4 d1769      25.183  19.157  31.036  0.00  0.00     0.210 HD
ATOM     16  H   GC4 d1769      28.530  16.882  29.562  0.00  0.00     0.100 H 
ATOM     17  H   GC4 d1769      25.667  17.412  29.559  0.00  0.00     0.087 H 
ATOM     18  H   GC4 d1769      26.963  16.307  28.066  0.00  0.00     0.041 H 
ATOM     19  H   GC4 d1769      27.241  17.803  27.112  0.00  0.00     0.041 H 
ATOM     20  O5  NAG d1770      30.483  20.898  34.253  0.00  0.00    -0.349 OA
ATOM     21  C4  NAG d1770      30.079  21.243  31.905  0.00  0.00     0.089 C 
ATOM     22  C7  NAG d1770      26.095  19.278  33.502  0.00  0.00     0.214 C 
ATOM     23  O3  NAG d1770      28.070  20.320  30.899  0.00  0.00    -0.348 OA
ATOM     24  C1  NAG d1770      29.501  19.845  34.346  0.00  0.00     0.151 C 
ATOM     25  C6  NAG d1770      32.239  22.002  33.034  0.00  0.00     0.043 C 
ATOM     26  O1  NAG d1770      29.014  19.923  35.624  0.00  0.00    -0.369 OA
ATOM     27  O4  NAG d1770      30.744  21.271  30.659  0.00  0.00    -0.390 OA
ATOM     28  N2  NAG d1770      27.361  18.989  33.359  0.00  0.00    -0.349 N 
ATOM     29  O6  NAG d1770      31.612  23.227  33.276  0.00  0.00    -0.398 OA
ATOM     30  C8  NAG d1770      25.187  18.031  33.481  0.00  0.00    -0.003 C 
ATOM     31  O7  NAG d1770      25.696  20.472  33.663  0.00  0.00    -0.274 OA
ATOM     32  C2  NAG d1770      28.390  19.990  33.333  0.00  0.00     0.087 C 
ATOM     33  C5  NAG d1770      31.085  20.965  32.983  0.00  0.00     0.089 C 
ATOM     34  C3  NAG d1770      29.008  20.143  31.950  0.00  0.00     0.093 C 
ATOM     35  H   NAG d1770      29.603  22.189  32.049  0.00  0.00     0.091 H 
ATOM     36  H   NAG d1770      29.942  18.894  34.131  0.00  0.00     0.132 H 
ATOM     37  H   NAG d1770      32.765  22.026  32.103  0.00  0.00     0.078 H 
ATOM     38  H   NAG d1770      32.960  21.764  33.787  0.00  0.00     0.078 H 
ATOM     39  H   NAG d1770      28.625  20.799  35.769  0.00  0.00     0.212 HD
ATOM     40  H   NAG d1770      31.183  20.420  30.509  0.00  0.00     0.210 HD
ATOM     41  H   NAG d1770      27.621  18.044  33.266  0.00  0.00     0.163 HD
ATOM     42  H   NAG d1770      30.968  23.404  32.573  0.00  0.00     0.209 HD
ATOM     43  H   NAG d1770      25.786  17.157  33.329  0.00  0.00     0.040 H 
ATOM     44  H   NAG d1770      24.477  18.119  32.685  0.00  0.00     0.040 H 
ATOM     45  H   NAG d1770      24.669  17.950  34.414  0.00  0.00     0.040 H 
ATOM     46  H   NAG d1770      27.851  20.871  33.613  0.00  0.00     0.084 H 
ATOM     47  H   NAG d1770      31.503  20.015  32.727  0.00  0.00     0.090 H 
ATOM     48  H   NAG d1770      29.477  19.198  31.773  0.00  0.00     0.091 H 
ENDROOT
TORSDOF 11
ENDMDL
MODEL 61
REMARK VINA RESULT:      -6.9      3.187      5.320
REMARK  0 active torsions:
REMARK  status: ('A' for Active; 'I' for Inactive)
REMARK       I    between atoms: C2_1  and  O2_14 
REMARK       I    between atoms: O3_4  and  C3_18 
REMARK       I    between atoms: C4_5  and  O4_13 
REMARK       I    between atoms: C7_7  and  C8_21 
REMARK       I    between atoms: C7_7  and  N2_15 
REMARK       I    between atoms: O3_8  and  C1_12 
REMARK       I    between atoms: O3_8  and  C3_26 
REMARK       I    between atoms: C1_9  and  O1_11 
REMARK       I    between atoms: C6_10  and  C5_25 
REMARK       I    between atoms: C6_10  and  O6_20 
REMARK       I    between atoms: N2_15  and  C2_23 
REMARK       I    between atoms: C6_16  and  C5_17 
ROOT
ATOM      1  C2  GC4 d1769      23.995  21.164  29.627  0.00  0.00     0.107 C 
ATOM      2  O6B GC4 d1769      25.496  21.045  24.895  0.00  0.00    -0.646 OA
ATOM      3  O3  GC4 d1769      22.205  22.774  29.353  0.00  0.00    -0.393 OA
ATOM      4  O5  GC4 d1769      25.094  20.617  27.510  0.00  0.00    -0.343 OA
ATOM      5  C1  GC4 d1769      24.750  20.099  28.820  0.00  0.00     0.159 C 
ATOM      6  O2  GC4 d1769      23.718  20.729  30.957  0.00  0.00    -0.388 OA
ATOM      7  C6  GC4 d1769      24.300  21.104  25.279  0.00  0.00     0.203 C 
ATOM      8  C5  GC4 d1769      23.944  20.771  26.700  0.00  0.00     0.127 C 
ATOM      9  C3  GC4 d1769      22.717  21.530  28.860  0.00  0.00     0.068 C 
ATOM     10  C4  GC4 d1769      22.889  21.675  27.349  0.00  0.00    -0.005 C 
ATOM     11  O6A GC4 d1769      23.404  21.339  24.458  0.00  0.00    -0.646 OA
ATOM     12  H   GC4 d1769      24.607  22.035  29.733  0.00  0.00     0.094 H 
ATOM     13  H   GC4 d1769      22.082  22.716  30.314  0.00  0.00     0.210 HD
ATOM     14  H   GC4 d1769      24.084  19.267  28.731  0.00  0.00     0.133 H 
ATOM     15  H   GC4 d1769      23.161  19.935  30.929  0.00  0.00     0.210 HD
ATOM     16  H   GC4 d1769      23.456  19.822  26.633  0.00  0.00     0.100 H 
ATOM     17  H   GC4 d1769      22.050  20.709  29.025  0.00  0.00     0.087 H 
ATOM     18  H   GC4 d1769      21.947  21.459  26.890  0.00  0.00     0.041 H 
ATOM     19  H   GC4 d1769      23.233  22.676  27.195  0.00  0.00     0.041 H 
ATOM     20  O5  NAG d1770      28.018  16.049  29.261  0.00  0.00    -0.349 OA
ATOM     21  C4  NAG d1770      27.916  18.424  28.882  0.00  0.00     0.089 C 
ATOM     22  C7  NAG d1770      23.950  17.445  31.249  0.00  0.00     0.214 C 
ATOM     23  O3  NAG d1770      25.882  19.629  29.443  0.00  0.00    -0.348 OA
ATOM     24  C1  NAG d1770      26.587  15.934  29.405  0.00  0.00     0.151 C 
ATOM     25  C6  NAG d1770      29.925  17.023  28.164  0.00  0.00     0.043 C 
ATOM     26  O1  NAG d1770      26.399  14.895  30.279  0.00  0.00    -0.369 OA
ATOM     27  O4  NAG d1770      28.299  19.415  27.952  0.00  0.00    -0.390 OA
ATOM     28  N2  NAG d1770      24.523  17.171  30.106  0.00  0.00    -0.349 N 
ATOM     29  O6  NAG d1770      30.485  17.291  29.415  0.00  0.00    -0.398 OA
ATOM     30  C8  NAG d1770      22.411  17.363  31.185  0.00  0.00    -0.003 C 
ATOM     31  O7  NAG d1770      24.627  17.721  32.286  0.00  0.00    -0.274 OA
ATOM     32  C2  NAG d1770      25.947  17.199  29.923  0.00  0.00     0.087 C 
ATOM     33  C5  NAG d1770      28.390  17.089  28.390  0.00  0.00     0.089 C 
ATOM     34  C3  NAG d1770      26.390  18.363  29.048  0.00  0.00     0.093 C 
ATOM     35  H   NAG d1770      28.352  18.670  29.828  0.00  0.00     0.091 H 
ATOM     36  H   NAG d1770      26.122  15.761  28.457  0.00  0.00     0.132 H 
ATOM     37  H   NAG d1770      30.232  17.756  27.449  0.00  0.00     0.078 H 
ATOM     38  H   NAG d1770      30.234  16.073  27.780  0.00  0.00     0.078 H 
ATOM     39  H   NAG d1770      26.837  15.098  31.121  0.00  0.00     0.212 HD
ATOM     40  H   NAG d1770      27.913  19.211  27.086  0.00  0.00     0.210 HD
ATOM     41  H   NAG d1770      23.953  16.936  29.338  0.00  0.00     0.163 HD
ATOM     42  H   NAG d1770      30.180  18.158  29.726  0.00  0.00     0.209 HD
ATOM     43  H   NAG d1770      22.109  17.113  30.190  0.00  0.00     0.040 H 
ATOM     44  H   NAG d1770      21.992  18.309  31.458  0.00  0.00     0.040 H 
ATOM     45  H   NAG d1770      22.065  16.610  31.863  0.00  0.00     0.040 H 
ATOM     46  H   NAG d1770      26.298  17.318  30.927  0.00  0.00     0.084 H 
ATOM     47  H   NAG d1770      27.910  16.962  27.443  0.00  0.00     0.090 H 
ATOM     48  H   NAG d1770      25.949  18.150  28.096  0.00  0.00     0.091 H 
ENDROOT
TORSDOF 11
ENDMDL
MODEL 62
REMARK VINA RESULT:      -6.8      2.212      6.041
REMARK  0 active torsions:
REMARK  status: ('A' for Active; 'I' for Inactive)
REMARK       I    between atoms: C2_1  and  O2_14 
REMARK       I    between atoms: O3_4  and  C3_18 
REMARK       I    between atoms: C4_5  and  O4_13 
REMARK       I    between atoms: C7_7  and  C8_21 
REMARK       I    between atoms: C7_7  and  N2_15 
REMARK       I    between atoms: O3_8  and  C1_12 
REMARK       I    between atoms: O3_8  and  C3_26 
REMARK       I    between atoms: C1_9  and  O1_11 
REMARK       I    between atoms: C6_10  and  C5_25 
REMARK       I    between atoms: C6_10  and  O6_20 
REMARK       I    between atoms: N2_15  and  C2_23 
REMARK       I    between atoms: C6_16  and  C5_17 
ROOT
ATOM      1  C2  GC4 d1769      28.018  17.126  28.009  0.00  0.00     0.107 C 
ATOM      2  O6B GC4 d1769      30.325  21.282  29.446  0.00  0.00    -0.646 OA
ATOM      3  O3  GC4 d1769      29.997  15.806  27.548  0.00  0.00    -0.393 OA
ATOM      4  O5  GC4 d1769      28.557  19.349  28.878  0.00  0.00    -0.343 OA
ATOM      5  C1  GC4 d1769      27.565  18.292  28.899  0.00  0.00     0.159 C 
ATOM      6  O2  GC4 d1769      27.028  16.103  27.926  0.00  0.00    -0.388 OA
ATOM      7  C6  GC4 d1769      30.687  20.112  29.730  0.00  0.00     0.203 C 
ATOM      8  C5  GC4 d1769      29.735  18.962  29.559  0.00  0.00     0.127 C 
ATOM      9  C3  GC4 d1769      29.353  16.598  28.553  0.00  0.00     0.068 C 
ATOM     10  C4  GC4 d1769      30.344  17.675  28.988  0.00  0.00    -0.005 C 
ATOM     11  O6A GC4 d1769      31.796  19.922  30.246  0.00  0.00    -0.646 OA
ATOM     12  H   GC4 d1769      28.155  17.473  27.006  0.00  0.00     0.094 H 
ATOM     13  H   GC4 d1769      29.393  15.109  27.248  0.00  0.00     0.210 HD
ATOM     14  H   GC4 d1769      27.465  17.891  29.885  0.00  0.00     0.133 H 
ATOM     15  H   GC4 d1769      26.858  15.744  28.812  0.00  0.00     0.210 HD
ATOM     16  H   GC4 d1769      29.467  18.692  30.559  0.00  0.00     0.100 H 
ATOM     17  H   GC4 d1769      29.093  16.036  29.425  0.00  0.00     0.087 H 
ATOM     18  H   GC4 d1769      30.977  17.253  29.740  0.00  0.00     0.041 H 
ATOM     19  H   GC4 d1769      30.857  17.970  28.098  0.00  0.00     0.041 H 
ATOM     20  O5  NAG d1770      23.348  20.815  30.669  0.00  0.00    -0.349 OA
ATOM     21  C4  NAG d1770      25.020  20.812  28.936  0.00  0.00     0.089 C 
ATOM     22  C7  NAG d1770      24.825  16.322  30.380  0.00  0.00     0.214 C 
ATOM     23  O3  NAG d1770      26.335  18.805  28.559  0.00  0.00    -0.348 OA
ATOM     24  C1  NAG d1770      23.881  19.626  31.290  0.00  0.00     0.151 C 
ATOM     25  C6  NAG d1770      23.706  22.914  29.548  0.00  0.00     0.043 C 
ATOM     26  O1  NAG d1770      22.798  19.001  31.849  0.00  0.00    -0.369 OA
ATOM     27  O4  NAG d1770      26.017  21.628  28.358  0.00  0.00    -0.390 OA
ATOM     28  N2  NAG d1770      25.138  17.505  30.840  0.00  0.00    -0.349 N 
ATOM     29  O6  NAG d1770      22.769  22.538  28.584  0.00  0.00    -0.398 OA
ATOM     30  C8  NAG d1770      25.566  15.180  31.104  0.00  0.00    -0.003 C 
ATOM     31  O7  NAG d1770      23.976  16.171  29.449  0.00  0.00    -0.274 OA
ATOM     32  C2  NAG d1770      24.584  18.718  30.309  0.00  0.00     0.087 C 
ATOM     33  C5  NAG d1770      24.341  21.581  30.030  0.00  0.00     0.089 C 
ATOM     34  C3  NAG d1770      25.616  19.534  29.543  0.00  0.00     0.093 C 
ATOM     35  H   NAG d1770      24.330  20.535  28.167  0.00  0.00     0.091 H 
ATOM     36  H   NAG d1770      24.629  19.878  32.013  0.00  0.00     0.132 H 
ATOM     37  H   NAG d1770      24.450  23.552  29.122  0.00  0.00     0.078 H 
ATOM     38  H   NAG d1770      23.259  23.460  30.352  0.00  0.00     0.078 H 
ATOM     39  H   NAG d1770      22.151  18.793  31.158  0.00  0.00     0.212 HD
ATOM     40  H   NAG d1770      26.654  21.891  29.040  0.00  0.00     0.210 HD
ATOM     41  H   NAG d1770      25.782  17.566  31.583  0.00  0.00     0.163 HD
ATOM     42  H   NAG d1770      23.214  22.047  27.875  0.00  0.00     0.209 HD
ATOM     43  H   NAG d1770      26.221  15.591  31.843  0.00  0.00     0.040 H 
ATOM     44  H   NAG d1770      26.137  14.618  30.395  0.00  0.00     0.040 H 
ATOM     45  H   NAG d1770      24.854  14.536  31.578  0.00  0.00     0.040 H 
ATOM     46  H   NAG d1770      23.823  18.348  29.654  0.00  0.00     0.084 H 
ATOM     47  H   NAG d1770      25.122  21.817  30.722  0.00  0.00     0.090 H 
ATOM     48  H   NAG d1770      26.331  19.809  30.290  0.00  0.00     0.091 H 
ENDROOT
TORSDOF 11
ENDMDL
MODEL 63
REMARK VINA RESULT:      -6.8      3.338      5.285
REMARK  0 active torsions:
REMARK  status: ('A' for Active; 'I' for Inactive)
REMARK       I    between atoms: C2_1  and  O2_14 
REMARK       I    between atoms: O3_4  and  C3_18 
REMARK       I    between atoms: C4_5  and  O4_13 
REMARK       I    between atoms: C7_7  and  C8_21 
REMARK       I    between atoms: C7_7  and  N2_15 
REMARK       I    between atoms: O3_8  and  C1_12 
REMARK       I    between atoms: O3_8  and  C3_26 
REMARK       I    between atoms: C1_9  and  O1_11 
REMARK       I    between atoms: C6_10  and  C5_25 
REMARK       I    between atoms: C6_10  and  O6_20 
REMARK       I    between atoms: N2_15  and  C2_23 
REMARK       I    between atoms: C6_16  and  C5_17 
ROOT
ATOM      1  C2  GC4 d1769      25.109  19.381  33.821  0.00  0.00     0.107 C 
ATOM      2  O6B GC4 d1769      28.425  22.887  34.989  0.00  0.00    -0.646 OA
ATOM      3  O3  GC4 d1769      23.543  19.810  35.621  0.00  0.00    -0.393 OA
ATOM      4  O5  GC4 d1769      26.996  20.937  33.830  0.00  0.00    -0.343 OA
ATOM      5  C1  GC4 d1769      26.159  20.116  32.978  0.00  0.00     0.159 C 
ATOM      6  O2  GC4 d1769      24.323  18.487  33.035  0.00  0.00    -0.388 OA
ATOM      7  C6  GC4 d1769      27.176  23.014  35.056  0.00  0.00     0.203 C 
ATOM      8  C5  GC4 d1769      26.277  22.041  34.347  0.00  0.00     0.127 C 
ATOM      9  C3  GC4 d1769      24.249  20.430  34.539  0.00  0.00     0.068 C 
ATOM     10  C4  GC4 d1769      25.022  21.613  35.118  0.00  0.00    -0.005 C 
ATOM     11  O6A GC4 d1769      26.690  24.000  35.625  0.00  0.00    -0.646 OA
ATOM     12  H   GC4 d1769      25.598  18.765  34.548  0.00  0.00     0.094 H 
ATOM     13  H   GC4 d1769      23.039  19.052  35.286  0.00  0.00     0.210 HD
ATOM     14  H   GC4 d1769      25.613  20.725  32.289  0.00  0.00     0.133 H 
ATOM     15  H   GC4 d1769      23.850  18.988  32.351  0.00  0.00     0.210 HD
ATOM     16  H   GC4 d1769      25.887  22.599  33.521  0.00  0.00     0.100 H 
ATOM     17  H   GC4 d1769      23.597  20.817  33.783  0.00  0.00     0.087 H 
ATOM     18  H   GC4 d1769      24.359  22.451  35.154  0.00  0.00     0.041 H 
ATOM     19  H   GC4 d1769      25.370  21.287  36.075  0.00  0.00     0.041 H 
ATOM     20  O5  NAG d1770      29.073  19.739  28.660  0.00  0.00    -0.349 OA
ATOM     21  C4  NAG d1770      29.067  19.341  31.035  0.00  0.00     0.089 C 
ATOM     22  C7  NAG d1770      24.509  19.200  29.812  0.00  0.00     0.214 C 
ATOM     23  O3  NAG d1770      26.948  19.281  32.222  0.00  0.00    -0.348 OA
ATOM     24  C1  NAG d1770      27.713  20.222  28.661  0.00  0.00     0.151 C 
ATOM     25  C6  NAG d1770      31.233  19.610  29.711  0.00  0.00     0.043 C 
ATOM     26  O1  NAG d1770      27.213  19.879  27.432  0.00  0.00    -0.369 OA
ATOM     27  O4  NAG d1770      29.770  19.669  32.214  0.00  0.00    -0.390 OA
ATOM     28  N2  NAG d1770      25.508  20.042  29.840  0.00  0.00    -0.349 N 
ATOM     29  O6  NAG d1770      31.221  18.226  29.524  0.00  0.00    -0.398 OA
ATOM     30  C8  NAG d1770      23.136  19.894  29.920  0.00  0.00    -0.003 C 
ATOM     31  O7  NAG d1770      24.692  17.951  29.685  0.00  0.00    -0.274 OA
ATOM     32  C2  NAG d1770      26.880  19.625  29.770  0.00  0.00     0.087 C 
ATOM     33  C5  NAG d1770      29.740  20.005  29.870  0.00  0.00     0.089 C 
ATOM     34  C3  NAG d1770      27.610  19.826  31.090  0.00  0.00     0.093 C 
ATOM     35  H   NAG d1770      29.068  18.277  30.932  0.00  0.00     0.091 H 
ATOM     36  H   NAG d1770      27.684  21.277  28.836  0.00  0.00     0.132 H 
ATOM     37  H   NAG d1770      31.786  19.867  30.590  0.00  0.00     0.078 H 
ATOM     38  H   NAG d1770      31.700  20.122  28.896  0.00  0.00     0.078 H 
ATOM     39  H   NAG d1770      27.260  18.917  27.320  0.00  0.00     0.212 HD
ATOM     40  H   NAG d1770      29.780  20.633  32.327  0.00  0.00     0.210 HD
ATOM     41  H   NAG d1770      25.312  21.004  29.912  0.00  0.00     0.163 HD
ATOM     42  H   NAG d1770      30.791  17.801  30.282  0.00  0.00     0.209 HD
ATOM     43  H   NAG d1770      23.276  20.949  30.018  0.00  0.00     0.040 H 
ATOM     44  H   NAG d1770      22.613  19.522  30.776  0.00  0.00     0.040 H 
ATOM     45  H   NAG d1770      22.563  19.691  29.038  0.00  0.00     0.040 H 
ATOM     46  H   NAG d1770      26.785  18.584  29.538  0.00  0.00     0.084 H 
ATOM     47  H   NAG d1770      29.695  21.051  30.090  0.00  0.00     0.090 H 
ATOM     48  H   NAG d1770      27.606  20.887  31.226  0.00  0.00     0.091 H 
ENDROOT
TORSDOF 11
ENDMDL
MODEL 64
REMARK VINA RESULT:      -6.8      3.027      5.662
REMARK  0 active torsions:
REMARK  status: ('A' for Active; 'I' for Inactive)
REMARK       I    between atoms: C2_1  and  O2_14 
REMARK       I    between atoms: O3_4  and  C3_18 
REMARK       I    between atoms: C4_5  and  O4_13 
REMARK       I    between atoms: C7_7  and  C8_21 
REMARK       I    between atoms: C7_7  and  N2_15 
REMARK       I    between atoms: O3_8  and  C1_12 
REMARK       I    between atoms: O3_8  and  C3_26 
REMARK       I    between atoms: C1_9  and  O1_11 
REMARK       I    between atoms: C6_10  and  C5_25 
REMARK       I    between atoms: C6_10  and  O6_20 
REMARK       I    between atoms: N2_15  and  C2_23 
REMARK       I    between atoms: C6_16  and  C5_17 
ROOT
ATOM      1  C2  GC4 d1769      26.633  17.665  28.774  0.00  0.00     0.107 C 
ATOM      2  O6B GC4 d1769      30.265  20.954  29.577  0.00  0.00    -0.646 OA
ATOM      3  O3  GC4 d1769      27.867  16.177  27.313  0.00  0.00    -0.393 OA
ATOM      4  O5  GC4 d1769      28.003  19.516  29.600  0.00  0.00    -0.343 OA
ATOM      5  C1  GC4 d1769      26.878  18.658  29.918  0.00  0.00     0.159 C 
ATOM      6  O2  GC4 d1769      25.476  16.863  29.003  0.00  0.00    -0.388 OA
ATOM      7  C6  GC4 d1769      30.412  19.707  29.513  0.00  0.00     0.203 C 
ATOM      8  C5  GC4 d1769      29.222  18.798  29.630  0.00  0.00     0.127 C 
ATOM      9  C3  GC4 d1769      27.899  16.817  28.594  0.00  0.00     0.068 C 
ATOM     10  C4  GC4 d1769      29.213  17.591  28.684  0.00  0.00    -0.005 C 
ATOM     11  O6A GC4 d1769      31.552  19.227  29.453  0.00  0.00    -0.646 OA
ATOM     12  H   GC4 d1769      26.433  18.201  27.870  0.00  0.00     0.094 H 
ATOM     13  H   GC4 d1769      27.042  15.675  27.222  0.00  0.00     0.210 HD
ATOM     14  H   GC4 d1769      27.090  18.066  30.784  0.00  0.00     0.133 H 
ATOM     15  H   GC4 d1769      25.595  16.347  29.816  0.00  0.00     0.210 HD
ATOM     16  H   GC4 d1769      29.323  18.357  30.600  0.00  0.00     0.100 H 
ATOM     17  H   GC4 d1769      27.885  16.122  29.408  0.00  0.00     0.087 H 
ATOM     18  H   GC4 d1769      29.971  16.911  29.014  0.00  0.00     0.041 H 
ATOM     19  H   GC4 d1769      29.378  17.991  27.706  0.00  0.00     0.041 H 
ATOM     20  O5  NAG d1770      24.495  21.372  33.690  0.00  0.00    -0.349 OA
ATOM     21  C4  NAG d1770      25.268  21.487  31.413  0.00  0.00     0.089 C 
ATOM     22  C7  NAG d1770      24.578  16.881  32.184  0.00  0.00     0.214 C 
ATOM     23  O3  NAG d1770      25.783  19.429  30.230  0.00  0.00    -0.348 OA
ATOM     24  C1  NAG d1770      24.924  20.003  33.847  0.00  0.00     0.151 C 
ATOM     25  C6  NAG d1770      24.872  23.582  32.817  0.00  0.00     0.043 C 
ATOM     26  O1  NAG d1770      24.043  19.454  34.741  0.00  0.00    -0.369 OA
ATOM     27  O4  NAG d1770      26.114  22.237  30.567  0.00  0.00    -0.390 OA
ATOM     28  N2  NAG d1770      25.331  17.862  32.610  0.00  0.00    -0.349 N 
ATOM     29  O6  NAG d1770      23.565  23.592  32.327  0.00  0.00    -0.398 OA
ATOM     30  C8  NAG d1770      25.244  15.499  32.346  0.00  0.00    -0.003 C 
ATOM     31  O7  NAG d1770      23.417  17.085  31.715  0.00  0.00    -0.274 OA
ATOM     32  C2  NAG d1770      24.926  19.238  32.546  0.00  0.00     0.087 C 
ATOM     33  C5  NAG d1770      25.300  22.090  32.786  0.00  0.00     0.089 C 
ATOM     34  C3  NAG d1770      25.726  20.024  31.518  0.00  0.00     0.093 C 
ATOM     35  H   NAG d1770      24.282  21.507  31.000  0.00  0.00     0.091 H 
ATOM     36  H   NAG d1770      25.937  19.960  34.190  0.00  0.00     0.132 H 
ATOM     37  H   NAG d1770      25.513  24.170  32.194  0.00  0.00     0.078 H 
ATOM     38  H   NAG d1770      24.937  23.999  33.800  0.00  0.00     0.078 H 
ATOM     39  H   NAG d1770      23.142  19.517  34.386  0.00  0.00     0.212 HD
ATOM     40  H   NAG d1770      27.015  22.232  30.924  0.00  0.00     0.210 HD
ATOM     41  H   NAG d1770      26.213  17.648  32.991  0.00  0.00     0.163 HD
ATOM     42  H   NAG d1770      23.551  23.208  31.437  0.00  0.00     0.209 HD
ATOM     43  H   NAG d1770      26.221  15.621  32.766  0.00  0.00     0.040 H 
ATOM     44  H   NAG d1770      25.323  15.026  31.390  0.00  0.00     0.040 H 
ATOM     45  H   NAG d1770      24.650  14.890  32.997  0.00  0.00     0.040 H 
ATOM     46  H   NAG d1770      23.899  19.154  32.253  0.00  0.00     0.084 H 
ATOM     47  H   NAG d1770      26.325  22.032  33.085  0.00  0.00     0.090 H 
ATOM     48  H   NAG d1770      26.725  20.003  31.900  0.00  0.00     0.091 H 
ENDROOT
TORSDOF 11
ENDMDL
MODEL 65
REMARK VINA RESULT:      -6.8      2.421      5.049
REMARK  0 active torsions:
REMARK  status: ('A' for Active; 'I' for Inactive)
REMARK       I    between atoms: C2_1  and  O2_14 
REMARK       I    between atoms: O3_4  and  C3_18 
REMARK       I    between atoms: C4_5  and  O4_13 
REMARK       I    between atoms: C7_7  and  C8_21 
REMARK       I    between atoms: C7_7  and  N2_15 
REMARK       I    between atoms: O3_8  and  C1_12 
REMARK       I    between atoms: O3_8  and  C3_26 
REMARK       I    between atoms: C1_9  and  O1_11 
REMARK       I    between atoms: C6_10  and  C5_25 
REMARK       I    between atoms: C6_10  and  O6_20 
REMARK       I    between atoms: N2_15  and  C2_23 
REMARK       I    between atoms: C6_16  and  C5_17 
ROOT
ATOM      1  C2  GC4 d1769      25.998  20.513  28.631  0.00  0.00     0.107 C 
ATOM      2  O6B GC4 d1769      28.026  16.025  29.262  0.00  0.00    -0.646 OA
ATOM      3  O3  GC4 d1769      24.655  19.986  26.685  0.00  0.00    -0.393 OA
ATOM      4  O5  GC4 d1769      27.211  18.568  29.487  0.00  0.00    -0.343 OA
ATOM      5  C1  GC4 d1769      26.598  19.827  29.866  0.00  0.00     0.159 C 
ATOM      6  O2  GC4 d1769      25.467  21.800  28.942  0.00  0.00    -0.388 OA
ATOM      7  C6  GC4 d1769      26.833  16.246  28.931  0.00  0.00     0.203 C 
ATOM      8  C5  GC4 d1769      26.235  17.611  29.121  0.00  0.00     0.127 C 
ATOM      9  C3  GC4 d1769      24.940  19.580  28.028  0.00  0.00     0.068 C 
ATOM     10  C4  GC4 d1769      25.330  18.104  27.985  0.00  0.00    -0.005 C 
ATOM     11  O6A GC4 d1769      26.122  15.310  28.541  0.00  0.00    -0.646 OA
ATOM     12  H   GC4 d1769      26.768  20.690  27.910  0.00  0.00     0.094 H 
ATOM     13  H   GC4 d1769      24.402  20.923  26.676  0.00  0.00     0.210 HD
ATOM     14  H   GC4 d1769      25.782  19.660  30.538  0.00  0.00     0.133 H 
ATOM     15  H   GC4 d1769      24.757  21.708  29.597  0.00  0.00     0.210 HD
ATOM     16  H   GC4 d1769      25.563  17.491  29.944  0.00  0.00     0.100 H 
ATOM     17  H   GC4 d1769      24.094  19.664  28.679  0.00  0.00     0.087 H 
ATOM     18  H   GC4 d1769      24.430  17.526  28.011  0.00  0.00     0.041 H 
ATOM     19  H   GC4 d1769      25.903  17.985  27.089  0.00  0.00     0.041 H 
ATOM     20  O5  NAG d1770      28.814  20.744  34.505  0.00  0.00    -0.349 OA
ATOM     21  C4  NAG d1770      29.285  20.328  32.181  0.00  0.00     0.089 C 
ATOM     22  C7  NAG d1770      24.933  22.158  32.184  0.00  0.00     0.214 C 
ATOM     23  O3  NAG d1770      27.510  20.600  30.544  0.00  0.00    -0.348 OA
ATOM     24  C1  NAG d1770      27.386  20.698  34.303  0.00  0.00     0.151 C 
ATOM     25  C6  NAG d1770      31.011  19.899  34.011  0.00  0.00     0.043 C 
ATOM     26  O1  NAG d1770      26.866  21.552  35.240  0.00  0.00    -0.369 OA
ATOM     27  O4  NAG d1770      29.991  19.446  31.335  0.00  0.00    -0.390 OA
ATOM     28  N2  NAG d1770      25.572  21.105  32.621  0.00  0.00    -0.349 N 
ATOM     29  O6  NAG d1770      31.453  21.210  33.820  0.00  0.00    -0.398 OA
ATOM     30  C8  NAG d1770      23.434  21.891  31.934  0.00  0.00    -0.003 C 
ATOM     31  O7  NAG d1770      25.517  23.273  32.019  0.00  0.00    -0.274 OA
ATOM     32  C2  NAG d1770      26.979  21.112  32.909  0.00  0.00     0.087 C 
ATOM     33  C5  NAG d1770      29.513  19.918  33.606  0.00  0.00     0.089 C 
ATOM     34  C3  NAG d1770      27.774  20.290  31.904  0.00  0.00     0.093 C 
ATOM     35  H   NAG d1770      29.640  21.320  31.998  0.00  0.00     0.091 H 
ATOM     36  H   NAG d1770      27.019  19.699  34.409  0.00  0.00     0.132 H 
ATOM     37  H   NAG d1770      31.560  19.222  33.391  0.00  0.00     0.078 H 
ATOM     38  H   NAG d1770      31.151  19.571  35.020  0.00  0.00     0.078 H 
ATOM     39  H   NAG d1770      27.226  22.441  35.103  0.00  0.00     0.212 HD
ATOM     40  H   NAG d1770      29.683  18.538  31.485  0.00  0.00     0.210 HD
ATOM     41  H   NAG d1770      25.067  20.271  32.759  0.00  0.00     0.163 HD
ATOM     42  H   NAG d1770      31.309  21.468  32.896  0.00  0.00     0.209 HD
ATOM     43  H   NAG d1770      23.213  20.868  32.153  0.00  0.00     0.040 H 
ATOM     44  H   NAG d1770      23.201  22.096  30.910  0.00  0.00     0.040 H 
ATOM     45  H   NAG d1770      22.848  22.526  32.567  0.00  0.00     0.040 H 
ATOM     46  H   NAG d1770      27.217  22.152  32.829  0.00  0.00     0.084 H 
ATOM     47  H   NAG d1770      29.141  18.917  33.664  0.00  0.00     0.090 H 
ATOM     48  H   NAG d1770      27.422  19.290  32.055  0.00  0.00     0.091 H 
ENDROOT
TORSDOF 11
ENDMDL
MODEL 66
REMARK VINA RESULT:      -6.7      2.976      5.584
REMARK  0 active torsions:
REMARK  status: ('A' for Active; 'I' for Inactive)
REMARK       I    between atoms: C2_1  and  O2_14 
REMARK       I    between atoms: O3_4  and  C3_18 
REMARK       I    between atoms: C4_5  and  O4_13 
REMARK       I    between atoms: C7_7  and  C8_21 
REMARK       I    between atoms: C7_7  and  N2_15 
REMARK       I    between atoms: O3_8  and  C1_12 
REMARK       I    between atoms: O3_8  and  C3_26 
REMARK       I    between atoms: C1_9  and  O1_11 
REMARK       I    between atoms: C6_10  and  C5_25 
REMARK       I    between atoms: C6_10  and  O6_20 
REMARK       I    between atoms: N2_15  and  C2_23 
REMARK       I    between atoms: C6_16  and  C5_17 
ROOT
ATOM      1  C2  GC4 d1769      25.606  21.272  28.842  0.00  0.00     0.107 C 
ATOM      2  O6B GC4 d1769      27.123  16.544  28.874  0.00  0.00    -0.646 OA
ATOM      3  O3  GC4 d1769      24.649  21.285  26.616  0.00  0.00    -0.393 OA
ATOM      4  O5  GC4 d1769      26.471  19.073  29.477  0.00  0.00    -0.343 OA
ATOM      5  C1  GC4 d1769      25.890  20.297  29.993  0.00  0.00     0.159 C 
ATOM      6  O2  GC4 d1769      25.120  22.527  29.314  0.00  0.00    -0.388 OA
ATOM      7  C6  GC4 d1769      26.042  16.960  28.384  0.00  0.00     0.203 C 
ATOM      8  C5  GC4 d1769      25.522  18.322  28.744  0.00  0.00     0.127 C 
ATOM      9  C3  GC4 d1769      24.625  20.599  27.873  0.00  0.00     0.068 C 
ATOM     10  C4  GC4 d1769      24.905  19.124  27.591  0.00  0.00    -0.005 C 
ATOM     11  O6A GC4 d1769      25.358  16.204  27.682  0.00  0.00    -0.646 OA
ATOM     12  H   GC4 d1769      26.517  21.495  28.328  0.00  0.00     0.094 H 
ATOM     13  H   GC4 d1769      24.474  22.229  26.759  0.00  0.00     0.210 HD
ATOM     14  H   GC4 d1769      24.945  20.099  30.453  0.00  0.00     0.133 H 
ATOM     15  H   GC4 d1769      24.287  22.393  29.794  0.00  0.00     0.210 HD
ATOM     16  H   GC4 d1769      24.689  18.123  29.386  0.00  0.00     0.100 H 
ATOM     17  H   GC4 d1769      23.674  20.653  28.360  0.00  0.00     0.087 H 
ATOM     18  H   GC4 d1769      23.978  18.659  27.330  0.00  0.00     0.041 H 
ATOM     19  H   GC4 d1769      25.636  19.115  26.811  0.00  0.00     0.041 H 
ATOM     20  O5  NAG d1770      27.181  20.047  35.047  0.00  0.00    -0.349 OA
ATOM     21  C4  NAG d1770      28.081  20.034  32.814  0.00  0.00     0.089 C 
ATOM     22  C7  NAG d1770      23.968  22.315  32.405  0.00  0.00     0.214 C 
ATOM     23  O3  NAG d1770      26.701  20.817  30.974  0.00  0.00    -0.348 OA
ATOM     24  C1  NAG d1770      25.825  20.205  34.581  0.00  0.00     0.151 C 
ATOM     25  C6  NAG d1770      29.364  19.067  34.798  0.00  0.00     0.043 C 
ATOM     26  O1  NAG d1770      25.190  20.916  35.566  0.00  0.00    -0.369 OA
ATOM     27  O4  NAG d1770      28.877  19.256  31.945  0.00  0.00    -0.390 OA
ATOM     28  N2  NAG d1770      24.425  21.131  32.720  0.00  0.00    -0.349 N 
ATOM     29  O6  NAG d1770      29.932  20.331  34.971  0.00  0.00    -0.398 OA
ATOM     30  C8  NAG d1770      22.536  22.274  31.834  0.00  0.00    -0.003 C 
ATOM     31  O7  NAG d1770      24.654  23.366  32.589  0.00  0.00    -0.274 OA
ATOM     32  C2  NAG d1770      25.741  20.922  33.255  0.00  0.00     0.087 C 
ATOM     33  C5  NAG d1770      27.985  19.335  34.138  0.00  0.00     0.089 C 
ATOM     34  C3  NAG d1770      26.659  20.223  32.263  0.00  0.00     0.093 C 
ATOM     35  H   NAG d1770      28.539  20.996  32.912  0.00  0.00     0.091 H 
ATOM     36  H   NAG d1770      25.371  19.252  34.405  0.00  0.00     0.132 H 
ATOM     37  H   NAG d1770      29.976  18.464  34.160  0.00  0.00     0.078 H 
ATOM     38  H   NAG d1770      29.272  18.538  35.722  0.00  0.00     0.078 H 
ATOM     39  H   NAG d1770      25.637  21.768  35.688  0.00  0.00     0.212 HD
ATOM     40  H   NAG d1770      28.478  18.378  31.842  0.00  0.00     0.210 HD
ATOM     41  H   NAG d1770      23.842  20.349  32.584  0.00  0.00     0.163 HD
ATOM     42  H   NAG d1770      29.998  20.776  34.112  0.00  0.00     0.209 HD
ATOM     43  H   NAG d1770      22.199  21.260  31.788  0.00  0.00     0.040 H 
ATOM     44  H   NAG d1770      22.531  22.696  30.852  0.00  0.00     0.040 H 
ATOM     45  H   NAG d1770      21.882  22.838  32.468  0.00  0.00     0.040 H 
ATOM     46  H   NAG d1770      26.067  21.924  33.442  0.00  0.00     0.084 H 
ATOM     47  H   NAG d1770      27.535  18.391  33.914  0.00  0.00     0.090 H 
ATOM     48  H   NAG d1770      26.211  19.260  32.133  0.00  0.00     0.091 H 
ENDROOT
TORSDOF 11
ENDMDL
MODEL 67
REMARK VINA RESULT:      -6.7      2.338      4.806
REMARK  0 active torsions:
REMARK  status: ('A' for Active; 'I' for Inactive)
REMARK       I    between atoms: C2_1  and  O2_14 
REMARK       I    between atoms: O3_4  and  C3_18 
REMARK       I    between atoms: C4_5  and  O4_13 
REMARK       I    between atoms: C7_7  and  C8_21 
REMARK       I    between atoms: C7_7  and  N2_15 
REMARK       I    between atoms: O3_8  and  C1_12 
REMARK       I    between atoms: O3_8  and  C3_26 
REMARK       I    between atoms: C1_9  and  O1_11 
REMARK       I    between atoms: C6_10  and  C5_25 
REMARK       I    between atoms: C6_10  and  O6_20 
REMARK       I    between atoms: N2_15  and  C2_23 
REMARK       I    between atoms: C6_16  and  C5_17 
ROOT
ATOM      1  C2  GC4 d1769      25.490  20.370  29.289  0.00  0.00     0.107 C 
ATOM      2  O6B GC4 d1769      28.699  16.603  28.882  0.00  0.00    -0.646 OA
ATOM      3  O3  GC4 d1769      23.662  19.366  28.056  0.00  0.00    -0.393 OA
ATOM      4  O5  GC4 d1769      27.409  18.869  29.506  0.00  0.00    -0.343 OA
ATOM      5  C1  GC4 d1769      26.697  19.958  30.144  0.00  0.00     0.159 C 
ATOM      6  O2  GC4 d1769      24.813  21.502  29.833  0.00  0.00    -0.388 OA
ATOM      7  C6  GC4 d1769      27.463  16.489  29.081  0.00  0.00     0.203 C 
ATOM      8  C5  GC4 d1769      26.658  17.670  29.544  0.00  0.00     0.127 C 
ATOM      9  C3  GC4 d1769      24.564  19.154  29.148  0.00  0.00     0.068 C 
ATOM     10  C4  GC4 d1769      25.275  17.826  28.900  0.00  0.00    -0.005 C 
ATOM     11  O6A GC4 d1769      26.928  15.376  28.989  0.00  0.00    -0.646 OA
ATOM     12  H   GC4 d1769      25.824  20.677  28.320  0.00  0.00     0.094 H 
ATOM     13  H   GC4 d1769      23.191  20.205  28.183  0.00  0.00     0.210 HD
ATOM     14  H   GC4 d1769      26.299  19.646  31.086  0.00  0.00     0.133 H 
ATOM     15  H   GC4 d1769      24.483  21.287  30.720  0.00  0.00     0.210 HD
ATOM     16  H   GC4 d1769      26.436  17.451  30.568  0.00  0.00     0.100 H 
ATOM     17  H   GC4 d1769      24.066  19.075  30.092  0.00  0.00     0.087 H 
ATOM     18  H   GC4 d1769      24.650  17.044  29.277  0.00  0.00     0.041 H 
ATOM     19  H   GC4 d1769      25.443  17.783  27.845  0.00  0.00     0.041 H 
ATOM     20  O5  NAG d1770      30.281  21.775  33.480  0.00  0.00    -0.349 OA
ATOM     21  C4  NAG d1770      29.857  21.305  31.156  0.00  0.00     0.089 C 
ATOM     22  C7  NAG d1770      25.570  21.974  33.016  0.00  0.00     0.214 C 
ATOM     23  O3  NAG d1770      27.568  20.989  30.408  0.00  0.00    -0.348 OA
ATOM     24  C1  NAG d1770      28.961  21.354  33.884  0.00  0.00     0.151 C 
ATOM     25  C6  NAG d1770      32.225  21.474  32.095  0.00  0.00     0.043 C 
ATOM     26  O1  NAG d1770      28.663  22.122  34.979  0.00  0.00    -0.369 OA
ATOM     27  O4  NAG d1770      30.363  20.564  30.066  0.00  0.00    -0.390 OA
ATOM     28  N2  NAG d1770      26.583  21.154  33.116  0.00  0.00    -0.349 N 
ATOM     29  O6  NAG d1770      32.190  22.834  31.781  0.00  0.00    -0.398 OA
ATOM     30  C8  NAG d1770      24.227  21.319  33.399  0.00  0.00    -0.003 C 
ATOM     31  O7  NAG d1770      25.721  23.183  32.660  0.00  0.00    -0.274 OA
ATOM     32  C2  NAG d1770      27.929  21.538  32.796  0.00  0.00     0.087 C 
ATOM     33  C5  NAG d1770      30.744  21.082  32.346  0.00  0.00     0.089 C 
ATOM     34  C3  NAG d1770      28.433  20.865  31.528  0.00  0.00     0.093 C 
ATOM     35  H   NAG d1770      29.834  22.336  30.875  0.00  0.00     0.091 H 
ATOM     36  H   NAG d1770      28.945  20.306  34.100  0.00  0.00     0.132 H 
ATOM     37  H   NAG d1770      32.631  20.909  31.282  0.00  0.00     0.078 H 
ATOM     38  H   NAG d1770      32.843  21.273  32.945  0.00  0.00     0.078 H 
ATOM     39  H   NAG d1770      28.689  23.059  34.734  0.00  0.00     0.212 HD
ATOM     40  H   NAG d1770      30.393  19.623  30.301  0.00  0.00     0.210 HD
ATOM     41  H   NAG d1770      26.416  20.234  33.423  0.00  0.00     0.163 HD
ATOM     42  H   NAG d1770      31.621  22.972  31.008  0.00  0.00     0.209 HD
ATOM     43  H   NAG d1770      24.391  20.294  33.656  0.00  0.00     0.040 H 
ATOM     44  H   NAG d1770      23.553  21.375  32.570  0.00  0.00     0.040 H 
ATOM     45  H   NAG d1770      23.805  21.834  34.237  0.00  0.00     0.040 H 
ATOM     46  H   NAG d1770      27.833  22.595  32.659  0.00  0.00     0.084 H 
ATOM     47  H   NAG d1770      30.705  20.027  32.521  0.00  0.00     0.090 H 
ATOM     48  H   NAG d1770      28.449  19.825  31.778  0.00  0.00     0.091 H 
ENDROOT
TORSDOF 11
ENDMDL
MODEL 68
REMARK VINA RESULT:      -6.6      3.732      6.211
REMARK  0 active torsions:
REMARK  status: ('A' for Active; 'I' for Inactive)
REMARK       I    between atoms: C2_1  and  O2_14 
REMARK       I    between atoms: O3_4  and  C3_18 
REMARK       I    between atoms: C4_5  and  O4_13 
REMARK       I    between atoms: C7_7  and  C8_21 
REMARK       I    between atoms: C7_7  and  N2_15 
REMARK       I    between atoms: O3_8  and  C1_12 
REMARK       I    between atoms: O3_8  and  C3_26 
REMARK       I    between atoms: C1_9  and  O1_11 
REMARK       I    between atoms: C6_10  and  C5_25 
REMARK       I    between atoms: C6_10  and  O6_20 
REMARK       I    between atoms: N2_15  and  C2_23 
REMARK       I    between atoms: C6_16  and  C5_17 
ROOT
ATOM      1  C2  GC4 d1769      27.244  19.440  29.882  0.00  0.00     0.107 C 
ATOM      2  O6B GC4 d1769      30.603  22.375  32.063  0.00  0.00    -0.646 OA
ATOM      3  O3  GC4 d1769      28.743  18.338  28.330  0.00  0.00    -0.393 OA
ATOM      4  O5  GC4 d1769      28.408  21.010  31.354  0.00  0.00    -0.343 OA
ATOM      5  C1  GC4 d1769      27.269  20.118  31.259  0.00  0.00     0.159 C 
ATOM      6  O2  GC4 d1769      26.086  18.624  29.710  0.00  0.00    -0.388 OA
ATOM      7  C6  GC4 d1769      30.791  21.180  31.722  0.00  0.00     0.203 C 
ATOM      8  C5  GC4 d1769      29.623  20.288  31.412  0.00  0.00     0.127 C 
ATOM      9  C3  GC4 d1769      28.544  18.643  29.716  0.00  0.00     0.068 C 
ATOM     10  C4  GC4 d1769      29.804  19.350  30.211  0.00  0.00    -0.005 C 
ATOM     11  O6A GC4 d1769      31.938  20.711  31.739  0.00  0.00    -0.646 OA
ATOM     12  H   GC4 d1769      27.183  20.185  29.116  0.00  0.00     0.094 H 
ATOM     13  H   GC4 d1769      27.958  17.885  27.982  0.00  0.00     0.210 HD
ATOM     14  H   GC4 d1769      27.349  19.329  31.976  0.00  0.00     0.133 H 
ATOM     15  H   GC4 d1769      26.082  17.923  30.381  0.00  0.00     0.210 HD
ATOM     16  H   GC4 d1769      29.573  19.621  32.247  0.00  0.00     0.100 H 
ATOM     17  H   GC4 d1769      28.413  17.770  30.321  0.00  0.00     0.087 H 
ATOM     18  H   GC4 d1769      30.514  18.599  30.488  0.00  0.00     0.041 H 
ATOM     19  H   GC4 d1769      30.119  19.975  29.403  0.00  0.00     0.041 H 
ATOM     20  O5  NAG d1770      24.220  21.860  35.125  0.00  0.00    -0.349 OA
ATOM     21  C4  NAG d1770      25.358  22.518  33.108  0.00  0.00     0.089 C 
ATOM     22  C7  NAG d1770      24.671  17.875  32.602  0.00  0.00     0.214 C 
ATOM     23  O3  NAG d1770      26.117  20.806  31.561  0.00  0.00    -0.348 OA
ATOM     24  C1  NAG d1770      24.653  20.488  35.012  0.00  0.00     0.151 C 
ATOM     25  C6  NAG d1770      24.679  24.210  34.894  0.00  0.00     0.043 C 
ATOM     26  O1  NAG d1770      23.649  19.750  35.582  0.00  0.00    -0.369 OA
ATOM     27  O4  NAG d1770      26.312  23.440  32.625  0.00  0.00    -0.390 OA
ATOM     28  N2  NAG d1770      25.316  18.710  33.375  0.00  0.00    -0.349 N 
ATOM     29  O6  NAG d1770      23.471  24.361  34.209  0.00  0.00    -0.398 OA
ATOM     30  C8  NAG d1770      25.337  16.485  32.531  0.00  0.00    -0.003 C 
ATOM     31  O7  NAG d1770      23.599  18.206  32.009  0.00  0.00    -0.274 OA
ATOM     32  C2  NAG d1770      24.891  20.065  33.582  0.00  0.00     0.087 C 
ATOM     33  C5  NAG d1770      25.145  22.765  34.572  0.00  0.00     0.089 C 
ATOM     34  C3  NAG d1770      25.830  21.068  32.927  0.00  0.00     0.093 C 
ATOM     35  H   NAG d1770      24.454  22.655  32.552  0.00  0.00     0.091 H 
ATOM     36  H   NAG d1770      25.595  20.346  35.499  0.00  0.00     0.132 H 
ATOM     37  H   NAG d1770      25.399  24.923  34.550  0.00  0.00     0.078 H 
ATOM     38  H   NAG d1770      24.567  24.372  35.946  0.00  0.00     0.078 H 
ATOM     39  H   NAG d1770      22.819  19.912  35.108  0.00  0.00     0.212 HD
ATOM     40  H   NAG d1770      27.142  23.333  33.116  0.00  0.00     0.210 HD
ATOM     41  H   NAG d1770      26.128  18.395  33.835  0.00  0.00     0.163 HD
ATOM     42  H   NAG d1770      23.616  24.207  33.262  0.00  0.00     0.209 HD
ATOM     43  H   NAG d1770      26.226  16.485  33.125  0.00  0.00     0.040 H 
ATOM     44  H   NAG d1770      25.587  16.261  31.515  0.00  0.00     0.040 H 
ATOM     45  H   NAG d1770      24.659  15.745  32.903  0.00  0.00     0.040 H 
ATOM     46  H   NAG d1770      23.930  20.072  33.109  0.00  0.00     0.084 H 
ATOM     47  H   NAG d1770      26.107  22.620  35.015  0.00  0.00     0.090 H 
ATOM     48  H   NAG d1770      26.752  20.938  33.454  0.00  0.00     0.091 H 
ENDROOT
TORSDOF 11
ENDMDL
MODEL 69
REMARK VINA RESULT:      -6.6      2.288      6.455
REMARK  0 active torsions:
REMARK  status: ('A' for Active; 'I' for Inactive)
REMARK       I    between atoms: C2_1  and  O2_14 
REMARK       I    between atoms: O3_4  and  C3_18 
REMARK       I    between atoms: C4_5  and  O4_13 
REMARK       I    between atoms: C7_7  and  C8_21 
REMARK       I    between atoms: C7_7  and  N2_15 
REMARK       I    between atoms: O3_8  and  C1_12 
REMARK       I    between atoms: O3_8  and  C3_26 
REMARK       I    between atoms: C1_9  and  O1_11 
REMARK       I    between atoms: C6_10  and  C5_25 
REMARK       I    between atoms: C6_10  and  O6_20 
REMARK       I    between atoms: N2_15  and  C2_23 
REMARK       I    between atoms: C6_16  and  C5_17 
ROOT
ATOM      1  C2  GC4 d1769      27.707  20.695  33.514  0.00  0.00     0.107 C 
ATOM      2  O6B GC4 d1769      32.427  21.167  32.045  0.00  0.00    -0.646 OA
ATOM      3  O3  GC4 d1769      27.911  21.867  35.625  0.00  0.00    -0.393 OA
ATOM      4  O5  GC4 d1769      29.798  20.684  32.243  0.00  0.00    -0.343 OA
ATOM      5  C1  GC4 d1769      28.353  20.661  32.122  0.00  0.00     0.159 C 
ATOM      6  O2  GC4 d1769      26.287  20.580  33.446  0.00  0.00    -0.388 OA
ATOM      7  C6  GC4 d1769      31.752  22.055  32.627  0.00  0.00     0.203 C 
ATOM      8  C5  GC4 d1769      30.256  21.943  32.697  0.00  0.00     0.127 C 
ATOM      9  C3  GC4 d1769      28.150  21.986  34.217  0.00  0.00     0.068 C 
ATOM     10  C4  GC4 d1769      29.622  22.349  34.034  0.00  0.00    -0.005 C 
ATOM     11  O6A GC4 d1769      32.316  23.071  33.054  0.00  0.00    -0.646 OA
ATOM     12  H   GC4 d1769      28.035  19.850  34.082  0.00  0.00     0.094 H 
ATOM     13  H   GC4 d1769      26.981  21.637  35.778  0.00  0.00     0.210 HD
ATOM     14  H   GC4 d1769      28.005  21.535  31.612  0.00  0.00     0.133 H 
ATOM     15  H   GC4 d1769      25.925  21.324  32.938  0.00  0.00     0.210 HD
ATOM     16  H   GC4 d1769      29.905  22.690  32.016  0.00  0.00     0.100 H 
ATOM     17  H   GC4 d1769      27.573  22.762  33.760  0.00  0.00     0.087 H 
ATOM     18  H   GC4 d1769      29.711  23.410  34.129  0.00  0.00     0.041 H 
ATOM     19  H   GC4 d1769      30.149  21.795  34.782  0.00  0.00     0.041 H 
ATOM     20  O5  NAG d1770      27.715  18.887  27.252  0.00  0.00    -0.349 OA
ATOM     21  C4  NAG d1770      28.715  18.382  29.383  0.00  0.00     0.089 C 
ATOM     22  C7  NAG d1770      25.141  21.283  30.426  0.00  0.00     0.214 C 
ATOM     23  O3  NAG d1770      27.970  19.584  31.358  0.00  0.00    -0.348 OA
ATOM     24  C1  NAG d1770      27.142  20.123  27.728  0.00  0.00     0.151 C 
ATOM     25  C6  NAG d1770      29.541  17.321  27.213  0.00  0.00     0.043 C 
ATOM     26  O1  NAG d1770      25.991  20.285  27.003  0.00  0.00    -0.369 OA
ATOM     27  O4  NAG d1770      29.960  18.084  29.979  0.00  0.00    -0.390 OA
ATOM     28  N2  NAG d1770      26.270  21.289  29.768  0.00  0.00    -0.349 N 
ATOM     29  O6  NAG d1770      28.634  16.285  27.443  0.00  0.00    -0.398 OA
ATOM     30  C8  NAG d1770      24.738  22.681  30.940  0.00  0.00    -0.003 C 
ATOM     31  O7  NAG d1770      24.464  20.221  30.583  0.00  0.00    -0.274 OA
ATOM     32  C2  NAG d1770      26.851  20.101  29.209  0.00  0.00     0.087 C 
ATOM     33  C5  NAG d1770      28.917  18.561  27.907  0.00  0.00     0.089 C 
ATOM     34  C3  NAG d1770      28.112  19.677  29.948  0.00  0.00     0.093 C 
ATOM     35  H   NAG d1770      28.046  17.575  29.591  0.00  0.00     0.091 H 
ATOM     36  H   NAG d1770      27.828  20.934  27.597  0.00  0.00     0.132 H 
ATOM     37  H   NAG d1770      30.493  17.090  27.641  0.00  0.00     0.078 H 
ATOM     38  H   NAG d1770      29.707  17.485  26.169  0.00  0.00     0.078 H 
ATOM     39  H   NAG d1770      25.405  19.528  27.154  0.00  0.00     0.212 HD
ATOM     40  H   NAG d1770      30.584  18.806  29.802  0.00  0.00     0.210 HD
ATOM     41  H   NAG d1770      26.742  22.145  29.650  0.00  0.00     0.163 HD
ATOM     42  H   NAG d1770      28.512  16.168  28.398  0.00  0.00     0.209 HD
ATOM     43  H   NAG d1770      25.489  23.391  30.668  0.00  0.00     0.040 H 
ATOM     44  H   NAG d1770      24.640  22.655  32.005  0.00  0.00     0.040 H 
ATOM     45  H   NAG d1770      23.803  22.966  30.504  0.00  0.00     0.040 H 
ATOM     46  H   NAG d1770      26.067  19.385  29.344  0.00  0.00     0.084 H 
ATOM     47  H   NAG d1770      29.609  19.372  27.823  0.00  0.00     0.090 H 
ATOM     48  H   NAG d1770      28.796  20.481  29.770  0.00  0.00     0.091 H 
ENDROOT
TORSDOF 11
ENDMDL
