REMARK  0 active torsions:
REMARK  status: ('A' for Active; 'I' for Inactive)
REMARK       I    between atoms: C2_1  and  O2_14 
REMARK       I    between atoms: O3_4  and  C3_18 
REMARK       I    between atoms: C4_5  and  O4_13 
REMARK       I    between atoms: C7_7  and  C8_21 
REMARK       I    between atoms: C7_7  and  N2_15 
REMARK       I    between atoms: O3_8  and  C1_12 
REMARK       I    between atoms: O3_8  and  C3_26 
REMARK       I    between atoms: C1_9  and  O1_11 
REMARK       I    between atoms: C6_10  and  C5_25 
REMARK       I    between atoms: C6_10  and  O6_20 
REMARK       I    between atoms: N2_15  and  C2_23 
REMARK       I    between atoms: C6_16  and  C5_17 
ROOT
ATOM      1  C2  GC4 d1769      26.308  17.670  29.782  0.00  0.00     0.107 C 
ATOM      2  O6B GC4 d1769      24.631  22.344  29.779  0.00  0.00    -0.646 OA
ATOM      3  O3  GC4 d1769      24.347  16.627  28.813  0.00  0.00    -0.393 OA
ATOM      4  O5  GC4 d1769      26.089  20.101  29.950  0.00  0.00    -0.343 OA
ATOM      5  C1  GC4 d1769      27.040  19.019  29.786  0.00  0.00     0.159 C 
ATOM      6  O2  GC4 d1769      27.215  16.571  29.717  0.00  0.00    -0.388 OA
ATOM      7  C6  GC4 d1769      24.445  21.502  28.864  0.00  0.00     0.203 C 
ATOM      8  C5  GC4 d1769      25.286  20.259  28.796  0.00  0.00     0.127 C 
ATOM      9  C3  GC4 d1769      25.311  17.668  28.615  0.00  0.00     0.068 C 
ATOM     10  C4  GC4 d1769      24.540  18.972  28.422  0.00  0.00    -0.005 C 
ATOM     11  O6A GC4 d1769      23.634  21.748  27.961  0.00  0.00    -0.646 OA
ATOM     12  H   GC4 d1769      25.777  17.547  30.703  0.00  0.00     0.094 H 
ATOM     13  H   GC4 d1769      24.805  15.781  28.939  0.00  0.00     0.210 HD
ATOM     14  H   GC4 d1769      27.532  19.092  28.839  0.00  0.00     0.133 H 
ATOM     15  H   GC4 d1769      27.731  16.625  28.897  0.00  0.00     0.210 HD
ATOM     16  H   GC4 d1769      25.934  20.426  27.961  0.00  0.00     0.100 H 
ATOM     17  H   GC4 d1769      25.910  17.522  27.740  0.00  0.00     0.087 H 
ATOM     18  H   GC4 d1769      24.267  19.041  27.390  0.00  0.00     0.041 H 
ATOM     19  H   GC4 d1769      23.709  18.916  29.093  0.00  0.00     0.041 H 
ATOM     20  O5  NAG d1770      31.536  21.339  31.082  0.00  0.00    -0.349 OA
ATOM     21  C4  NAG d1770      29.318  20.834  31.871  0.00  0.00     0.089 C 
ATOM     22  C7  NAG d1770      30.199  17.503  28.644  0.00  0.00     0.214 C 
ATOM     23  O3  NAG d1770      28.021  19.116  30.745  0.00  0.00    -0.348 OA
ATOM     24  C1  NAG d1770      31.326  20.660  29.826  0.00  0.00     0.151 C 
ATOM     25  C6  NAG d1770      30.704  22.740  32.852  0.00  0.00     0.043 C 
ATOM     26  O1  NAG d1770      32.560  20.184  29.468  0.00  0.00    -0.369 OA
ATOM     27  O4  NAG d1770      28.150  21.455  32.365  0.00  0.00    -0.390 OA
ATOM     28  N2  NAG d1770      30.057  18.800  28.725  0.00  0.00    -0.349 N 
ATOM     29  O6  NAG d1770      31.196  21.824  33.784  0.00  0.00    -0.398 OA
ATOM     30  C8  NAG d1770      29.837  16.945  27.252  0.00  0.00    -0.003 C 
ATOM     31  O7  NAG d1770      30.617  16.814  29.624  0.00  0.00    -0.274 OA
ATOM     32  C2  NAG d1770      30.321  19.538  29.928  0.00  0.00     0.087 C 
ATOM     33  C5  NAG d1770      30.350  21.889  31.603  0.00  0.00     0.089 C 
ATOM     34  C3  NAG d1770      29.047  20.080  30.560  0.00  0.00     0.093 C 
ATOM     35  H   NAG d1770      29.657  20.133  32.604  0.00  0.00     0.091 H 
ATOM     36  H   NAG d1770      30.916  21.328  29.097  0.00  0.00     0.132 H 
ATOM     37  H   NAG d1770      29.833  23.232  33.231  0.00  0.00     0.078 H 
ATOM     38  H   NAG d1770      31.415  23.507  32.628  0.00  0.00     0.078 H 
ATOM     39  H   NAG d1770      32.888  19.586  30.157  0.00  0.00     0.212 HD
ATOM     40  H   NAG d1770      27.825  22.096  31.714  0.00  0.00     0.210 HD
ATOM     41  H   NAG d1770      29.756  19.292  27.927  0.00  0.00     0.163 HD
ATOM     42  H   NAG d1770      30.523  21.148  33.959  0.00  0.00     0.209 HD
ATOM     43  H   NAG d1770      29.514  17.745  26.620  0.00  0.00     0.040 H 
ATOM     44  H   NAG d1770      29.050  16.227  27.349  0.00  0.00     0.040 H 
ATOM     45  H   NAG d1770      30.697  16.475  26.821  0.00  0.00     0.040 H 
ATOM     46  H   NAG d1770      30.773  18.794  30.551  0.00  0.00     0.084 H 
ATOM     47  H   NAG d1770      29.898  22.534  30.879  0.00  0.00     0.090 H 
ATOM     48  H   NAG d1770      28.676  20.774  29.835  0.00  0.00     0.091 H 
ENDROOT
TORSDOF 11
