REMARK  0 active torsions:
REMARK  status: ('A' for Active; 'I' for Inactive)
REMARK       I    between atoms: N_1  and  C2_45 
REMARK       I    between atoms: N_1  and  C7_27 
REMARK       I    between atoms: C7_2  and  C8_50 
REMARK       I    between atoms: C7_2  and  N_38 
REMARK       I    between atoms: O4_3  and  C4_18 
REMARK       I    between atoms: O4_3  and  C1_35 
REMARK       I    between atoms: C5_6  and  C6_26 
REMARK       I    between atoms: C4_7  and  O4_33 
REMARK       I    between atoms: S_8  and  O4_33 
REMARK       I    between atoms: O3_9  and  C3_57 
REMARK       I    between atoms: O3_9  and  C1_52 
REMARK       I    between atoms: O2_10  and  C2_24 
REMARK       I    between atoms: C3_12  and  O3_21 
REMARK       I    between atoms: C6_14  and  C5_40 
REMARK       I    between atoms: C6_14  and  O6_16 
REMARK       I    between atoms: O6_15  and  C6_26 
REMARK       I    between atoms: C4_17  and  O4_55 
REMARK       I    between atoms: C5_19  and  C6_32 
REMARK       I    between atoms: C1_23  and  O3_44 
REMARK       I    between atoms: O3_25  and  C3_31 
REMARK       I    between atoms: C7_27  and  C8_60 
REMARK       I    between atoms: O2_28  and  C2_58 
REMARK       I    between atoms: S_36  and  O4_55 
REMARK       I    between atoms: O1_37  and  C1_59 
REMARK       I    between atoms: N_38  and  C2_56 
REMARK       I    between atoms: C3_39  and  O3_44 
REMARK       I    between atoms: C6_41  and  C5_47 
ROOT
ATOM      1  N   ASG d 610      31.476  26.449  -6.133  0.00  0.00    -0.349 N 
ATOM      2  O5  ASG d 610      27.907  27.388  -6.421  0.00  0.00    -0.349 OA
ATOM      3  C4  ASG d 610      29.137  28.807  -7.951  0.00  0.00     0.114 C 
ATOM      4  S   ASG d 610      28.674  28.631 -10.515  0.00  0.00     0.252 S 
ATOM      5  OSA ASG d 610      27.507  29.527 -10.520  0.00  0.00    -0.572 OA
ATOM      6  C6  ASG d 610      26.704  29.253  -7.291  0.00  0.00     0.043 C 
ATOM      7  O6  ASG d 610      25.825  29.389  -6.182  0.00  0.00    -0.398 OA
ATOM      8  C7  ASG d 610      32.125  25.374  -6.570  0.00  0.00     0.214 C 
ATOM      9  OSC ASG d 610      28.480  27.583 -11.536  0.00  0.00    -0.572 OA
ATOM     10  O4  ASG d 610      28.744  27.962  -9.055  0.00  0.00    -0.246 OA
ATOM     11  C1  ASG d 610      29.103  26.854  -5.822  0.00  0.00     0.154 C 
ATOM     12  C3  ASG d 610      30.455  28.307  -7.330  0.00  0.00     0.094 C 
ATOM     13  C5  ASG d 610      28.068  28.753  -6.855  0.00  0.00     0.090 C 
ATOM     14  O3  ASG d 610      31.538  28.340  -8.281  0.00  0.00    -0.348 OA
ATOM     15  C2  ASG d 610      30.269  26.891  -6.804  0.00  0.00     0.087 C 
ATOM     16  O7  ASG d 610      31.819  24.776  -7.605  0.00  0.00    -0.274 OA
ATOM     17  OSB ASG d 610      29.898  29.410 -10.792  0.00  0.00    -0.572 OA
ATOM     18  C8  ASG d 610      33.301  24.889  -5.729  0.00  0.00    -0.003 C 
ATOM     19  H   ASG d 610      31.815  26.945  -5.353  0.00  0.00     0.163 HD
ATOM     20  H   ASG d 610      29.257  29.802  -8.325  0.00  0.00     0.093 H 
ATOM     21  H   ASG d 610      26.283  28.557  -7.986  0.00  0.00     0.078 H 
ATOM     22  H   ASG d 610      26.826  30.214  -7.745  0.00  0.00     0.078 H 
ATOM     23  H   ASG d 610      25.703  28.525  -5.758  0.00  0.00     0.209 HD
ATOM     24  H   ASG d 610      29.360  27.445  -4.968  0.00  0.00     0.132 H 
ATOM     25  H   ASG d 610      30.710  28.962  -6.524  0.00  0.00     0.091 H 
ATOM     26  H   ASG d 610      28.416  29.399  -6.076  0.00  0.00     0.090 H 
ATOM     27  H   ASG d 610      30.063  26.240  -7.628  0.00  0.00     0.084 H 
ATOM     28  H   ASG d 610      33.416  25.525  -4.876  0.00  0.00     0.040 H 
ATOM     29  H   ASG d 610      34.195  24.915  -6.317  0.00  0.00     0.040 H 
ATOM     30  H   ASG d 610      33.117  23.886  -5.404  0.00  0.00     0.040 H 
ATOM     31  C7  ASG d 608      23.690  21.084  -1.408  0.00  0.00     0.214 C 
ATOM     32  O7  ASG d 608      22.931  22.008  -1.118  0.00  0.00    -0.274 OA
ATOM     33  C5  ASG d 608      27.505  22.532   1.988  0.00  0.00     0.090 C 
ATOM     34  O3  ASG d 608      25.969  23.433  -1.327  0.00  0.00    -0.348 OA
ATOM     35  O6  ASG d 608      29.290  23.944   2.903  0.00  0.00    -0.398 OA
ATOM     36  C4  ASG d 608      27.008  23.439   0.861  0.00  0.00     0.114 C 
ATOM     37  OSB ASG d 608      27.387  26.211   0.715  0.00  0.00    -0.572 OA
ATOM     38  C6  ASG d 608      28.038  23.326   3.187  0.00  0.00     0.043 C 
ATOM     39  OSA ASG d 608      25.734  26.515   2.445  0.00  0.00    -0.572 OA
ATOM     40  S   ASG d 608      26.020  25.870   1.147  0.00  0.00     0.252 S 
ATOM     41  O1  ASG d 608      24.712  20.263   2.060  0.00  0.00    -0.369 OA
ATOM     42  N   ASG d 608      24.835  20.844  -0.769  0.00  0.00    -0.349 N 
ATOM     43  O5  ASG d 608      26.401  21.741   2.486  0.00  0.00    -0.349 OA
ATOM     44  C8  ASG d 608      23.315  20.138  -2.542  0.00  0.00    -0.003 C 
ATOM     45  OSC ASG d 608      25.114  26.261   0.049  0.00  0.00    -0.572 OA
ATOM     46  O4  ASG d 608      26.017  24.304   1.443  0.00  0.00    -0.246 OA
ATOM     47  C2  ASG d 608      25.303  21.735   0.281  0.00  0.00     0.087 C 
ATOM     48  C3  ASG d 608      26.442  22.592  -0.258  0.00  0.00     0.094 C 
ATOM     49  C1  ASG d 608      25.795  20.903   1.482  0.00  0.00     0.151 C 
ATOM     50  H   ASG d 608      28.290  21.934   1.575  0.00  0.00     0.090 H 
ATOM     51  H   ASG d 608      29.593  24.435   3.683  0.00  0.00     0.209 HD
ATOM     52  H   ASG d 608      27.794  24.026   0.433  0.00  0.00     0.093 H 
ATOM     53  H   ASG d 608      28.161  22.660   4.015  0.00  0.00     0.078 H 
ATOM     54  H   ASG d 608      27.332  24.098   3.413  0.00  0.00     0.078 H 
ATOM     55  H   ASG d 608      25.014  19.737   2.817  0.00  0.00     0.212 HD
ATOM     56  H   ASG d 608      25.370  20.054  -1.011  0.00  0.00     0.163 HD
ATOM     57  H   ASG d 608      24.081  19.399  -2.658  0.00  0.00     0.040 H 
ATOM     58  H   ASG d 608      23.214  20.693  -3.451  0.00  0.00     0.040 H 
ATOM     59  H   ASG d 608      22.387  19.657  -2.313  0.00  0.00     0.040 H 
ATOM     60  H   ASG d 608      24.502  22.369   0.600  0.00  0.00     0.084 H 
ATOM     61  H   ASG d 608      27.211  21.955  -0.642  0.00  0.00     0.091 H 
ATOM     62  H   ASG d 608      26.520  20.202   1.125  0.00  0.00     0.132 H 
ATOM     63  O4  BDP d 609      28.861  25.542  -5.466  0.00  0.00    -0.348 OA
ATOM     64  O5  BDP d 609      27.769  24.637  -2.078  0.00  0.00    -0.340 OA
ATOM     65  C4  BDP d 609      27.949  25.344  -4.384  0.00  0.00     0.103 C 
ATOM     66  C5  BDP d 609      28.705  24.882  -3.144  0.00  0.00     0.152 C 
ATOM     67  O3  BDP d 609      26.174  24.823  -5.892  0.00  0.00    -0.390 OA
ATOM     68  O2  BDP d 609      25.161  22.892  -3.999  0.00  0.00    -0.388 OA
ATOM     69  C3  BDP d 609      26.930  24.303  -4.806  0.00  0.00     0.092 C 
ATOM     70  C6  BDP d 609      29.697  25.915  -2.641  0.00  0.00     0.206 C 
ATOM     71  O6B BDP d 609      29.258  27.030  -2.291  0.00  0.00    -0.646 OA
ATOM     72  O6A BDP d 609      30.902  25.582  -2.639  0.00  0.00    -0.646 OA
ATOM     73  C1  BDP d 609      26.822  23.598  -2.402  0.00  0.00     0.160 C 
ATOM     74  C2  BDP d 609      26.003  23.979  -3.643  0.00  0.00     0.110 C 
ATOM     75  H   BDP d 609      27.451  26.260  -4.145  0.00  0.00     0.092 H 
ATOM     76  H   BDP d 609      29.240  23.999  -3.424  0.00  0.00     0.104 H 
ATOM     77  H   BDP d 609      26.768  25.028  -6.631  0.00  0.00     0.210 HD
ATOM     78  H   BDP d 609      24.642  23.129  -4.783  0.00  0.00     0.210 HD
ATOM     79  H   BDP d 609      27.431  23.406  -5.104  0.00  0.00     0.091 H 
ATOM     80  H   BDP d 609      27.350  22.691  -2.609  0.00  0.00     0.133 H 
ATOM     81  H   BDP d 609      25.411  24.842  -3.421  0.00  0.00     0.094 H 
ATOM     82  O2  GCD d 611      34.378  27.851  -8.059  0.00  0.00    -0.388 OA
ATOM     83  C3  GCD d 611      34.682  30.268  -8.428  0.00  0.00     0.084 C 
ATOM     84  O6B GCD d 611      31.561  33.626  -7.642  0.00  0.00    -0.642 OA
ATOM     85  O3  GCD d 611      35.882  29.977  -9.159  0.00  0.00    -0.389 OA
ATOM     86  C1  GCD d 611      32.466  29.337  -8.048  0.00  0.00     0.165 C 
ATOM     87  C2  GCD d 611      33.771  29.011  -8.701  0.00  0.00     0.111 C 
ATOM     88  C6  GCD d 611      31.864  33.040  -8.755  0.00  0.00     0.233 C 
ATOM     89  O6A GCD d 611      31.498  33.292  -9.968  0.00  0.00    -0.642 OA
ATOM     90  C5  GCD d 611      32.712  31.796  -8.672  0.00  0.00     0.147 C 
ATOM     91  O5  GCD d 611      31.950  30.538  -8.810  0.00  0.00    -0.311 OA
ATOM     92  C4  GCD d 611      34.052  31.710  -8.471  0.00  0.00    -0.034 C 
ATOM     93  H   GCD d 611      35.223  27.648  -8.490  0.00  0.00     0.210 HD
ATOM     94  H   GCD d 611      34.890  30.392  -7.386  0.00  0.00     0.093 H 
ATOM     95  H   GCD d 611      35.670  29.869 -10.099  0.00  0.00     0.210 HD
ATOM     96  H   GCD d 611      32.599  29.475  -6.995  0.00  0.00     0.134 H 
ATOM     97  H   GCD d 611      33.651  28.793  -9.742  0.00  0.00     0.095 H 
ATOM     98  H   GCD d 611      34.633  32.554  -8.351  0.00  0.00     0.085 H 
ENDROOT
TORSDOF 25
