MODEL 1
REMARK VINA RESULT:     -10.9      0.000      0.000
REMARK  0 active torsions:
REMARK  status: ('A' for Active; 'I' for Inactive)
REMARK       I    between atoms: CCA_2  and  OCB_28 
REMARK       I    between atoms: CBL_3  and  CBK_24 
REMARK       I    between atoms: OBM_4  and  CBE_20 
REMARK       I    between atoms: CBI_5  and  CBJ_25 
REMARK       I    between atoms: CBY_7  and  OBZ_22 
REMARK       I    between atoms: SBW_8  and  OBP_27 
REMARK       I    between atoms: OBR_9  and  CBJ_25 
REMARK       I    between atoms: CCD_10  and  CCE_18 
REMARK       I    between atoms: OBO_12  and  CBG_29 
REMARK       I    between atoms: OBO_12  and  CBX_17 
REMARK       I    between atoms: CBH_23  and  OBP_27 
REMARK       I    between atoms: CBK_24  and  NBN_30 
REMARK       I    between atoms: CBF_26  and  NBN_30 
ROOT
ATOM      1  OBS L42 d1784      31.143  16.621  29.673  0.00  0.00    -0.274 OA
ATOM      2  CCA L42 d1784      25.617  17.414  29.004  0.00  0.00     0.084 C 
ATOM      3  CBL L42 d1784      30.018  16.785  27.558  0.00  0.00    -0.003 C 
ATOM      4  OBM L42 d1784      32.933  20.436  29.550  0.00  0.00    -0.369 OA
ATOM      5  CBI L42 d1784      30.284  21.782  31.767  0.00  0.00     0.090 C 
ATOM      6  OBU L42 d1784      27.979  18.826  33.964  0.00  0.00    -0.572 OA
ATOM      7  CBY L42 d1784      26.658  17.422  30.095  0.00  0.00     0.111 C 
ATOM      8  SBW L42 d1784      29.344  19.421  34.313  0.00  0.00     0.252 S 
ATOM      9  OBR L42 d1784      31.167  22.886  33.438  0.00  0.00    -0.398 OA
ATOM     10  CCD L42 d1784      25.385  19.871  29.715  0.00  0.00     0.147 C 
ATOM     11  OCG L42 d1784      25.193  22.074  30.504  0.00  0.00    -0.642 OA
ATOM     12  OBO L42 d1784      28.441  18.797  30.995  0.00  0.00    -0.348 OA
ATOM     13  OCH L42 d1784      26.512  19.800  30.468  0.00  0.00    -0.311 OA
ATOM     14  CCC L42 d1784      24.883  18.770  29.002  0.00  0.00    -0.034 C 
ATOM     15  OBQ L42 d1784      31.651  21.475  31.333  0.00  0.00    -0.349 OA
ATOM     16  OBV L42 d1784      30.167  18.539  35.093  0.00  0.00    -0.572 OA
ATOM     17  CBX L42 d1784      27.417  18.777  30.053  0.00  0.00     0.165 C 
ATOM     18  CCE L42 d1784      24.707  21.235  29.695  0.00  0.00     0.233 C 
ATOM     19  OCF L42 d1784      23.693  21.408  28.973  0.00  0.00    -0.642 OA
ATOM     20  CBE L42 d1784      31.631  20.690  30.040  0.00  0.00     0.151 C 
ATOM     21  OBT L42 d1784      29.097  20.632  35.130  0.00  0.00    -0.572 OA
ATOM     22  OBZ L42 d1784      27.499  16.301  29.926  0.00  0.00    -0.388 OA
ATOM     23  CBH L42 d1784      29.494  20.495  32.054  0.00  0.00     0.114 C 
ATOM     24  CBK L42 d1784      30.585  17.363  28.848  0.00  0.00     0.214 C 
ATOM     25  CBJ L42 d1784      29.934  22.668  33.044  0.00  0.00     0.043 C 
ATOM     26  CBF L42 d1784      30.781  19.400  30.190  0.00  0.00     0.087 C 
ATOM     27  OBP L42 d1784      30.177  19.721  33.102  0.00  0.00    -0.246 OA
ATOM     28  OCB L42 d1784      24.701  16.396  29.353  0.00  0.00    -0.389 OA
ATOM     29  CBG L42 d1784      29.369  19.800  30.736  0.00  0.00     0.094 C 
ATOM     30  NBN L42 d1784      30.457  18.696  28.958  0.00  0.00    -0.349 N 
ATOM     31  H   L42 d1784      26.048  17.250  28.038  0.00  0.00     0.093 H 
ATOM     32  H   L42 d1784      30.159  15.725  27.549  0.00  0.00     0.040 H 
ATOM     33  H   L42 d1784      30.523  17.219  26.720  0.00  0.00     0.040 H 
ATOM     34  H   L42 d1784      28.972  17.006  27.497  0.00  0.00     0.040 H 
ATOM     35  H   L42 d1784      33.419  21.272  29.476  0.00  0.00     0.212 HD
ATOM     36  H   L42 d1784      30.040  22.384  30.917  0.00  0.00     0.090 H 
ATOM     37  H   L42 d1784      26.219  17.340  31.068  0.00  0.00     0.095 H 
ATOM     38  H   L42 d1784      31.159  23.434  34.238  0.00  0.00     0.209 HD
ATOM     39  H   L42 d1784      24.006  18.871  28.466  0.00  0.00     0.085 H 
ATOM     40  H   L42 d1784      27.801  18.919  29.064  0.00  0.00     0.134 H 
ATOM     41  H   L42 d1784      31.156  21.294  29.297  0.00  0.00     0.132 H 
ATOM     42  H   L42 d1784      27.916  16.339  29.051  0.00  0.00     0.210 HD
ATOM     43  H   L42 d1784      28.513  20.664  32.445  0.00  0.00     0.093 H 
ATOM     44  H   L42 d1784      29.363  22.130  33.771  0.00  0.00     0.078 H 
ATOM     45  H   L42 d1784      29.329  23.534  32.873  0.00  0.00     0.078 H 
ATOM     46  H   L42 d1784      31.383  18.770  30.812  0.00  0.00     0.084 H 
ATOM     47  H   L42 d1784      24.333  16.581  30.232  0.00  0.00     0.210 HD
ATOM     48  H   L42 d1784      29.006  20.384  29.916  0.00  0.00     0.091 H 
ATOM     49  H   L42 d1784      30.136  19.212  28.183  0.00  0.00     0.163 HD
ENDROOT
TORSDOF 12
ENDMDL
MODEL 2
REMARK VINA RESULT:     -10.6      1.212      1.283
REMARK  0 active torsions:
REMARK  status: ('A' for Active; 'I' for Inactive)
REMARK       I    between atoms: CCA_2  and  OCB_28 
REMARK       I    between atoms: CBL_3  and  CBK_24 
REMARK       I    between atoms: OBM_4  and  CBE_20 
REMARK       I    between atoms: CBI_5  and  CBJ_25 
REMARK       I    between atoms: CBY_7  and  OBZ_22 
REMARK       I    between atoms: SBW_8  and  OBP_27 
REMARK       I    between atoms: OBR_9  and  CBJ_25 
REMARK       I    between atoms: CCD_10  and  CCE_18 
REMARK       I    between atoms: OBO_12  and  CBG_29 
REMARK       I    between atoms: OBO_12  and  CBX_17 
REMARK       I    between atoms: CBH_23  and  OBP_27 
REMARK       I    between atoms: CBK_24  and  NBN_30 
REMARK       I    between atoms: CBF_26  and  NBN_30 
ROOT
ATOM      1  OBS L42 d1784      31.141  16.858  29.840  0.00  0.00    -0.274 OA
ATOM      2  CCA L42 d1784      25.650  16.151  28.856  0.00  0.00     0.084 C 
ATOM      3  CBL L42 d1784      30.132  16.740  27.664  0.00  0.00    -0.003 C 
ATOM      4  OBM L42 d1784      31.848  21.014  29.807  0.00  0.00    -0.369 OA
ATOM      5  CBI L42 d1784      28.816  21.574  31.867  0.00  0.00     0.090 C 
ATOM      6  OBU L42 d1784      27.269  18.083  33.938  0.00  0.00    -0.572 OA
ATOM      7  CBY L42 d1784      26.590  16.424  30.005  0.00  0.00     0.111 C 
ATOM      8  SBW L42 d1784      28.403  19.017  34.362  0.00  0.00     0.252 S 
ATOM      9  OBR L42 d1784      29.278  22.854  33.581  0.00  0.00    -0.398 OA
ATOM     10  CCD L42 d1784      24.730  18.447  29.546  0.00  0.00     0.147 C 
ATOM     11  OCG L42 d1784      23.911  20.509  30.315  0.00  0.00    -0.642 OA
ATOM     12  OBO L42 d1784      27.886  18.215  31.001  0.00  0.00    -0.348 OA
ATOM     13  OCH L42 d1784      25.791  18.671  30.361  0.00  0.00    -0.311 OA
ATOM     14  CCC L42 d1784      24.581  17.261  28.808  0.00  0.00    -0.034 C 
ATOM     15  OBQ L42 d1784      30.238  21.650  31.512  0.00  0.00    -0.349 OA
ATOM     16  OBV L42 d1784      29.388  18.378  35.191  0.00  0.00    -0.572 OA
ATOM     17  CBX L42 d1784      26.958  17.933  30.002  0.00  0.00     0.165 C 
ATOM     18  CCE L42 d1784      23.714  19.581  29.483  0.00  0.00     0.233 C 
ATOM     19  OCF L42 d1784      22.732  19.485  28.704  0.00  0.00    -0.642 OA
ATOM     20  CBE L42 d1784      30.501  20.904  30.222  0.00  0.00     0.151 C 
ATOM     21  OBT L42 d1784      27.796  20.108  35.160  0.00  0.00    -0.572 OA
ATOM     22  OBZ L42 d1784      27.707  15.571  29.887  0.00  0.00    -0.388 OA
ATOM     23  CBH L42 d1784      28.386  20.119  32.113  0.00  0.00     0.114 C 
ATOM     24  CBK L42 d1784      30.452  17.433  28.983  0.00  0.00     0.214 C 
ATOM     25  CBJ L42 d1784      28.172  22.319  33.119  0.00  0.00     0.043 C 
ATOM     26  CBF L42 d1784      30.020  19.432  30.328  0.00  0.00     0.087 C 
ATOM     27  OBP L42 d1784      29.191  19.544  33.199  0.00  0.00    -0.246 OA
ATOM     28  OCB L42 d1784      25.022  14.921  29.157  0.00  0.00    -0.389 OA
ATOM     29  CBG L42 d1784      28.524  19.432  30.791  0.00  0.00     0.094 C 
ATOM     30  NBN L42 d1784      29.965  18.682  29.081  0.00  0.00    -0.349 N 
ATOM     31  H   L42 d1784      26.163  16.120  27.917  0.00  0.00     0.093 H 
ATOM     32  H   L42 d1784      30.552  15.756  27.667  0.00  0.00     0.040 H 
ATOM     33  H   L42 d1784      30.548  17.303  26.855  0.00  0.00     0.040 H 
ATOM     34  H   L42 d1784      29.071  16.674  27.544  0.00  0.00     0.040 H 
ATOM     35  H   L42 d1784      32.096  21.950  29.758  0.00  0.00     0.212 HD
ATOM     36  H   L42 d1784      28.467  22.099  31.002  0.00  0.00     0.090 H 
ATOM     37  H   L42 d1784      26.135  16.216  30.952  0.00  0.00     0.095 H 
ATOM     38  H   L42 d1784      29.078  23.370  34.378  0.00  0.00     0.209 HD
ATOM     39  H   L42 d1784      23.741  17.130  28.224  0.00  0.00     0.085 H 
ATOM     40  H   L42 d1784      27.345  18.184  29.036  0.00  0.00     0.134 H 
ATOM     41  H   L42 d1784      29.923  21.368  29.451  0.00  0.00     0.132 H 
ATOM     42  H   L42 d1784      28.147  15.730  29.038  0.00  0.00     0.210 HD
ATOM     43  H   L42 d1784      27.375  20.015  32.446  0.00  0.00     0.093 H 
ATOM     44  H   L42 d1784      27.726  21.639  33.814  0.00  0.00     0.078 H 
ATOM     45  H   L42 d1784      27.367  22.994  32.911  0.00  0.00     0.078 H 
ATOM     46  H   L42 d1784      30.733  18.978  30.984  0.00  0.00     0.084 H 
ATOM     47  H   L42 d1784      24.570  14.990  30.012  0.00  0.00     0.210 HD
ATOM     48  H   L42 d1784      28.064  19.908  29.950  0.00  0.00     0.091 H 
ATOM     49  H   L42 d1784      29.561  19.102  28.288  0.00  0.00     0.163 HD
ENDROOT
TORSDOF 12
ENDMDL
MODEL 3
REMARK VINA RESULT:      -9.5      2.465      6.423
REMARK  0 active torsions:
REMARK  status: ('A' for Active; 'I' for Inactive)
REMARK       I    between atoms: CCA_2  and  OCB_28 
REMARK       I    between atoms: CBL_3  and  CBK_24 
REMARK       I    between atoms: OBM_4  and  CBE_20 
REMARK       I    between atoms: CBI_5  and  CBJ_25 
REMARK       I    between atoms: CBY_7  and  OBZ_22 
REMARK       I    between atoms: SBW_8  and  OBP_27 
REMARK       I    between atoms: OBR_9  and  CBJ_25 
REMARK       I    between atoms: CCD_10  and  CCE_18 
REMARK       I    between atoms: OBO_12  and  CBG_29 
REMARK       I    between atoms: OBO_12  and  CBX_17 
REMARK       I    between atoms: CBH_23  and  OBP_27 
REMARK       I    between atoms: CBK_24  and  NBN_30 
REMARK       I    between atoms: CBF_26  and  NBN_30 
ROOT
ATOM      1  OBS L42 d1784      29.490  17.211  26.863  0.00  0.00    -0.274 OA
ATOM      2  CCA L42 d1784      30.383  19.866  31.739  0.00  0.00     0.084 C 
ATOM      3  CBL L42 d1784      30.710  16.308  28.724  0.00  0.00    -0.003 C 
ATOM      4  OBM L42 d1784      26.029  14.860  27.385  0.00  0.00    -0.369 OA
ATOM      5  CBI L42 d1784      24.328  17.689  29.073  0.00  0.00     0.090 C 
ATOM      6  OBU L42 d1784      26.103  21.604  28.447  0.00  0.00    -0.572 OA
ATOM      7  CBY L42 d1784      29.577  20.021  30.472  0.00  0.00     0.111 C 
ATOM      8  SBW L42 d1784      25.135  20.842  27.542  0.00  0.00     0.252 S 
ATOM      9  OBR L42 d1784      22.351  18.029  28.199  0.00  0.00    -0.398 OA
ATOM     10  CCD L42 d1784      28.037  19.776  32.781  0.00  0.00     0.147 C 
ATOM     11  OCG L42 d1784      25.851  19.796  33.639  0.00  0.00    -0.642 OA
ATOM     12  OBO L42 d1784      27.588  19.166  29.382  0.00  0.00    -0.348 OA
ATOM     13  OCH L42 d1784      27.457  19.656  31.561  0.00  0.00    -0.311 OA
ATOM     14  CCC L42 d1784      29.426  19.899  32.948  0.00  0.00    -0.034 C 
ATOM     15  OBQ L42 d1784      24.514  16.628  28.077  0.00  0.00    -0.349 OA
ATOM     16  OBV L42 d1784      25.273  21.176  26.151  0.00  0.00    -0.572 OA
ATOM     17  CBX L42 d1784      28.321  19.112  30.564  0.00  0.00     0.165 C 
ATOM     18  CCE L42 d1784      27.072  19.760  33.959  0.00  0.00     0.233 C 
ATOM     19  OCF L42 d1784      27.528  19.801  35.130  0.00  0.00    -0.642 OA
ATOM     20  CBE L42 d1784      25.844  15.938  28.281  0.00  0.00     0.151 C 
ATOM     21  OBT L42 d1784      23.762  21.219  27.952  0.00  0.00    -0.572 OA
ATOM     22  OBZ L42 d1784      30.407  19.725  29.370  0.00  0.00    -0.388 OA
ATOM     23  CBH L42 d1784      25.407  18.775  28.931  0.00  0.00     0.114 C 
ATOM     24  CBK L42 d1784      29.434  16.725  28.004  0.00  0.00     0.214 C 
ATOM     25  CBJ L42 d1784      23.003  18.563  29.205  0.00  0.00     0.043 C 
ATOM     26  CBF L42 d1784      27.010  16.961  28.244  0.00  0.00     0.087 C 
ATOM     27  OBP L42 d1784      25.345  19.357  27.582  0.00  0.00    -0.246 OA
ATOM     28  OCB L42 d1784      31.234  20.992  31.795  0.00  0.00    -0.389 OA
ATOM     29  CBG L42 d1784      26.699  18.102  29.271  0.00  0.00     0.094 C 
ATOM     30  NBN L42 d1784      28.307  16.476  28.693  0.00  0.00    -0.349 N 
ATOM     31  H   L42 d1784      30.932  18.947  31.755  0.00  0.00     0.093 H 
ATOM     32  H   L42 d1784      31.557  16.539  28.112  0.00  0.00     0.040 H 
ATOM     33  H   L42 d1784      30.685  15.255  28.915  0.00  0.00     0.040 H 
ATOM     34  H   L42 d1784      30.786  16.837  29.651  0.00  0.00     0.040 H 
ATOM     35  H   L42 d1784      25.276  14.253  27.448  0.00  0.00     0.212 HD
ATOM     36  H   L42 d1784      24.333  17.034  29.920  0.00  0.00     0.090 H 
ATOM     37  H   L42 d1784      29.228  21.024  30.341  0.00  0.00     0.095 H 
ATOM     38  H   L42 d1784      21.481  18.450  28.118  0.00  0.00     0.209 HD
ATOM     39  H   L42 d1784      29.814  20.015  33.898  0.00  0.00     0.085 H 
ATOM     40  H   L42 d1784      28.641  18.112  30.773  0.00  0.00     0.134 H 
ATOM     41  H   L42 d1784      25.840  15.502  29.258  0.00  0.00     0.132 H 
ATOM     42  H   L42 d1784      30.745  18.820  29.454  0.00  0.00     0.210 HD
ATOM     43  H   L42 d1784      25.274  19.609  29.588  0.00  0.00     0.093 H 
ATOM     44  H   L42 d1784      23.187  19.607  29.063  0.00  0.00     0.078 H 
ATOM     45  H   L42 d1784      22.511  18.544  30.156  0.00  0.00     0.078 H 
ATOM     46  H   L42 d1784      27.072  17.238  27.212  0.00  0.00     0.084 H 
ATOM     47  H   L42 d1784      30.699  21.802  31.779  0.00  0.00     0.210 HD
ATOM     48  H   L42 d1784      26.728  17.548  30.186  0.00  0.00     0.091 H 
ATOM     49  H   L42 d1784      28.359  15.951  29.523  0.00  0.00     0.163 HD
ENDROOT
TORSDOF 12
ENDMDL
MODEL 4
REMARK VINA RESULT:      -9.5      2.465      6.411
REMARK  0 active torsions:
REMARK  status: ('A' for Active; 'I' for Inactive)
REMARK       I    between atoms: CCA_2  and  OCB_28 
REMARK       I    between atoms: CBL_3  and  CBK_24 
REMARK       I    between atoms: OBM_4  and  CBE_20 
REMARK       I    between atoms: CBI_5  and  CBJ_25 
REMARK       I    between atoms: CBY_7  and  OBZ_22 
REMARK       I    between atoms: SBW_8  and  OBP_27 
REMARK       I    between atoms: OBR_9  and  CBJ_25 
REMARK       I    between atoms: CCD_10  and  CCE_18 
REMARK       I    between atoms: OBO_12  and  CBG_29 
REMARK       I    between atoms: OBO_12  and  CBX_17 
REMARK       I    between atoms: CBH_23  and  OBP_27 
REMARK       I    between atoms: CBK_24  and  NBN_30 
REMARK       I    between atoms: CBF_26  and  NBN_30 
ROOT
ATOM      1  OBS L42 d1784      29.271  16.803  26.959  0.00  0.00    -0.274 OA
ATOM      2  CCA L42 d1784      30.892  20.582  30.795  0.00  0.00     0.084 C 
ATOM      3  CBL L42 d1784      30.706  16.344  28.829  0.00  0.00    -0.003 C 
ATOM      4  OBM L42 d1784      25.847  14.898  28.514  0.00  0.00    -0.369 OA
ATOM      5  CBI L42 d1784      24.472  18.173  29.576  0.00  0.00     0.090 C 
ATOM      6  OBU L42 d1784      26.258  21.666  27.709  0.00  0.00    -0.572 OA
ATOM      7  CBY L42 d1784      29.928  20.451  29.642  0.00  0.00     0.111 C 
ATOM      8  SBW L42 d1784      25.155  20.756  27.167  0.00  0.00     0.252 S 
ATOM      9  OBR L42 d1784      22.405  18.397  28.893  0.00  0.00    -0.398 OA
ATOM     10  CCD L42 d1784      28.708  20.919  32.103  0.00  0.00     0.147 C 
ATOM     11  OCG L42 d1784      26.660  21.303  33.185  0.00  0.00    -0.642 OA
ATOM     12  OBO L42 d1784      27.785  19.468  29.074  0.00  0.00    -0.348 OA
ATOM     13  OCH L42 d1784      27.964  20.521  31.041  0.00  0.00    -0.311 OA
ATOM     14  CCC L42 d1784      30.110  20.993  32.059  0.00  0.00    -0.034 C 
ATOM     15  OBQ L42 d1784      24.491  16.879  28.886  0.00  0.00    -0.349 OA
ATOM     16  OBV L42 d1784      25.112  20.704  25.732  0.00  0.00    -0.572 OA
ATOM     17  CBX L42 d1784      28.669  19.680  30.128  0.00  0.00     0.165 C 
ATOM     18  CCE L42 d1784      27.911  21.274  33.352  0.00  0.00     0.233 C 
ATOM     19  OCF L42 d1784      28.522  21.592  34.403  0.00  0.00    -0.642 OA
ATOM     20  CBE L42 d1784      25.816  16.183  29.104  0.00  0.00     0.151 C 
ATOM     21  OBT L42 d1784      23.862  21.314  27.627  0.00  0.00    -0.572 OA
ATOM     22  OBZ L42 d1784      30.592  19.824  28.567  0.00  0.00    -0.388 OA
ATOM     23  CBH L42 d1784      25.552  19.112  29.016  0.00  0.00     0.114 C 
ATOM     24  CBK L42 d1784      29.357  16.638  28.186  0.00  0.00     0.214 C 
ATOM     25  CBJ L42 d1784      23.203  19.135  29.630  0.00  0.00     0.043 C 
ATOM     26  CBF L42 d1784      26.995  17.084  28.650  0.00  0.00     0.087 C 
ATOM     27  OBP L42 d1784      25.326  19.323  27.579  0.00  0.00    -0.246 OA
ATOM     28  OCB L42 d1784      31.775  21.627  30.441  0.00  0.00    -0.389 OA
ATOM     29  CBG L42 d1784      26.859  18.472  29.363  0.00  0.00     0.094 C 
ATOM     30  NBN L42 d1784      28.326  16.652  29.049  0.00  0.00    -0.349 N 
ATOM     31  H   L42 d1784      31.412  19.667  30.989  0.00  0.00     0.093 H 
ATOM     32  H   L42 d1784      31.468  16.353  28.079  0.00  0.00     0.040 H 
ATOM     33  H   L42 d1784      30.677  15.382  29.298  0.00  0.00     0.040 H 
ATOM     34  H   L42 d1784      30.922  17.092  29.564  0.00  0.00     0.040 H 
ATOM     35  H   L42 d1784      25.092  14.379  28.830  0.00  0.00     0.212 HD
ATOM     36  H   L42 d1784      24.573  17.765  30.561  0.00  0.00     0.090 H 
ATOM     37  H   L42 d1784      29.593  21.405  29.290  0.00  0.00     0.095 H 
ATOM     38  H   L42 d1784      21.545  18.837  28.809  0.00  0.00     0.209 HD
ATOM     39  H   L42 d1784      30.626  21.328  32.887  0.00  0.00     0.085 H 
ATOM     40  H   L42 d1784      28.986  18.752  30.557  0.00  0.00     0.134 H 
ATOM     41  H   L42 d1784      25.932  16.019  30.155  0.00  0.00     0.132 H 
ATOM     42  H   L42 d1784      30.912  18.953  28.848  0.00  0.00     0.210 HD
ATOM     43  H   L42 d1784      25.534  20.097  29.436  0.00  0.00     0.093 H 
ATOM     44  H   L42 d1784      23.396  20.091  29.192  0.00  0.00     0.078 H 
ATOM     45  H   L42 d1784      22.844  19.397  30.604  0.00  0.00     0.078 H 
ATOM     46  H   L42 d1784      26.924  17.076  27.582  0.00  0.00     0.084 H 
ATOM     47  H   L42 d1784      31.267  22.436  30.274  0.00  0.00     0.210 HD
ATOM     48  H   L42 d1784      26.995  18.177  30.382  0.00  0.00     0.091 H 
ATOM     49  H   L42 d1784      28.476  16.360  29.978  0.00  0.00     0.163 HD
ENDROOT
TORSDOF 12
ENDMDL
MODEL 5
REMARK VINA RESULT:      -8.9      2.613      4.275
REMARK  0 active torsions:
REMARK  status: ('A' for Active; 'I' for Inactive)
REMARK       I    between atoms: CCA_2  and  OCB_28 
REMARK       I    between atoms: CBL_3  and  CBK_24 
REMARK       I    between atoms: OBM_4  and  CBE_20 
REMARK       I    between atoms: CBI_5  and  CBJ_25 
REMARK       I    between atoms: CBY_7  and  OBZ_22 
REMARK       I    between atoms: SBW_8  and  OBP_27 
REMARK       I    between atoms: OBR_9  and  CBJ_25 
REMARK       I    between atoms: CCD_10  and  CCE_18 
REMARK       I    between atoms: OBO_12  and  CBG_29 
REMARK       I    between atoms: OBO_12  and  CBX_17 
REMARK       I    between atoms: CBH_23  and  OBP_27 
REMARK       I    between atoms: CBK_24  and  NBN_30 
REMARK       I    between atoms: CBF_26  and  NBN_30 
ROOT
ATOM      1  OBS L42 d1784      31.760  20.368  32.759  0.00  0.00    -0.274 OA
ATOM      2  CCA L42 d1784      29.754  19.663  27.553  0.00  0.00     0.084 C 
ATOM      3  CBL L42 d1784      32.379  21.687  30.850  0.00  0.00    -0.003 C 
ATOM      4  OBM L42 d1784      29.349  23.299  34.594  0.00  0.00    -0.369 OA
ATOM      5  CBI L42 d1784      26.299  21.669  33.258  0.00  0.00     0.090 C 
ATOM      6  OBU L42 d1784      26.787  17.568  31.911  0.00  0.00    -0.572 OA
ATOM      7  CBY L42 d1784      29.505  19.177  28.960  0.00  0.00     0.111 C 
ATOM      8  SBW L42 d1784      26.558  18.082  33.332  0.00  0.00     0.252 S 
ATOM      9  OBR L42 d1784      24.828  21.368  34.850  0.00  0.00    -0.398 OA
ATOM     10  CCD L42 d1784      27.359  20.547  27.828  0.00  0.00     0.147 C 
ATOM     11  OCG L42 d1784      25.137  21.233  28.153  0.00  0.00    -0.642 OA
ATOM     12  OBO L42 d1784      28.499  19.882  31.051  0.00  0.00    -0.348 OA
ATOM     13  OCH L42 d1784      27.375  20.290  29.160  0.00  0.00    -0.311 OA
ATOM     14  CCC L42 d1784      28.448  20.258  26.990  0.00  0.00    -0.034 C 
ATOM     15  OBQ L42 d1784      27.195  22.219  34.280  0.00  0.00    -0.349 OA
ATOM     16  OBV L42 d1784      27.110  17.224  34.344  0.00  0.00    -0.572 OA
ATOM     17  CBX L42 d1784      28.686  20.255  29.723  0.00  0.00     0.165 C 
ATOM     18  CCE L42 d1784      26.073  21.178  27.308  0.00  0.00     0.233 C 
ATOM     19  OCF L42 d1784      25.995  21.508  26.098  0.00  0.00    -0.642 OA
ATOM     20  CBE L42 d1784      28.486  22.695  33.651  0.00  0.00     0.151 C 
ATOM     21  OBT L42 d1784      25.093  18.133  33.548  0.00  0.00    -0.572 OA
ATOM     22  OBZ L42 d1784      30.746  18.882  29.563  0.00  0.00    -0.388 OA
ATOM     23  CBH L42 d1784      26.927  20.442  32.577  0.00  0.00     0.114 C 
ATOM     24  CBK L42 d1784      31.426  21.254  31.957  0.00  0.00     0.214 C 
ATOM     25  CBJ L42 d1784      24.821  21.154  33.555  0.00  0.00     0.043 C 
ATOM     26  CBF L42 d1784      29.168  21.550  32.856  0.00  0.00     0.087 C 
ATOM     27  OBP L42 d1784      27.210  19.410  33.584  0.00  0.00    -0.246 OA
ATOM     28  OCB L42 d1784      30.095  18.513  26.805  0.00  0.00    -0.389 OA
ATOM     29  CBG L42 d1784      28.126  20.959  31.848  0.00  0.00     0.094 C 
ATOM     30  NBN L42 d1784      30.268  21.937  31.985  0.00  0.00    -0.349 N 
ATOM     31  H   L42 d1784      30.522  20.408  27.516  0.00  0.00     0.093 H 
ATOM     32  H   L42 d1784      33.270  21.097  30.897  0.00  0.00     0.040 H 
ATOM     33  H   L42 d1784      32.628  22.720  30.977  0.00  0.00     0.040 H 
ATOM     34  H   L42 d1784      31.909  21.547  29.899  0.00  0.00     0.040 H 
ATOM     35  H   L42 d1784      28.874  24.005  35.061  0.00  0.00     0.212 HD
ATOM     36  H   L42 d1784      26.187  22.585  32.717  0.00  0.00     0.090 H 
ATOM     37  H   L42 d1784      28.927  18.277  28.977  0.00  0.00     0.095 H 
ATOM     38  H   L42 d1784      23.973  21.105  35.225  0.00  0.00     0.209 HD
ATOM     39  H   L42 d1784      28.373  20.448  25.979  0.00  0.00     0.085 H 
ATOM     40  H   L42 d1784      29.208  21.187  29.655  0.00  0.00     0.134 H 
ATOM     41  H   L42 d1784      28.245  23.464  32.948  0.00  0.00     0.132 H 
ATOM     42  H   L42 d1784      31.301  19.678  29.567  0.00  0.00     0.210 HD
ATOM     43  H   L42 d1784      26.283  19.958  31.873  0.00  0.00     0.093 H 
ATOM     44  H   L42 d1784      24.692  20.120  33.314  0.00  0.00     0.078 H 
ATOM     45  H   L42 d1784      24.033  21.618  32.999  0.00  0.00     0.078 H 
ATOM     46  H   L42 d1784      29.534  20.894  33.619  0.00  0.00     0.084 H 
ATOM     47  H   L42 d1784      29.377  17.865  26.864  0.00  0.00     0.210 HD
ATOM     48  H   L42 d1784      27.975  21.806  31.212  0.00  0.00     0.091 H 
ATOM     49  H   L42 d1784      30.161  22.722  31.401  0.00  0.00     0.163 HD
ENDROOT
TORSDOF 12
ENDMDL
MODEL 6
REMARK VINA RESULT:      -8.9      2.845      5.658
REMARK  0 active torsions:
REMARK  status: ('A' for Active; 'I' for Inactive)
REMARK       I    between atoms: CCA_2  and  OCB_28 
REMARK       I    between atoms: CBL_3  and  CBK_24 
REMARK       I    between atoms: OBM_4  and  CBE_20 
REMARK       I    between atoms: CBI_5  and  CBJ_25 
REMARK       I    between atoms: CBY_7  and  OBZ_22 
REMARK       I    between atoms: SBW_8  and  OBP_27 
REMARK       I    between atoms: OBR_9  and  CBJ_25 
REMARK       I    between atoms: CCD_10  and  CCE_18 
REMARK       I    between atoms: OBO_12  and  CBG_29 
REMARK       I    between atoms: OBO_12  and  CBX_17 
REMARK       I    between atoms: CBH_23  and  OBP_27 
REMARK       I    between atoms: CBK_24  and  NBN_30 
REMARK       I    between atoms: CBF_26  and  NBN_30 
ROOT
ATOM      1  OBS L42 d1784      29.801  20.979  35.084  0.00  0.00    -0.274 OA
ATOM      2  CCA L42 d1784      31.143  20.009  29.710  0.00  0.00     0.084 C 
ATOM      3  CBL L42 d1784      31.065  22.467  33.686  0.00  0.00    -0.003 C 
ATOM      4  OBM L42 d1784      26.231  23.221  35.050  0.00  0.00    -0.369 OA
ATOM      5  CBI L42 d1784      24.817  20.984  32.454  0.00  0.00     0.090 C 
ATOM      6  OBU L42 d1784      26.802  17.150  31.981  0.00  0.00    -0.572 OA
ATOM      7  CBY L42 d1784      30.278  19.433  30.805  0.00  0.00     0.111 C 
ATOM      8  SBW L42 d1784      25.737  17.551  33.002  0.00  0.00     0.252 S 
ATOM      9  OBR L42 d1784      22.818  20.304  33.031  0.00  0.00    -0.398 OA
ATOM     10  CCD L42 d1784      28.861  20.314  28.573  0.00  0.00     0.147 C 
ATOM     11  OCG L42 d1784      26.734  20.465  27.590  0.00  0.00    -0.642 OA
ATOM     12  OBO L42 d1784      28.178  19.820  31.953  0.00  0.00    -0.348 OA
ATOM     13  OCH L42 d1784      28.204  20.024  29.724  0.00  0.00    -0.311 OA
ATOM     14  CCC L42 d1784      30.262  20.310  28.481  0.00  0.00    -0.034 C 
ATOM     15  OBQ L42 d1784      24.876  21.691  33.739  0.00  0.00    -0.349 OA
ATOM     16  OBV L42 d1784      25.815  16.808  34.230  0.00  0.00    -0.572 OA
ATOM     17  CBX L42 d1784      28.972  20.270  30.902  0.00  0.00     0.165 C 
ATOM     18  CCE L42 d1784      27.965  20.653  27.388  0.00  0.00     0.233 C 
ATOM     19  OCF L42 d1784      28.490  20.996  26.299  0.00  0.00    -0.642 OA
ATOM     20  CBE L42 d1784      26.168  22.468  33.856  0.00  0.00     0.151 C 
ATOM     21  OBT L42 d1784      24.417  17.259  32.394  0.00  0.00    -0.572 OA
ATOM     22  OBZ L42 d1784      31.022  19.409  32.003  0.00  0.00    -0.388 OA
ATOM     23  CBH L42 d1784      25.953  19.956  32.337  0.00  0.00     0.114 C 
ATOM     24  CBK L42 d1784      29.780  21.792  34.146  0.00  0.00     0.214 C 
ATOM     25  CBJ L42 d1784      23.561  20.136  31.962  0.00  0.00     0.043 C 
ATOM     26  CBF L42 d1784      27.393  21.536  33.664  0.00  0.00     0.087 C 
ATOM     27  OBP L42 d1784      25.852  18.983  33.434  0.00  0.00    -0.246 OA
ATOM     28  OCB L42 d1784      32.067  18.994  29.376  0.00  0.00    -0.389 OA
ATOM     29  CBG L42 d1784      27.216  20.757  32.318  0.00  0.00     0.094 C 
ATOM     30  NBN L42 d1784      28.680  22.192  33.485  0.00  0.00    -0.349 N 
ATOM     31  H   L42 d1784      31.632  20.910  30.018  0.00  0.00     0.093 H 
ATOM     32  H   L42 d1784      31.888  22.095  34.259  0.00  0.00     0.040 H 
ATOM     33  H   L42 d1784      30.983  23.525  33.825  0.00  0.00     0.040 H 
ATOM     34  H   L42 d1784      31.229  22.256  32.650  0.00  0.00     0.040 H 
ATOM     35  H   L42 d1784      25.444  23.785  35.120  0.00  0.00     0.212 HD
ATOM     36  H   L42 d1784      24.828  21.869  31.851  0.00  0.00     0.090 H 
ATOM     37  H   L42 d1784      29.987  18.425  30.596  0.00  0.00     0.095 H 
ATOM     38  H   L42 d1784      21.975  19.840  32.915  0.00  0.00     0.209 HD
ATOM     39  H   L42 d1784      30.710  20.511  27.574  0.00  0.00     0.085 H 
ATOM     40  H   L42 d1784      29.239  21.298  31.034  0.00  0.00     0.134 H 
ATOM     41  H   L42 d1784      26.192  23.185  33.062  0.00  0.00     0.132 H 
ATOM     42  H   L42 d1784      31.305  20.309  32.226  0.00  0.00     0.210 HD
ATOM     43  H   L42 d1784      25.914  19.362  31.449  0.00  0.00     0.093 H 
ATOM     44  H   L42 d1784      23.803  19.109  31.791  0.00  0.00     0.078 H 
ATOM     45  H   L42 d1784      23.124  20.428  31.029  0.00  0.00     0.078 H 
ATOM     46  H   L42 d1784      27.413  20.955  34.563  0.00  0.00     0.084 H 
ATOM     47  H   L42 d1784      31.586  18.196  29.103  0.00  0.00     0.210 HD
ATOM     48  H   L42 d1784      27.262  21.568  31.621  0.00  0.00     0.091 H 
ATOM     49  H   L42 d1784      28.746  22.951  32.861  0.00  0.00     0.163 HD
ENDROOT
TORSDOF 12
ENDMDL
MODEL 7
REMARK VINA RESULT:      -8.8      2.456      6.903
REMARK  0 active torsions:
REMARK  status: ('A' for Active; 'I' for Inactive)
REMARK       I    between atoms: CCA_2  and  OCB_28 
REMARK       I    between atoms: CBL_3  and  CBK_24 
REMARK       I    between atoms: OBM_4  and  CBE_20 
REMARK       I    between atoms: CBI_5  and  CBJ_25 
REMARK       I    between atoms: CBY_7  and  OBZ_22 
REMARK       I    between atoms: SBW_8  and  OBP_27 
REMARK       I    between atoms: OBR_9  and  CBJ_25 
REMARK       I    between atoms: CCD_10  and  CCE_18 
REMARK       I    between atoms: OBO_12  and  CBG_29 
REMARK       I    between atoms: OBO_12  and  CBX_17 
REMARK       I    between atoms: CBH_23  and  OBP_27 
REMARK       I    between atoms: CBK_24  and  NBN_30 
REMARK       I    between atoms: CBF_26  and  NBN_30 
ROOT
ATOM      1  OBS L42 d1784      23.888  22.680  32.217  0.00  0.00    -0.274 OA
ATOM      2  CCA L42 d1784      29.303  22.911  33.716  0.00  0.00     0.084 C 
ATOM      3  CBL L42 d1784      25.325  24.580  31.914  0.00  0.00    -0.003 C 
ATOM      4  OBM L42 d1784      23.805  21.503  28.170  0.00  0.00    -0.369 OA
ATOM      5  CBI L42 d1784      26.356  18.899  28.845  0.00  0.00     0.090 C 
ATOM      6  OBU L42 d1784      26.895  17.822  33.019  0.00  0.00    -0.572 OA
ATOM      7  CBY L42 d1784      28.182  21.908  33.595  0.00  0.00     0.111 C 
ATOM      8  SBW L42 d1784      25.840  17.317  32.034  0.00  0.00     0.252 S 
ATOM      9  OBR L42 d1784      25.714  16.968  28.039  0.00  0.00    -0.398 OA
ATOM     10  CCD L42 d1784      30.366  21.382  31.947  0.00  0.00     0.147 C 
ATOM     11  OCG L42 d1784      31.279  19.870  30.399  0.00  0.00    -0.642 OA
ATOM     12  OBO L42 d1784      26.966  20.624  31.936  0.00  0.00    -0.348 OA
ATOM     13  OCH L42 d1784      29.194  20.726  31.753  0.00  0.00    -0.311 OA
ATOM     14  CCC L42 d1784      30.503  22.423  32.878  0.00  0.00    -0.034 C 
ATOM     15  OBQ L42 d1784      25.073  19.442  28.385  0.00  0.00    -0.349 OA
ATOM     16  OBV L42 d1784      24.616  16.911  32.668  0.00  0.00    -0.572 OA
ATOM     17  CBX L42 d1784      28.042  21.491  32.105  0.00  0.00     0.165 C 
ATOM     18  CCE L42 d1784      31.521  20.910  31.073  0.00  0.00     0.233 C 
ATOM     19  OCF L42 d1784      32.627  21.504  31.141  0.00  0.00    -0.642 OA
ATOM     20  CBE L42 d1784      24.998  20.927  28.665  0.00  0.00     0.151 C 
ATOM     21  OBT L42 d1784      26.405  16.124  31.362  0.00  0.00    -0.572 OA
ATOM     22  OBZ L42 d1784      27.008  22.476  34.134  0.00  0.00    -0.388 OA
ATOM     23  CBH L42 d1784      26.510  19.062  30.366  0.00  0.00     0.114 C 
ATOM     24  CBK L42 d1784      24.824  23.182  31.575  0.00  0.00     0.214 C 
ATOM     25  CBJ L42 d1784      26.807  17.386  28.634  0.00  0.00     0.043 C 
ATOM     26  CBF L42 d1784      25.229  21.218  30.171  0.00  0.00     0.087 C 
ATOM     27  OBP L42 d1784      25.411  18.365  31.050  0.00  0.00    -0.246 OA
ATOM     28  OCB L42 d1784      29.668  22.918  35.081  0.00  0.00    -0.389 OA
ATOM     29  CBG L42 d1784      26.570  20.537  30.606  0.00  0.00     0.094 C 
ATOM     30  NBN L42 d1784      25.450  22.611  30.531  0.00  0.00    -0.349 N 
ATOM     31  H   L42 d1784      29.011  23.882  33.374  0.00  0.00     0.093 H 
ATOM     32  H   L42 d1784      24.779  24.961  32.752  0.00  0.00     0.040 H 
ATOM     33  H   L42 d1784      25.183  25.225  31.072  0.00  0.00     0.040 H 
ATOM     34  H   L42 d1784      26.366  24.537  32.158  0.00  0.00     0.040 H 
ATOM     35  H   L42 d1784      23.710  21.292  27.228  0.00  0.00     0.212 HD
ATOM     36  H   L42 d1784      26.958  19.481  28.179  0.00  0.00     0.090 H 
ATOM     37  H   L42 d1784      28.382  21.015  34.151  0.00  0.00     0.095 H 
ATOM     38  H   L42 d1784      25.804  16.027  27.823  0.00  0.00     0.209 HD
ATOM     39  H   L42 d1784      31.424  22.871  33.006  0.00  0.00     0.085 H 
ATOM     40  H   L42 d1784      27.918  22.376  31.517  0.00  0.00     0.134 H 
ATOM     41  H   L42 d1784      25.791  21.403  28.128  0.00  0.00     0.132 H 
ATOM     42  H   L42 d1784      26.794  23.291  33.654  0.00  0.00     0.210 HD
ATOM     43  H   L42 d1784      27.397  18.616  30.764  0.00  0.00     0.093 H 
ATOM     44  H   L42 d1784      26.987  16.880  29.559  0.00  0.00     0.078 H 
ATOM     45  H   L42 d1784      27.726  17.231  28.106  0.00  0.00     0.078 H 
ATOM     46  H   L42 d1784      24.331  20.869  30.638  0.00  0.00     0.084 H 
ATOM     47  H   L42 d1784      29.925  22.022  35.351  0.00  0.00     0.210 HD
ATOM     48  H   L42 d1784      27.267  21.093  30.015  0.00  0.00     0.091 H 
ATOM     49  H   L42 d1784      26.074  23.150  29.994  0.00  0.00     0.163 HD
ENDROOT
TORSDOF 12
ENDMDL
MODEL 8
REMARK VINA RESULT:      -8.7      2.448      6.956
REMARK  0 active torsions:
REMARK  status: ('A' for Active; 'I' for Inactive)
REMARK       I    between atoms: CCA_2  and  OCB_28 
REMARK       I    between atoms: CBL_3  and  CBK_24 
REMARK       I    between atoms: OBM_4  and  CBE_20 
REMARK       I    between atoms: CBI_5  and  CBJ_25 
REMARK       I    between atoms: CBY_7  and  OBZ_22 
REMARK       I    between atoms: SBW_8  and  OBP_27 
REMARK       I    between atoms: OBR_9  and  CBJ_25 
REMARK       I    between atoms: CCD_10  and  CCE_18 
REMARK       I    between atoms: OBO_12  and  CBG_29 
REMARK       I    between atoms: OBO_12  and  CBX_17 
REMARK       I    between atoms: CBH_23  and  OBP_27 
REMARK       I    between atoms: CBK_24  and  NBN_30 
REMARK       I    between atoms: CBF_26  and  NBN_30 
ROOT
ATOM      1  OBS L42 d1784      24.498  22.454  33.083  0.00  0.00    -0.274 OA
ATOM      2  CCA L42 d1784      30.063  21.939  32.470  0.00  0.00     0.084 C 
ATOM      3  CBL L42 d1784      25.994  24.240  32.501  0.00  0.00    -0.003 C 
ATOM      4  OBM L42 d1784      22.812  21.982  29.248  0.00  0.00    -0.369 OA
ATOM      5  CBI L42 d1784      25.028  19.081  28.600  0.00  0.00     0.090 C 
ATOM      6  OBU L42 d1784      26.851  17.278  32.106  0.00  0.00    -0.572 OA
ATOM      7  CBY L42 d1784      28.839  21.076  32.655  0.00  0.00     0.111 C 
ATOM      8  SBW L42 d1784      25.454  17.042  31.532  0.00  0.00     0.252 S 
ATOM      9  OBR L42 d1784      23.868  17.378  27.862  0.00  0.00    -0.398 OA
ATOM     10  CCD L42 d1784      30.194  20.638  30.260  0.00  0.00     0.147 C 
ATOM     11  OCG L42 d1784      30.268  19.329  28.311  0.00  0.00    -0.642 OA
ATOM     12  OBO L42 d1784      26.941  20.203  31.426  0.00  0.00    -0.348 OA
ATOM     13  OCH L42 d1784      28.947  20.132  30.438  0.00  0.00    -0.311 OA
ATOM     14  CCC L42 d1784      30.803  21.492  31.193  0.00  0.00    -0.034 C 
ATOM     15  OBQ L42 d1784      23.759  19.808  28.721  0.00  0.00    -0.349 OA
ATOM     16  OBV L42 d1784      24.490  16.649  32.522  0.00  0.00    -0.572 OA
ATOM     17  CBX L42 d1784      28.120  20.929  31.285  0.00  0.00     0.165 C 
ATOM     18  CCE L42 d1784      30.882  20.216  28.968  0.00  0.00     0.233 C 
ATOM     19  OCF L42 d1784      32.013  20.688  28.690  0.00  0.00    -0.642 OA
ATOM     20  CBE L42 d1784      24.005  21.226  29.188  0.00  0.00     0.151 C 
ATOM     21  OBT L42 d1784      25.563  15.932  30.557  0.00  0.00    -0.572 OA
ATOM     22  OBZ L42 d1784      28.030  21.650  33.658  0.00  0.00    -0.388 OA
ATOM     23  CBH L42 d1784      25.734  18.973  29.961  0.00  0.00     0.114 C 
ATOM     24  CBK L42 d1784      25.207  22.969  32.205  0.00  0.00     0.214 C 
ATOM     25  CBJ L42 d1784      25.150  17.590  28.052  0.00  0.00     0.043 C 
ATOM     26  CBF L42 d1784      24.796  21.239  30.523  0.00  0.00     0.087 C 
ATOM     27  OBP L42 d1784      24.861  18.275  30.915  0.00  0.00    -0.246 OA
ATOM     28  OCB L42 d1784      30.886  21.685  33.590  0.00  0.00    -0.389 OA
ATOM     29  CBG L42 d1784      26.090  20.376  30.340  0.00  0.00     0.094 C 
ATOM     30  NBN L42 d1784      25.331  22.526  30.942  0.00  0.00    -0.349 N 
ATOM     31  H   L42 d1784      29.814  22.977  32.383  0.00  0.00     0.093 H 
ATOM     32  H   L42 d1784      25.842  24.523  33.521  0.00  0.00     0.040 H 
ATOM     33  H   L42 d1784      25.657  25.026  31.858  0.00  0.00     0.040 H 
ATOM     34  H   L42 d1784      27.035  24.063  32.331  0.00  0.00     0.040 H 
ATOM     35  H   L42 d1784      22.359  21.940  28.392  0.00  0.00     0.212 HD
ATOM     36  H   L42 d1784      25.432  19.709  27.833  0.00  0.00     0.090 H 
ATOM     37  H   L42 d1784      29.092  20.089  32.983  0.00  0.00     0.095 H 
ATOM     38  H   L42 d1784      23.737  16.482  27.514  0.00  0.00     0.209 HD
ATOM     39  H   L42 d1784      31.764  21.827  31.021  0.00  0.00     0.085 H 
ATOM     40  H   L42 d1784      27.925  21.908  30.899  0.00  0.00     0.134 H 
ATOM     41  H   L42 d1784      24.617  21.711  28.456  0.00  0.00     0.132 H 
ATOM     42  H   L42 d1784      27.780  22.550  33.396  0.00  0.00     0.210 HD
ATOM     43  H   L42 d1784      26.630  18.388  29.942  0.00  0.00     0.093 H 
ATOM     44  H   L42 d1784      25.571  16.923  28.774  0.00  0.00     0.078 H 
ATOM     45  H   L42 d1784      25.788  17.443  27.205  0.00  0.00     0.078 H 
ATOM     46  H   L42 d1784      24.082  20.899  31.244  0.00  0.00     0.084 H 
ATOM     47  H   L42 d1784      31.090  20.738  33.633  0.00  0.00     0.210 HD
ATOM     48  H   L42 d1784      26.605  20.958  29.604  0.00  0.00     0.091 H 
ATOM     49  H   L42 d1784      25.795  23.089  30.281  0.00  0.00     0.163 HD
ENDROOT
TORSDOF 12
ENDMDL
MODEL 9
REMARK VINA RESULT:      -8.6      1.658      2.492
REMARK  0 active torsions:
REMARK  status: ('A' for Active; 'I' for Inactive)
REMARK       I    between atoms: CCA_2  and  OCB_28 
REMARK       I    between atoms: CBL_3  and  CBK_24 
REMARK       I    between atoms: OBM_4  and  CBE_20 
REMARK       I    between atoms: CBI_5  and  CBJ_25 
REMARK       I    between atoms: CBY_7  and  OBZ_22 
REMARK       I    between atoms: SBW_8  and  OBP_27 
REMARK       I    between atoms: OBR_9  and  CBJ_25 
REMARK       I    between atoms: CCD_10  and  CCE_18 
REMARK       I    between atoms: OBO_12  and  CBG_29 
REMARK       I    between atoms: OBO_12  and  CBX_17 
REMARK       I    between atoms: CBH_23  and  OBP_27 
REMARK       I    between atoms: CBK_24  and  NBN_30 
REMARK       I    between atoms: CBF_26  and  NBN_30 
ROOT
ATOM      1  OBS L42 d1784      27.489  15.259  29.920  0.00  0.00    -0.274 OA
ATOM      2  CCA L42 d1784      22.884  18.452  29.460  0.00  0.00     0.084 C 
ATOM      3  CBL L42 d1784      26.207  15.551  27.911  0.00  0.00    -0.003 C 
ATOM      4  OBM L42 d1784      30.747  17.666  28.752  0.00  0.00    -0.369 OA
ATOM      5  CBI L42 d1784      29.416  20.488  30.753  0.00  0.00     0.090 C 
ATOM      6  OBU L42 d1784      26.455  19.443  33.754  0.00  0.00    -0.572 OA
ATOM      7  CBY L42 d1784      23.991  18.160  30.443  0.00  0.00     0.111 C 
ATOM      8  SBW L42 d1784      27.979  19.368  33.854  0.00  0.00     0.252 S 
ATOM      9  OBR L42 d1784      30.978  21.321  32.041  0.00  0.00    -0.398 OA
ATOM     10  CCD L42 d1784      23.907  20.805  29.568  0.00  0.00     0.147 C 
ATOM     11  OCG L42 d1784      24.864  22.935  29.810  0.00  0.00    -0.642 OA
ATOM     12  OBO L42 d1784      26.328  18.658  30.857  0.00  0.00    -0.348 OA
ATOM     13  OCH L42 d1784      24.994  20.344  30.236  0.00  0.00    -0.311 OA
ATOM     14  CCC L42 d1784      22.848  19.968  29.179  0.00  0.00    -0.034 C 
ATOM     15  OBQ L42 d1784      30.402  19.494  30.314  0.00  0.00    -0.349 OA
ATOM     16  OBV L42 d1784      28.441  18.360  34.767  0.00  0.00    -0.572 OA
ATOM     17  CBX L42 d1784      25.256  18.958  30.021  0.00  0.00     0.165 C 
ATOM     18  CCE L42 d1784      23.921  22.297  29.265  0.00  0.00     0.233 C 
ATOM     19  OCF L42 d1784      22.984  22.798  28.593  0.00  0.00    -0.642 OA
ATOM     20  CBE L42 d1784      29.806  18.593  29.255  0.00  0.00     0.151 C 
ATOM     21  OBT L42 d1784      28.448  20.676  34.368  0.00  0.00    -0.572 OA
ATOM     22  OBZ L42 d1784      24.195  16.765  30.493  0.00  0.00    -0.388 OA
ATOM     23  CBH L42 d1784      28.197  19.809  31.398  0.00  0.00     0.114 C 
ATOM     24  CBK L42 d1784      27.189  16.012  28.980  0.00  0.00     0.214 C 
ATOM     25  CBJ L42 d1784      29.731  21.650  31.798  0.00  0.00     0.043 C 
ATOM     26  CBF L42 d1784      28.509  17.916  29.771  0.00  0.00     0.087 C 
ATOM     27  OBP L42 d1784      28.631  19.009  32.552  0.00  0.00    -0.246 OA
ATOM     28  OCB L42 d1784      21.685  18.076  30.108  0.00  0.00    -0.389 OA
ATOM     29  CBG L42 d1784      27.545  19.032  30.299  0.00  0.00     0.094 C 
ATOM     30  NBN L42 d1784      27.694  17.240  28.772  0.00  0.00    -0.349 N 
ATOM     31  H   L42 d1784      23.020  17.929  28.536  0.00  0.00     0.093 H 
ATOM     32  H   L42 d1784      25.853  14.570  28.150  0.00  0.00     0.040 H 
ATOM     33  H   L42 d1784      26.697  15.531  26.960  0.00  0.00     0.040 H 
ATOM     34  H   L42 d1784      25.379  16.228  27.870  0.00  0.00     0.040 H 
ATOM     35  H   L42 d1784      31.536  18.140  28.444  0.00  0.00     0.212 HD
ATOM     36  H   L42 d1784      29.324  20.968  29.801  0.00  0.00     0.090 H 
ATOM     37  H   L42 d1784      23.740  18.476  31.434  0.00  0.00     0.095 H 
ATOM     38  H   L42 d1784      31.356  21.942  32.683  0.00  0.00     0.209 HD
ATOM     39  H   L42 d1784      22.032  20.374  28.697  0.00  0.00     0.085 H 
ATOM     40  H   L42 d1784      25.484  18.717  29.003  0.00  0.00     0.134 H 
ATOM     41  H   L42 d1784      29.531  19.204  28.421  0.00  0.00     0.132 H 
ATOM     42  H   L42 d1784      24.426  16.440  29.609  0.00  0.00     0.210 HD
ATOM     43  H   L42 d1784      27.481  20.493  31.802  0.00  0.00     0.093 H 
ATOM     44  H   L42 d1784      29.116  21.591  32.671  0.00  0.00     0.078 H 
ATOM     45  H   L42 d1784      29.558  22.652  31.463  0.00  0.00     0.078 H 
ATOM     46  H   L42 d1784      28.862  17.200  30.484  0.00  0.00     0.084 H 
ATOM     47  H   L42 d1784      21.599  18.570  30.939  0.00  0.00     0.210 HD
ATOM     48  H   L42 d1784      27.346  19.558  29.389  0.00  0.00     0.091 H 
ATOM     49  H   L42 d1784      27.508  17.696  27.919  0.00  0.00     0.163 HD
ENDROOT
TORSDOF 12
ENDMDL
MODEL 10
REMARK VINA RESULT:      -8.6      2.824      6.854
REMARK  0 active torsions:
REMARK  status: ('A' for Active; 'I' for Inactive)
REMARK       I    between atoms: CCA_2  and  OCB_28 
REMARK       I    between atoms: CBL_3  and  CBK_24 
REMARK       I    between atoms: OBM_4  and  CBE_20 
REMARK       I    between atoms: CBI_5  and  CBJ_25 
REMARK       I    between atoms: CBY_7  and  OBZ_22 
REMARK       I    between atoms: SBW_8  and  OBP_27 
REMARK       I    between atoms: OBR_9  and  CBJ_25 
REMARK       I    between atoms: CCD_10  and  CCE_18 
REMARK       I    between atoms: OBO_12  and  CBG_29 
REMARK       I    between atoms: OBO_12  and  CBX_17 
REMARK       I    between atoms: CBH_23  and  OBP_27 
REMARK       I    between atoms: CBK_24  and  NBN_30 
REMARK       I    between atoms: CBF_26  and  NBN_30 
ROOT
ATOM      1  OBS L42 d1784      24.937  21.028  34.510  0.00  0.00    -0.274 OA
ATOM      2  CCA L42 d1784      30.463  20.055  34.134  0.00  0.00     0.084 C 
ATOM      3  CBL L42 d1784      26.652  22.421  35.452  0.00  0.00    -0.003 C 
ATOM      4  OBM L42 d1784      23.945  23.598  31.318  0.00  0.00    -0.369 OA
ATOM      5  CBI L42 d1784      26.004  21.563  29.002  0.00  0.00     0.090 C 
ATOM      6  OBU L42 d1784      27.009  17.569  30.383  0.00  0.00    -0.572 OA
ATOM      7  CBY L42 d1784      29.161  19.540  33.572  0.00  0.00     0.111 C 
ATOM      8  SBW L42 d1784      25.725  18.046  29.704  0.00  0.00     0.252 S 
ATOM      9  OBR L42 d1784      24.866  21.062  27.201  0.00  0.00    -0.398 OA
ATOM     10  CCD L42 d1784      30.889  20.600  31.661  0.00  0.00     0.147 C 
ATOM     11  OCG L42 d1784      31.212  20.973  29.366  0.00  0.00    -0.642 OA
ATOM     12  OBO L42 d1784      27.454  20.098  31.943  0.00  0.00    -0.348 OA
ATOM     13  OCH L42 d1784      29.595  20.348  31.342  0.00  0.00    -0.311 OA
ATOM     14  CCC L42 d1784      31.385  20.465  32.968  0.00  0.00    -0.034 C 
ATOM     15  OBQ L42 d1784      24.796  22.232  29.499  0.00  0.00    -0.349 OA
ATOM     16  OBV L42 d1784      24.569  17.273  30.063  0.00  0.00    -0.572 OA
ATOM     17  CBX L42 d1784      28.693  20.494  32.439  0.00  0.00     0.165 C 
ATOM     18  CCE L42 d1784      31.765  21.048  30.498  0.00  0.00     0.233 C 
ATOM     19  OCF L42 d1784      32.961  21.364  30.714  0.00  0.00    -0.642 OA
ATOM     20  CBE L42 d1784      25.065  22.881  30.838  0.00  0.00     0.151 C 
ATOM     21  OBT L42 d1784      25.921  17.895  28.243  0.00  0.00    -0.572 OA
ATOM     22  OBZ L42 d1784      28.230  19.419  34.626  0.00  0.00    -0.388 OA
ATOM     23  CBH L42 d1784      26.440  20.435  29.950  0.00  0.00     0.114 C 
ATOM     24  CBK L42 d1784      25.834  21.861  34.296  0.00  0.00     0.214 C 
ATOM     25  CBJ L42 d1784      26.104  20.849  27.581  0.00  0.00     0.043 C 
ATOM     26  CBF L42 d1784      25.599  21.841  31.859  0.00  0.00     0.087 C 
ATOM     27  OBP L42 d1784      25.355  19.451  30.078  0.00  0.00    -0.246 OA
ATOM     28  OCB L42 d1784      31.045  18.965  34.819  0.00  0.00    -0.389 OA
ATOM     29  CBG L42 d1784      26.831  21.113  31.225  0.00  0.00     0.094 C 
ATOM     30  NBN L42 d1784      26.149  22.377  33.096  0.00  0.00    -0.349 N 
ATOM     31  H   L42 d1784      30.317  20.899  34.776  0.00  0.00     0.093 H 
ATOM     32  H   L42 d1784      26.341  21.960  36.365  0.00  0.00     0.040 H 
ATOM     33  H   L42 d1784      26.501  23.479  35.516  0.00  0.00     0.040 H 
ATOM     34  H   L42 d1784      27.690  22.218  35.286  0.00  0.00     0.040 H 
ATOM     35  H   L42 d1784      23.654  24.231  30.644  0.00  0.00     0.212 HD
ATOM     36  H   L42 d1784      26.589  22.456  28.923  0.00  0.00     0.090 H 
ATOM     37  H   L42 d1784      29.270  18.568  33.137  0.00  0.00     0.095 H 
ATOM     38  H   L42 d1784      24.729  20.683  26.318  0.00  0.00     0.209 HD
ATOM     39  H   L42 d1784      32.384  20.644  33.151  0.00  0.00     0.085 H 
ATOM     40  H   L42 d1784      28.651  21.489  32.830  0.00  0.00     0.134 H 
ATOM     41  H   L42 d1784      25.836  23.610  30.701  0.00  0.00     0.132 H 
ATOM     42  H   L42 d1784      28.105  20.283  35.048  0.00  0.00     0.210 HD
ATOM     43  H   L42 d1784      27.275  19.867  29.597  0.00  0.00     0.093 H 
ATOM     44  H   L42 d1784      26.332  19.807  27.663  0.00  0.00     0.078 H 
ATOM     45  H   L42 d1784      26.872  21.201  26.923  0.00  0.00     0.078 H 
ATOM     46  H   L42 d1784      24.741  21.242  32.083  0.00  0.00     0.084 H 
ATOM     47  H   L42 d1784      31.161  18.223  34.204  0.00  0.00     0.210 HD
ATOM     48  H   L42 d1784      27.516  21.931  31.145  0.00  0.00     0.091 H 
ATOM     49  H   L42 d1784      26.770  23.140  33.052  0.00  0.00     0.163 HD
ENDROOT
TORSDOF 12
ENDMDL
MODEL 11
REMARK VINA RESULT:      -8.6      2.721      6.969
REMARK  0 active torsions:
REMARK  status: ('A' for Active; 'I' for Inactive)
REMARK       I    between atoms: CCA_2  and  OCB_28 
REMARK       I    between atoms: CBL_3  and  CBK_24 
REMARK       I    between atoms: OBM_4  and  CBE_20 
REMARK       I    between atoms: CBI_5  and  CBJ_25 
REMARK       I    between atoms: CBY_7  and  OBZ_22 
REMARK       I    between atoms: SBW_8  and  OBP_27 
REMARK       I    between atoms: OBR_9  and  CBJ_25 
REMARK       I    between atoms: CCD_10  and  CCE_18 
REMARK       I    between atoms: OBO_12  and  CBG_29 
REMARK       I    between atoms: OBO_12  and  CBX_17 
REMARK       I    between atoms: CBH_23  and  OBP_27 
REMARK       I    between atoms: CBK_24  and  NBN_30 
REMARK       I    between atoms: CBF_26  and  NBN_30 
ROOT
ATOM      1  OBS L42 d1784      23.865  22.528  32.806  0.00  0.00    -0.274 OA
ATOM      2  CCA L42 d1784      28.742  22.374  35.600  0.00  0.00     0.084 C 
ATOM      3  CBL L42 d1784      25.325  24.405  33.139  0.00  0.00    -0.003 C 
ATOM      4  OBM L42 d1784      24.786  21.930  28.736  0.00  0.00    -0.369 OA
ATOM      5  CBI L42 d1784      27.101  19.177  29.635  0.00  0.00     0.090 C 
ATOM      6  OBU L42 d1784      26.598  17.512  33.615  0.00  0.00    -0.572 OA
ATOM      7  CBY L42 d1784      27.689  21.434  35.067  0.00  0.00     0.111 C 
ATOM      8  SBW L42 d1784      25.820  17.183  32.340  0.00  0.00     0.252 S 
ATOM      9  OBR L42 d1784      26.685  17.399  28.428  0.00  0.00    -0.398 OA
ATOM     10  CCD L42 d1784      30.214  21.074  33.945  0.00  0.00     0.147 C 
ATOM     11  OCG L42 d1784      31.486  19.765  32.468  0.00  0.00    -0.642 OA
ATOM     12  OBO L42 d1784      26.924  20.433  32.995  0.00  0.00    -0.348 OA
ATOM     13  OCH L42 d1784      29.128  20.489  33.378  0.00  0.00    -0.311 OA
ATOM     14  CCC L42 d1784      30.114  21.970  35.021  0.00  0.00    -0.034 C 
ATOM     15  OBQ L42 d1784      25.969  19.820  28.957  0.00  0.00    -0.349 OA
ATOM     16  OBV L42 d1784      24.480  16.732  32.591  0.00  0.00    -0.572 OA
ATOM     17  CBX L42 d1784      27.922  21.234  33.544  0.00  0.00     0.165 C 
ATOM     18  CCE L42 d1784      31.550  20.692  33.322  0.00  0.00     0.233 C 
ATOM     19  OCF L42 d1784      32.603  21.235  33.742  0.00  0.00    -0.642 OA
ATOM     20  CBE L42 d1784      25.822  21.253  29.420  0.00  0.00     0.151 C 
ATOM     21  OBT L42 d1784      26.538  16.078  31.663  0.00  0.00    -0.572 OA
ATOM     22  OBZ L42 d1784      26.417  21.958  35.378  0.00  0.00    -0.388 OA
ATOM     23  CBH L42 d1784      26.875  19.121  31.154  0.00  0.00     0.114 C 
ATOM     24  CBK L42 d1784      24.929  23.084  32.491  0.00  0.00     0.214 C 
ATOM     25  CBJ L42 d1784      27.596  17.695  29.326  0.00  0.00     0.043 C 
ATOM     26  CBF L42 d1784      25.674  21.324  30.963  0.00  0.00     0.087 C 
ATOM     27  OBP L42 d1784      25.644  18.372  31.442  0.00  0.00    -0.246 OA
ATOM     28  OCB L42 d1784      28.759  22.179  37.000  0.00  0.00    -0.389 OA
ATOM     29  CBG L42 d1784      26.868  20.545  31.610  0.00  0.00     0.094 C 
ATOM     30  NBN L42 d1784      25.794  22.645  31.561  0.00  0.00    -0.349 N 
ATOM     31  H   L42 d1784      28.540  23.392  35.340  0.00  0.00     0.093 H 
ATOM     32  H   L42 d1784      24.589  24.682  33.863  0.00  0.00     0.040 H 
ATOM     33  H   L42 d1784      25.393  25.165  32.389  0.00  0.00     0.040 H 
ATOM     34  H   L42 d1784      26.275  24.295  33.621  0.00  0.00     0.040 H 
ATOM     35  H   L42 d1784      24.927  21.855  27.780  0.00  0.00     0.212 HD
ATOM     36  H   L42 d1784      27.847  19.827  29.226  0.00  0.00     0.090 H 
ATOM     37  H   L42 d1784      27.749  20.467  35.522  0.00  0.00     0.095 H 
ATOM     38  H   L42 d1784      26.829  16.495  28.108  0.00  0.00     0.209 HD
ATOM     39  H   L42 d1784      30.973  22.366  35.432  0.00  0.00     0.085 H 
ATOM     40  H   L42 d1784      27.944  22.196  33.076  0.00  0.00     0.134 H 
ATOM     41  H   L42 d1784      26.722  21.774  29.167  0.00  0.00     0.132 H 
ATOM     42  H   L42 d1784      26.324  22.839  34.982  0.00  0.00     0.210 HD
ATOM     43  H   L42 d1784      27.638  18.596  31.689  0.00  0.00     0.093 H 
ATOM     44  H   L42 d1784      27.544  17.059  30.184  0.00  0.00     0.078 H 
ATOM     45  H   L42 d1784      28.617  17.586  29.022  0.00  0.00     0.078 H 
ATOM     46  H   L42 d1784      24.690  20.941  31.141  0.00  0.00     0.084 H 
ATOM     47  H   L42 d1784      28.945  21.246  37.194  0.00  0.00     0.210 HD
ATOM     48  H   L42 d1784      27.688  21.157  31.293  0.00  0.00     0.091 H 
ATOM     49  H   L42 d1784      26.530  23.233  31.276  0.00  0.00     0.163 HD
ENDROOT
TORSDOF 12
ENDMDL
MODEL 12
REMARK VINA RESULT:      -8.5      2.652      6.055
REMARK  0 active torsions:
REMARK  status: ('A' for Active; 'I' for Inactive)
REMARK       I    between atoms: CCA_2  and  OCB_28 
REMARK       I    between atoms: CBL_3  and  CBK_24 
REMARK       I    between atoms: OBM_4  and  CBE_20 
REMARK       I    between atoms: CBI_5  and  CBJ_25 
REMARK       I    between atoms: CBY_7  and  OBZ_22 
REMARK       I    between atoms: SBW_8  and  OBP_27 
REMARK       I    between atoms: OBR_9  and  CBJ_25 
REMARK       I    between atoms: CCD_10  and  CCE_18 
REMARK       I    between atoms: OBO_12  and  CBG_29 
REMARK       I    between atoms: OBO_12  and  CBX_17 
REMARK       I    between atoms: CBH_23  and  OBP_27 
REMARK       I    between atoms: CBK_24  and  NBN_30 
REMARK       I    between atoms: CBF_26  and  NBN_30 
ROOT
ATOM      1  OBS L42 d1784      25.694  17.113  28.543  0.00  0.00    -0.274 OA
ATOM      2  CCA L42 d1784      30.491  20.042  28.734  0.00  0.00     0.084 C 
ATOM      3  CBL L42 d1784      27.875  16.171  28.898  0.00  0.00    -0.003 C 
ATOM      4  OBM L42 d1784      24.360  16.723  32.523  0.00  0.00    -0.369 OA
ATOM      5  CBI L42 d1784      25.118  20.297  33.158  0.00  0.00     0.090 C 
ATOM      6  OBU L42 d1784      25.603  22.779  29.626  0.00  0.00    -0.572 OA
ATOM      7  CBY L42 d1784      29.000  20.273  28.699  0.00  0.00     0.111 C 
ATOM      8  SBW L42 d1784      24.309  22.359  30.324  0.00  0.00     0.252 S 
ATOM      9  OBR L42 d1784      23.404  21.293  34.085  0.00  0.00    -0.398 OA
ATOM     10  CCD L42 d1784      30.249  21.230  30.998  0.00  0.00     0.147 C 
ATOM     11  OCG L42 d1784      29.929  22.403  33.006  0.00  0.00    -0.642 OA
ATOM     12  OBO L42 d1784      27.041  20.189  30.126  0.00  0.00    -0.348 OA
ATOM     13  OCH L42 d1784      28.897  21.130  30.950  0.00  0.00    -0.311 OA
ATOM     14  CCC L42 d1784      31.079  20.751  29.970  0.00  0.00    -0.034 C 
ATOM     15  OBQ L42 d1784      24.296  19.083  33.097  0.00  0.00    -0.349 OA
ATOM     16  OBV L42 d1784      23.179  22.298  29.440  0.00  0.00    -0.572 OA
ATOM     17  CBX L42 d1784      28.428  20.062  30.128  0.00  0.00     0.165 C 
ATOM     18  CCE L42 d1784      30.803  21.893  32.252  0.00  0.00     0.233 C 
ATOM     19  OCF L42 d1784      32.048  21.970  32.409  0.00  0.00    -0.642 OA
ATOM     20  CBE L42 d1784      25.096  17.931  32.531  0.00  0.00     0.151 C 
ATOM     21  OBT L42 d1784      24.012  23.386  31.350  0.00  0.00    -0.572 OA
ATOM     22  OBZ L42 d1784      28.433  19.414  27.733  0.00  0.00    -0.388 OA
ATOM     23  CBH L42 d1784      25.566  20.729  31.753  0.00  0.00     0.114 C 
ATOM     24  CBK L42 d1784      26.641  16.953  29.331  0.00  0.00     0.214 C 
ATOM     25  CBJ L42 d1784      24.622  21.677  33.780  0.00  0.00     0.043 C 
ATOM     26  CBF L42 d1784      25.676  18.292  31.138  0.00  0.00     0.087 C 
ATOM     27  OBP L42 d1784      24.386  20.982  30.914  0.00  0.00    -0.246 OA
ATOM     28  OCB L42 d1784      31.002  20.654  27.567  0.00  0.00    -0.389 OA
ATOM     29  CBG L42 d1784      26.466  19.638  31.266  0.00  0.00     0.094 C 
ATOM     30  NBN L42 d1784      26.680  17.385  30.603  0.00  0.00    -0.349 N 
ATOM     31  H   L42 d1784      30.735  19.001  28.780  0.00  0.00     0.093 H 
ATOM     32  H   L42 d1784      27.764  15.866  27.879  0.00  0.00     0.040 H 
ATOM     33  H   L42 d1784      27.985  15.306  29.519  0.00  0.00     0.040 H 
ATOM     34  H   L42 d1784      28.742  16.791  28.993  0.00  0.00     0.040 H 
ATOM     35  H   L42 d1784      24.022  16.545  33.415  0.00  0.00     0.212 HD
ATOM     36  H   L42 d1784      25.831  19.902  33.852  0.00  0.00     0.090 H 
ATOM     37  H   L42 d1784      28.756  21.274  28.409  0.00  0.00     0.095 H 
ATOM     38  H   L42 d1784      22.926  22.031  34.493  0.00  0.00     0.209 HD
ATOM     39  H   L42 d1784      32.100  20.877  30.044  0.00  0.00     0.085 H 
ATOM     40  H   L42 d1784      28.724  19.093  30.471  0.00  0.00     0.134 H 
ATOM     41  H   L42 d1784      25.927  17.757  33.181  0.00  0.00     0.132 H 
ATOM     42  H   L42 d1784      28.633  18.493  27.962  0.00  0.00     0.210 HD
ATOM     43  H   L42 d1784      26.109  21.652  31.733  0.00  0.00     0.093 H 
ATOM     44  H   L42 d1784      24.631  22.474  33.066  0.00  0.00     0.078 H 
ATOM     45  H   L42 d1784      25.209  22.079  34.579  0.00  0.00     0.078 H 
ATOM     46  H   L42 d1784      24.818  18.290  30.497  0.00  0.00     0.084 H 
ATOM     47  H   L42 d1784      30.761  21.593  27.563  0.00  0.00     0.210 HD
ATOM     48  H   L42 d1784      27.254  19.335  31.922  0.00  0.00     0.091 H 
ATOM     49  H   L42 d1784      27.407  17.077  31.190  0.00  0.00     0.163 HD
ENDROOT
TORSDOF 12
ENDMDL
MODEL 13
REMARK VINA RESULT:      -8.5      2.790      6.095
REMARK  0 active torsions:
REMARK  status: ('A' for Active; 'I' for Inactive)
REMARK       I    between atoms: CCA_2  and  OCB_28 
REMARK       I    between atoms: CBL_3  and  CBK_24 
REMARK       I    between atoms: OBM_4  and  CBE_20 
REMARK       I    between atoms: CBI_5  and  CBJ_25 
REMARK       I    between atoms: CBY_7  and  OBZ_22 
REMARK       I    between atoms: SBW_8  and  OBP_27 
REMARK       I    between atoms: OBR_9  and  CBJ_25 
REMARK       I    between atoms: CCD_10  and  CCE_18 
REMARK       I    between atoms: OBO_12  and  CBG_29 
REMARK       I    between atoms: OBO_12  and  CBX_17 
REMARK       I    between atoms: CBH_23  and  OBP_27 
REMARK       I    between atoms: CBK_24  and  NBN_30 
REMARK       I    between atoms: CBF_26  and  NBN_30 
ROOT
ATOM      1  OBS L42 d1784      28.119  20.909  34.547  0.00  0.00    -0.274 OA
ATOM      2  CCA L42 d1784      30.991  19.482  29.928  0.00  0.00     0.084 C 
ATOM      3  CBL L42 d1784      30.105  22.008  33.760  0.00  0.00    -0.003 C 
ATOM      4  OBM L42 d1784      25.420  23.938  33.401  0.00  0.00    -0.369 OA
ATOM      5  CBI L42 d1784      24.522  22.025  30.355  0.00  0.00     0.090 C 
ATOM      6  OBU L42 d1784      25.589  17.814  30.387  0.00  0.00    -0.572 OA
ATOM      7  CBY L42 d1784      29.689  19.163  30.620  0.00  0.00     0.111 C 
ATOM      8  SBW L42 d1784      24.359  18.489  30.995  0.00  0.00     0.252 S 
ATOM      9  OBR L42 d1784      22.348  21.860  30.163  0.00  0.00    -0.398 OA
ATOM     10  CCD L42 d1784      29.392  20.288  28.088  0.00  0.00     0.147 C 
ATOM     11  OCG L42 d1784      27.843  20.913  26.438  0.00  0.00    -0.642 OA
ATOM     12  OBO L42 d1784      27.473  20.076  30.987  0.00  0.00    -0.348 OA
ATOM     13  OCH L42 d1784      28.325  20.199  28.922  0.00  0.00    -0.311 OA
ATOM     14  CCC L42 d1784      30.694  19.946  28.488  0.00  0.00    -0.034 C 
ATOM     15  OBQ L42 d1784      24.291  22.736  31.617  0.00  0.00    -0.349 OA
ATOM     16  OBV L42 d1784      23.827  17.788  32.130  0.00  0.00    -0.572 OA
ATOM     17  CBX L42 d1784      28.667  20.290  30.304  0.00  0.00     0.165 C 
ATOM     18  CCE L42 d1784      29.074  20.794  26.687  0.00  0.00     0.233 C 
ATOM     19  OCF L42 d1784      30.012  20.969  25.868  0.00  0.00    -0.642 OA
ATOM     20  CBE L42 d1784      25.604  23.185  32.218  0.00  0.00     0.151 C 
ATOM     21  OBT L42 d1784      23.307  18.503  29.952  0.00  0.00    -0.572 OA
ATOM     22  OBZ L42 d1784      29.938  18.999  31.999  0.00  0.00    -0.388 OA
ATOM     23  CBH L42 d1784      25.353  20.752  30.582  0.00  0.00     0.114 C 
ATOM     24  CBK L42 d1784      28.619  21.675  33.707  0.00  0.00     0.214 C 
ATOM     25  CBJ L42 d1784      23.357  21.487  29.410  0.00  0.00     0.043 C 
ATOM     26  CBF L42 d1784      26.564  21.981  32.413  0.00  0.00     0.087 C 
ATOM     27  OBP L42 d1784      24.649  19.865  31.520  0.00  0.00    -0.246 OA
ATOM     28  OCB L42 d1784      31.708  18.265  29.879  0.00  0.00    -0.389 OA
ATOM     29  CBG L42 d1784      26.693  21.226  31.047  0.00  0.00     0.094 C 
ATOM     30  NBN L42 d1784      27.947  22.305  32.728  0.00  0.00    -0.349 N 
ATOM     31  H   L42 d1784      31.538  20.249  30.436  0.00  0.00     0.093 H 
ATOM     32  H   L42 d1784      30.562  21.468  34.561  0.00  0.00     0.040 H 
ATOM     33  H   L42 d1784      30.229  23.059  33.921  0.00  0.00     0.040 H 
ATOM     34  H   L42 d1784      30.566  21.732  32.835  0.00  0.00     0.040 H 
ATOM     35  H   L42 d1784      24.814  24.674  33.224  0.00  0.00     0.212 HD
ATOM     36  H   L42 d1784      24.951  22.862  29.844  0.00  0.00     0.090 H 
ATOM     37  H   L42 d1784      29.262  18.247  30.267  0.00  0.00     0.095 H 
ATOM     38  H   L42 d1784      21.515  21.608  29.735  0.00  0.00     0.209 HD
ATOM     39  H   L42 d1784      31.465  20.007  27.806  0.00  0.00     0.085 H 
ATOM     40  H   L42 d1784      29.103  21.228  30.578  0.00  0.00     0.134 H 
ATOM     41  H   L42 d1784      26.073  23.850  31.524  0.00  0.00     0.132 H 
ATOM     42  H   L42 d1784      30.328  19.812  32.356  0.00  0.00     0.210 HD
ATOM     43  H   L42 d1784      25.488  20.157  29.703  0.00  0.00     0.093 H 
ATOM     44  H   L42 d1784      23.396  20.426  29.277  0.00  0.00     0.078 H 
ATOM     45  H   L42 d1784      23.356  21.845  28.402  0.00  0.00     0.078 H 
ATOM     46  H   L42 d1784      26.131  21.441  33.229  0.00  0.00     0.084 H 
ATOM     47  H   L42 d1784      31.181  17.598  29.412  0.00  0.00     0.210 HD
ATOM     48  H   L42 d1784      27.168  21.981  30.456  0.00  0.00     0.091 H 
ATOM     49  H   L42 d1784      28.404  23.007  32.210  0.00  0.00     0.163 HD
ENDROOT
TORSDOF 12
ENDMDL
MODEL 14
REMARK VINA RESULT:      -8.3      2.789      5.999
REMARK  0 active torsions:
REMARK  status: ('A' for Active; 'I' for Inactive)
REMARK       I    between atoms: CCA_2  and  OCB_28 
REMARK       I    between atoms: CBL_3  and  CBK_24 
REMARK       I    between atoms: OBM_4  and  CBE_20 
REMARK       I    between atoms: CBI_5  and  CBJ_25 
REMARK       I    between atoms: CBY_7  and  OBZ_22 
REMARK       I    between atoms: SBW_8  and  OBP_27 
REMARK       I    between atoms: OBR_9  and  CBJ_25 
REMARK       I    between atoms: CCD_10  and  CCE_18 
REMARK       I    between atoms: OBO_12  and  CBG_29 
REMARK       I    between atoms: OBO_12  and  CBX_17 
REMARK       I    between atoms: CBH_23  and  OBP_27 
REMARK       I    between atoms: CBK_24  and  NBN_30 
REMARK       I    between atoms: CBF_26  and  NBN_30 
ROOT
ATOM      1  OBS L42 d1784      23.974  20.749  28.698  0.00  0.00    -0.274 OA
ATOM      2  CCA L42 d1784      25.090  20.565  34.206  0.00  0.00     0.084 C 
ATOM      3  CBL L42 d1784      24.209  22.666  30.124  0.00  0.00    -0.003 C 
ATOM      4  OBM L42 d1784      27.678  21.168  26.730  0.00  0.00    -0.369 OA
ATOM      5  CBI L42 d1784      29.170  18.578  28.923  0.00  0.00     0.090 C 
ATOM      6  OBU L42 d1784      26.348  16.036  31.031  0.00  0.00    -0.572 OA
ATOM      7  CBY L42 d1784      25.034  19.646  33.010  0.00  0.00     0.111 C 
ATOM      8  SBW L42 d1784      26.861  15.904  29.596  0.00  0.00     0.252 S 
ATOM      9  OBR L42 d1784      30.216  17.070  27.731  0.00  0.00    -0.398 OA
ATOM     10  CCD L42 d1784      27.554  19.841  34.182  0.00  0.00     0.147 C 
ATOM     11  OCG L42 d1784      29.763  19.046  34.123  0.00  0.00    -0.642 OA
ATOM     12  OBO L42 d1784      26.300  19.040  31.033  0.00  0.00    -0.348 OA
ATOM     13  OCH L42 d1784      27.415  19.270  32.959  0.00  0.00    -0.311 OA
ATOM     14  CCC L42 d1784      26.487  20.462  34.851  0.00  0.00    -0.034 C 
ATOM     15  OBQ L42 d1784      28.785  19.216  27.659  0.00  0.00    -0.349 OA
ATOM     16  OBV L42 d1784      25.930  15.254  28.716  0.00  0.00    -0.572 OA
ATOM     17  CBX L42 d1784      26.343  19.813  32.190  0.00  0.00     0.165 C 
ATOM     18  CCE L42 d1784      28.956  19.765  34.774  0.00  0.00     0.233 C 
ATOM     19  OCF L42 d1784      29.190  20.324  35.876  0.00  0.00    -0.642 OA
ATOM     20  CBE L42 d1784      28.006  20.485  27.923  0.00  0.00     0.151 C 
ATOM     21  OBT L42 d1784      28.082  15.066  29.644  0.00  0.00    -0.572 OA
ATOM     22  OBZ L42 d1784      23.866  19.936  32.273  0.00  0.00    -0.388 OA
ATOM     23  CBH L42 d1784      27.930  18.165  29.733  0.00  0.00     0.114 C 
ATOM     24  CBK L42 d1784      24.749  21.482  29.332  0.00  0.00     0.214 C 
ATOM     25  CBJ L42 d1784      30.072  17.268  29.020  0.00  0.00     0.043 C 
ATOM     26  CBF L42 d1784      26.768  20.199  28.814  0.00  0.00     0.087 C 
ATOM     27  OBP L42 d1784      27.115  17.231  28.944  0.00  0.00    -0.246 OA
ATOM     28  OCB L42 d1784      24.127  20.072  35.115  0.00  0.00    -0.389 OA
ATOM     29  CBG L42 d1784      27.248  19.444  30.100  0.00  0.00     0.094 C 
ATOM     30  NBN L42 d1784      26.088  21.362  29.364  0.00  0.00    -0.349 N 
ATOM     31  H   L42 d1784      24.904  21.584  33.938  0.00  0.00     0.093 H 
ATOM     32  H   L42 d1784      23.143  22.690  30.048  0.00  0.00     0.040 H 
ATOM     33  H   L42 d1784      24.616  23.575  29.730  0.00  0.00     0.040 H 
ATOM     34  H   L42 d1784      24.491  22.567  31.152  0.00  0.00     0.040 H 
ATOM     35  H   L42 d1784      28.485  21.321  26.213  0.00  0.00     0.212 HD
ATOM     36  H   L42 d1784      29.788  19.385  29.260  0.00  0.00     0.090 H 
ATOM     37  H   L42 d1784      24.975  18.617  33.298  0.00  0.00     0.095 H 
ATOM     38  H   L42 d1784      30.761  16.281  27.584  0.00  0.00     0.209 HD
ATOM     39  H   L42 d1784      26.640  20.857  35.792  0.00  0.00     0.085 H 
ATOM     40  H   L42 d1784      26.465  20.850  31.955  0.00  0.00     0.134 H 
ATOM     41  H   L42 d1784      28.639  21.151  28.471  0.00  0.00     0.132 H 
ATOM     42  H   L42 d1784      23.883  20.865  31.993  0.00  0.00     0.210 HD
ATOM     43  H   L42 d1784      28.155  17.630  30.631  0.00  0.00     0.093 H 
ATOM     44  H   L42 d1784      29.566  16.459  29.503  0.00  0.00     0.078 H 
ATOM     45  H   L42 d1784      30.972  17.350  29.593  0.00  0.00     0.078 H 
ATOM     46  H   L42 d1784      26.102  19.673  28.161  0.00  0.00     0.084 H 
ATOM     47  H   L42 d1784      24.330  19.149  35.332  0.00  0.00     0.210 HD
ATOM     48  H   L42 d1784      27.855  20.202  30.550  0.00  0.00     0.091 H 
ATOM     49  H   L42 d1784      26.623  22.081  29.770  0.00  0.00     0.163 HD
ENDROOT
TORSDOF 12
ENDMDL
MODEL 15
REMARK VINA RESULT:      -8.3      3.023      6.000
REMARK  0 active torsions:
REMARK  status: ('A' for Active; 'I' for Inactive)
REMARK       I    between atoms: CCA_2  and  OCB_28 
REMARK       I    between atoms: CBL_3  and  CBK_24 
REMARK       I    between atoms: OBM_4  and  CBE_20 
REMARK       I    between atoms: CBI_5  and  CBJ_25 
REMARK       I    between atoms: CBY_7  and  OBZ_22 
REMARK       I    between atoms: SBW_8  and  OBP_27 
REMARK       I    between atoms: OBR_9  and  CBJ_25 
REMARK       I    between atoms: CCD_10  and  CCE_18 
REMARK       I    between atoms: OBO_12  and  CBG_29 
REMARK       I    between atoms: OBO_12  and  CBX_17 
REMARK       I    between atoms: CBH_23  and  OBP_27 
REMARK       I    between atoms: CBK_24  and  NBN_30 
REMARK       I    between atoms: CBF_26  and  NBN_30 
ROOT
ATOM      1  OBS L42 d1784      23.746  17.371  31.778  0.00  0.00    -0.274 OA
ATOM      2  CCA L42 d1784      28.708  17.507  29.137  0.00  0.00     0.084 C 
ATOM      3  CBL L42 d1784      25.597  15.912  32.241  0.00  0.00    -0.003 C 
ATOM      4  OBM L42 d1784      24.151  19.755  35.231  0.00  0.00    -0.369 OA
ATOM      5  CBI L42 d1784      25.896  22.365  33.260  0.00  0.00     0.090 C 
ATOM      6  OBU L42 d1784      25.407  22.117  28.950  0.00  0.00    -0.572 OA
ATOM      7  CBY L42 d1784      27.435  18.311  29.241  0.00  0.00     0.111 C 
ATOM      8  SBW L42 d1784      24.467  22.743  29.981  0.00  0.00     0.252 S 
ATOM      9  OBR L42 d1784      25.004  24.330  33.626  0.00  0.00    -0.398 OA
ATOM     10  CCD L42 d1784      29.714  19.667  30.097  0.00  0.00     0.147 C 
ATOM     11  OCG L42 d1784      30.541  21.715  30.892  0.00  0.00    -0.642 OA
ATOM     12  OBO L42 d1784      26.292  19.856  30.720  0.00  0.00    -0.348 OA
ATOM     13  OCH L42 d1784      28.483  20.161  30.379  0.00  0.00    -0.311 OA
ATOM     14  CCC L42 d1784      29.904  18.415  29.488  0.00  0.00    -0.034 C 
ATOM     15  OBQ L42 d1784      24.871  21.807  34.150  0.00  0.00    -0.349 OA
ATOM     16  OBV L42 d1784      23.089  22.730  29.575  0.00  0.00    -0.572 OA
ATOM     17  CBX L42 d1784      27.483  19.157  30.544  0.00  0.00     0.165 C 
ATOM     18  CCE L42 d1784      30.878  20.565  30.497  0.00  0.00     0.233 C 
ATOM     19  OCF L42 d1784      32.055  20.158  30.332  0.00  0.00    -0.642 OA
ATOM     20  CBE L42 d1784      25.075  20.318  34.322  0.00  0.00     0.151 C 
ATOM     21  OBT L42 d1784      24.868  24.160  30.136  0.00  0.00    -0.572 OA
ATOM     22  OBZ L42 d1784      26.337  17.427  29.184  0.00  0.00    -0.388 OA
ATOM     23  CBH L42 d1784      25.800  21.749  31.855  0.00  0.00     0.114 C 
ATOM     24  CBK L42 d1784      24.871  17.251  32.288  0.00  0.00     0.214 C 
ATOM     25  CBJ L42 d1784      26.034  23.917  32.925  0.00  0.00     0.043 C 
ATOM     26  CBF L42 d1784      25.084  19.599  32.947  0.00  0.00     0.087 C 
ATOM     27  OBP L42 d1784      24.468  22.012  31.291  0.00  0.00    -0.246 OA
ATOM     28  OCB L42 d1784      28.808  17.119  27.782  0.00  0.00    -0.389 OA
ATOM     29  CBG L42 d1784      26.138  20.303  32.028  0.00  0.00     0.094 C 
ATOM     30  NBN L42 d1784      25.536  18.215  32.948  0.00  0.00    -0.349 N 
ATOM     31  H   L42 d1784      28.705  16.664  29.797  0.00  0.00     0.093 H 
ATOM     32  H   L42 d1784      25.004  15.205  31.701  0.00  0.00     0.040 H 
ATOM     33  H   L42 d1784      25.757  15.558  33.238  0.00  0.00     0.040 H 
ATOM     34  H   L42 d1784      26.540  16.035  31.750  0.00  0.00     0.040 H 
ATOM     35  H   L42 d1784      24.186  20.240  36.071  0.00  0.00     0.212 HD
ATOM     36  H   L42 d1784      26.723  22.127  33.896  0.00  0.00     0.090 H 
ATOM     37  H   L42 d1784      27.328  18.998  28.427  0.00  0.00     0.095 H 
ATOM     38  H   L42 d1784      24.922  25.293  33.543  0.00  0.00     0.209 HD
ATOM     39  H   L42 d1784      30.862  18.098  29.271  0.00  0.00     0.085 H 
ATOM     40  H   L42 d1784      27.667  18.498  31.368  0.00  0.00     0.134 H 
ATOM     41  H   L42 d1784      26.039  20.167  34.761  0.00  0.00     0.132 H 
ATOM     42  H   L42 d1784      26.400  16.786  29.909  0.00  0.00     0.210 HD
ATOM     43  H   L42 d1784      26.478  22.175  31.145  0.00  0.00     0.093 H 
ATOM     44  H   L42 d1784      25.924  24.120  31.881  0.00  0.00     0.078 H 
ATOM     45  H   L42 d1784      26.976  24.371  33.150  0.00  0.00     0.078 H 
ATOM     46  H   L42 d1784      24.061  19.638  32.634  0.00  0.00     0.084 H 
ATOM     47  H   L42 d1784      28.808  17.909  27.219  0.00  0.00     0.210 HD
ATOM     48  H   L42 d1784      27.037  20.079  32.563  0.00  0.00     0.091 H 
ATOM     49  H   L42 d1784      26.352  17.980  33.445  0.00  0.00     0.163 HD
ENDROOT
TORSDOF 12
ENDMDL
MODEL 16
REMARK VINA RESULT:      -8.3      2.264      3.692
REMARK  0 active torsions:
REMARK  status: ('A' for Active; 'I' for Inactive)
REMARK       I    between atoms: CCA_2  and  OCB_28 
REMARK       I    between atoms: CBL_3  and  CBK_24 
REMARK       I    between atoms: OBM_4  and  CBE_20 
REMARK       I    between atoms: CBI_5  and  CBJ_25 
REMARK       I    between atoms: CBY_7  and  OBZ_22 
REMARK       I    between atoms: SBW_8  and  OBP_27 
REMARK       I    between atoms: OBR_9  and  CBJ_25 
REMARK       I    between atoms: CCD_10  and  CCE_18 
REMARK       I    between atoms: OBO_12  and  CBG_29 
REMARK       I    between atoms: OBO_12  and  CBX_17 
REMARK       I    between atoms: CBH_23  and  OBP_27 
REMARK       I    between atoms: CBK_24  and  NBN_30 
REMARK       I    between atoms: CBF_26  and  NBN_30 
ROOT
ATOM      1  OBS L42 d1784      27.016  14.934  30.688  0.00  0.00    -0.274 OA
ATOM      2  CCA L42 d1784      23.355  18.323  28.092  0.00  0.00     0.084 C 
ATOM      3  CBL L42 d1784      25.749  14.358  28.730  0.00  0.00    -0.003 C 
ATOM      4  OBM L42 d1784      30.715  15.426  28.727  0.00  0.00    -0.369 OA
ATOM      5  CBI L42 d1784      30.248  19.104  28.707  0.00  0.00     0.090 C 
ATOM      6  OBU L42 d1784      27.274  20.644  31.474  0.00  0.00    -0.572 OA
ATOM      7  CBY L42 d1784      24.401  18.372  29.179  0.00  0.00     0.111 C 
ATOM      8  SBW L42 d1784      28.732  20.276  31.751  0.00  0.00     0.252 S 
ATOM      9  OBR L42 d1784      32.033  20.109  29.477  0.00  0.00    -0.398 OA
ATOM     10  CCD L42 d1784      24.947  20.014  26.995  0.00  0.00     0.147 C 
ATOM     11  OCG L42 d1784      26.425  21.616  26.124  0.00  0.00    -0.642 OA
ATOM     12  OBO L42 d1784      26.805  18.440  29.486  0.00  0.00    -0.348 OA
ATOM     13  OCH L42 d1784      25.914  19.757  27.912  0.00  0.00    -0.311 OA
ATOM     14  CCC L42 d1784      23.692  19.383  27.025  0.00  0.00    -0.034 C 
ATOM     15  OBQ L42 d1784      30.925  17.832  28.986  0.00  0.00    -0.349 OA
ATOM     16  OBV L42 d1784      28.968  19.868  33.108  0.00  0.00    -0.572 OA
ATOM     17  CBX L42 d1784      25.804  18.471  28.519  0.00  0.00     0.165 C 
ATOM     18  CCE L42 d1784      25.325  21.031  25.926  0.00  0.00     0.233 C 
ATOM     19  OCF L42 d1784      24.512  21.281  25.000  0.00  0.00    -0.642 OA
ATOM     20  CBE L42 d1784      30.067  16.668  28.541  0.00  0.00     0.151 C 
ATOM     21  OBT L42 d1784      29.544  21.491  31.508  0.00  0.00    -0.572 OA
ATOM     22  OBZ L42 d1784      24.246  17.239  30.006  0.00  0.00    -0.388 OA
ATOM     23  CBH L42 d1784      28.931  19.211  29.492  0.00  0.00     0.114 C 
ATOM     24  CBK L42 d1784      26.869  15.084  29.464  0.00  0.00     0.214 C 
ATOM     25  CBJ L42 d1784      30.900  20.534  28.969  0.00  0.00     0.043 C 
ATOM     26  CBF L42 d1784      28.668  16.725  29.210  0.00  0.00     0.087 C 
ATOM     27  OBP L42 d1784      29.205  19.111  30.932  0.00  0.00    -0.246 OA
ATOM     28  OCB L42 d1784      22.136  18.670  28.716  0.00  0.00    -0.389 OA
ATOM     29  CBG L42 d1784      28.048  18.138  28.940  0.00  0.00     0.094 C 
ATOM     30  NBN L42 d1784      27.659  15.827  28.669  0.00  0.00    -0.349 N 
ATOM     31  H   L42 d1784      23.307  17.361  27.625  0.00  0.00     0.093 H 
ATOM     32  H   L42 d1784      25.171  13.794  29.431  0.00  0.00     0.040 H 
ATOM     33  H   L42 d1784      26.170  13.697  28.001  0.00  0.00     0.040 H 
ATOM     34  H   L42 d1784      25.120  15.073  28.243  0.00  0.00     0.040 H 
ATOM     35  H   L42 d1784      31.581  15.445  28.291  0.00  0.00     0.212 HD
ATOM     36  H   L42 d1784      30.232  18.979  27.644  0.00  0.00     0.090 H 
ATOM     37  H   L42 d1784      24.288  19.234  29.804  0.00  0.00     0.095 H 
ATOM     38  H   L42 d1784      32.589  20.870  29.708  0.00  0.00     0.209 HD
ATOM     39  H   L42 d1784      22.982  19.635  26.319  0.00  0.00     0.085 H 
ATOM     40  H   L42 d1784      25.911  17.659  27.829  0.00  0.00     0.134 H 
ATOM     41  H   L42 d1784      29.914  16.758  27.486  0.00  0.00     0.132 H 
ATOM     42  H   L42 d1784      24.341  16.434  29.473  0.00  0.00     0.210 HD
ATOM     43  H   L42 d1784      28.433  20.152  29.380  0.00  0.00     0.093 H 
ATOM     44  H   L42 d1784      30.335  21.119  29.665  0.00  0.00     0.078 H 
ATOM     45  H   L42 d1784      30.971  21.188  28.125  0.00  0.00     0.078 H 
ATOM     46  H   L42 d1784      28.864  16.466  30.230  0.00  0.00     0.084 H 
ATOM     47  H   L42 d1784      22.220  19.545  29.126  0.00  0.00     0.210 HD
ATOM     48  H   L42 d1784      27.943  18.099  27.876  0.00  0.00     0.091 H 
ATOM     49  H   L42 d1784      27.552  15.761  27.693  0.00  0.00     0.163 HD
ENDROOT
TORSDOF 12
ENDMDL
MODEL 17
REMARK VINA RESULT:      -8.2      3.037      7.452
REMARK  0 active torsions:
REMARK  status: ('A' for Active; 'I' for Inactive)
REMARK       I    between atoms: CCA_2  and  OCB_28 
REMARK       I    between atoms: CBL_3  and  CBK_24 
REMARK       I    between atoms: OBM_4  and  CBE_20 
REMARK       I    between atoms: CBI_5  and  CBJ_25 
REMARK       I    between atoms: CBY_7  and  OBZ_22 
REMARK       I    between atoms: SBW_8  and  OBP_27 
REMARK       I    between atoms: OBR_9  and  CBJ_25 
REMARK       I    between atoms: CCD_10  and  CCE_18 
REMARK       I    between atoms: OBO_12  and  CBG_29 
REMARK       I    between atoms: OBO_12  and  CBX_17 
REMARK       I    between atoms: CBH_23  and  OBP_27 
REMARK       I    between atoms: CBK_24  and  NBN_30 
REMARK       I    between atoms: CBF_26  and  NBN_30 
ROOT
ATOM      1  OBS L42 d1784      25.704  22.844  36.359  0.00  0.00    -0.274 OA
ATOM      2  CCA L42 d1784      31.262  22.248  35.749  0.00  0.00     0.084 C 
ATOM      3  CBL L42 d1784      27.309  24.625  36.508  0.00  0.00    -0.003 C 
ATOM      4  OBM L42 d1784      24.181  23.901  32.572  0.00  0.00    -0.369 OA
ATOM      5  CBI L42 d1784      26.285  21.303  30.969  0.00  0.00     0.090 C 
ATOM      6  OBU L42 d1784      27.854  18.242  33.622  0.00  0.00    -0.572 OA
ATOM      7  CBY L42 d1784      29.991  21.453  35.573  0.00  0.00     0.111 C 
ATOM      8  SBW L42 d1784      26.476  18.317  32.965  0.00  0.00     0.252 S 
ATOM      9  OBR L42 d1784      25.083  20.059  29.629  0.00  0.00    -0.398 OA
ATOM     10  CCD L42 d1784      31.435  21.832  33.220  0.00  0.00     0.147 C 
ATOM     11  OCG L42 d1784      31.539  21.318  30.931  0.00  0.00    -0.642 OA
ATOM     12  OBO L42 d1784      28.113  21.203  34.059  0.00  0.00    -0.348 OA
ATOM     13  OCH L42 d1784      30.159  21.373  33.169  0.00  0.00    -0.311 OA
ATOM     14  CCC L42 d1784      32.040  22.250  34.417  0.00  0.00    -0.034 C 
ATOM     15  OBQ L42 d1784      25.048  22.013  31.313  0.00  0.00    -0.349 OA
ATOM     16  OBV L42 d1784      25.449  17.651  33.717  0.00  0.00    -0.572 OA
ATOM     17  CBX L42 d1784      29.331  21.857  34.225  0.00  0.00     0.165 C 
ATOM     18  CCE L42 d1784      32.162  21.866  31.882  0.00  0.00     0.233 C 
ATOM     19  OCF L42 d1784      33.327  22.337  31.826  0.00  0.00    -0.642 OA
ATOM     20  CBE L42 d1784      25.339  23.147  32.272  0.00  0.00     0.151 C 
ATOM     21  OBT L42 d1784      26.578  17.632  31.655  0.00  0.00    -0.572 OA
ATOM     22  OBZ L42 d1784      29.163  21.672  36.694  0.00  0.00    -0.388 OA
ATOM     23  CBH L42 d1784      26.921  20.666  32.215  0.00  0.00     0.114 C 
ATOM     24  CBK L42 d1784      26.478  23.599  35.748  0.00  0.00     0.214 C 
ATOM     25  CBJ L42 d1784      26.362  20.108  29.918  0.00  0.00     0.043 C 
ATOM     26  CBF L42 d1784      26.065  22.626  33.540  0.00  0.00     0.087 C 
ATOM     27  OBP L42 d1784      25.972  19.723  32.825  0.00  0.00    -0.246 OA
ATOM     28  OCB L42 d1784      32.018  21.554  36.720  0.00  0.00    -0.389 OA
ATOM     29  CBG L42 d1784      27.324  21.810  33.089  0.00  0.00     0.094 C 
ATOM     30  NBN L42 d1784      26.640  23.638  34.414  0.00  0.00    -0.349 N 
ATOM     31  H   L42 d1784      31.066  23.259  36.039  0.00  0.00     0.093 H 
ATOM     32  H   L42 d1784      27.123  24.527  37.557  0.00  0.00     0.040 H 
ATOM     33  H   L42 d1784      27.040  25.610  36.188  0.00  0.00     0.040 H 
ATOM     34  H   L42 d1784      28.348  24.458  36.314  0.00  0.00     0.040 H 
ATOM     35  H   L42 d1784      23.768  24.201  31.748  0.00  0.00     0.212 HD
ATOM     36  H   L42 d1784      26.754  22.141  30.495  0.00  0.00     0.090 H 
ATOM     37  H   L42 d1784      30.181  20.401  35.524  0.00  0.00     0.095 H 
ATOM     38  H   L42 d1784      24.926  19.360  28.975  0.00  0.00     0.209 HD
ATOM     39  H   L42 d1784      33.022  22.565  34.405  0.00  0.00     0.085 H 
ATOM     40  H   L42 d1784      29.201  22.919  34.218  0.00  0.00     0.134 H 
ATOM     41  H   L42 d1784      26.006  23.826  31.784  0.00  0.00     0.132 H 
ATOM     42  H   L42 d1784      28.969  22.619  36.772  0.00  0.00     0.210 HD
ATOM     43  H   L42 d1784      27.788  20.074  32.008  0.00  0.00     0.093 H 
ATOM     44  H   L42 d1784      26.717  19.200  30.358  0.00  0.00     0.078 H 
ATOM     45  H   L42 d1784      27.032  20.240  29.093  0.00  0.00     0.078 H 
ATOM     46  H   L42 d1784      25.303  22.092  34.068  0.00  0.00     0.084 H 
ATOM     47  H   L42 d1784      32.174  20.645  36.420  0.00  0.00     0.210 HD
ATOM     48  H   L42 d1784      27.900  22.587  32.631  0.00  0.00     0.091 H 
ATOM     49  H   L42 d1784      27.161  24.372  34.017  0.00  0.00     0.163 HD
ENDROOT
TORSDOF 12
ENDMDL
MODEL 18
REMARK VINA RESULT:      -8.2      2.601      6.781
REMARK  0 active torsions:
REMARK  status: ('A' for Active; 'I' for Inactive)
REMARK       I    between atoms: CCA_2  and  OCB_28 
REMARK       I    between atoms: CBL_3  and  CBK_24 
REMARK       I    between atoms: OBM_4  and  CBE_20 
REMARK       I    between atoms: CBI_5  and  CBJ_25 
REMARK       I    between atoms: CBY_7  and  OBZ_22 
REMARK       I    between atoms: SBW_8  and  OBP_27 
REMARK       I    between atoms: OBR_9  and  CBJ_25 
REMARK       I    between atoms: CCD_10  and  CCE_18 
REMARK       I    between atoms: OBO_12  and  CBG_29 
REMARK       I    between atoms: OBO_12  and  CBX_17 
REMARK       I    between atoms: CBH_23  and  OBP_27 
REMARK       I    between atoms: CBK_24  and  NBN_30 
REMARK       I    between atoms: CBF_26  and  NBN_30 
ROOT
ATOM      1  OBS L42 d1784      25.716  21.572  34.330  0.00  0.00    -0.274 OA
ATOM      2  CCA L42 d1784      30.992  20.361  32.805  0.00  0.00     0.084 C 
ATOM      3  CBL L42 d1784      27.585  23.069  34.514  0.00  0.00    -0.003 C 
ATOM      4  OBM L42 d1784      23.913  23.476  31.029  0.00  0.00    -0.369 OA
ATOM      5  CBI L42 d1784      25.368  20.948  28.740  0.00  0.00     0.090 C 
ATOM      6  OBU L42 d1784      26.760  17.284  30.613  0.00  0.00    -0.572 OA
ATOM      7  CBY L42 d1784      29.600  19.786  32.700  0.00  0.00     0.111 C 
ATOM      8  SBW L42 d1784      25.339  17.657  30.190  0.00  0.00     0.252 S 
ATOM      9  OBR L42 d1784      23.827  20.131  27.418  0.00  0.00    -0.398 OA
ATOM     10  CCD L42 d1784      30.778  20.381  30.246  0.00  0.00     0.147 C 
ATOM     11  OCG L42 d1784      30.512  20.272  27.916  0.00  0.00    -0.642 OA
ATOM     12  OBO L42 d1784      27.531  20.060  31.466  0.00  0.00    -0.348 OA
ATOM     13  OCH L42 d1784      29.450  20.112  30.316  0.00  0.00    -0.311 OA
ATOM     14  CCC L42 d1784      31.586  20.497  31.389  0.00  0.00    -0.034 C 
ATOM     15  OBQ L42 d1784      24.309  21.743  29.373  0.00  0.00    -0.349 OA
ATOM     16  OBV L42 d1784      24.323  17.010  30.974  0.00  0.00    -0.572 OA
ATOM     17  CBX L42 d1784      28.847  20.507  31.547  0.00  0.00     0.165 C 
ATOM     18  CCE L42 d1784      31.328  20.555  28.836  0.00  0.00     0.233 C 
ATOM     19  OCF L42 d1784      32.535  20.870  28.681  0.00  0.00    -0.642 OA
ATOM     20  CBE L42 d1784      24.891  22.640  30.443  0.00  0.00     0.151 C 
ATOM     21  OBT L42 d1784      25.167  17.207  28.789  0.00  0.00    -0.572 OA
ATOM     22  OBZ L42 d1784      28.964  19.911  33.953  0.00  0.00    -0.388 OA
ATOM     23  CBH L42 d1784      26.047  20.021  29.760  0.00  0.00     0.114 C 
ATOM     24  CBK L42 d1784      26.515  22.314  33.736  0.00  0.00     0.214 C 
ATOM     25  CBJ L42 d1784      25.124  19.959  27.515  0.00  0.00     0.043 C 
ATOM     26  CBF L42 d1784      25.682  21.811  31.490  0.00  0.00     0.087 C 
ATOM     27  OBP L42 d1784      25.047  19.120  30.350  0.00  0.00    -0.246 OA
ATOM     28  OCB L42 d1784      31.746  19.413  33.531  0.00  0.00    -0.389 OA
ATOM     29  CBG L42 d1784      26.731  20.929  30.733  0.00  0.00     0.094 C 
ATOM     30  NBN L42 d1784      26.512  22.567  32.416  0.00  0.00    -0.349 N 
ATOM     31  H   L42 d1784      30.994  21.322  33.277  0.00  0.00     0.093 H 
ATOM     32  H   L42 d1784      27.520  22.812  35.551  0.00  0.00     0.040 H 
ATOM     33  H   L42 d1784      27.436  24.122  34.397  0.00  0.00     0.040 H 
ATOM     34  H   L42 d1784      28.552  22.803  34.142  0.00  0.00     0.040 H 
ATOM     35  H   L42 d1784      23.451  23.969  30.333  0.00  0.00     0.212 HD
ATOM     36  H   L42 d1784      25.898  21.786  28.339  0.00  0.00     0.090 H 
ATOM     37  H   L42 d1784      29.616  18.744  32.459  0.00  0.00     0.095 H 
ATOM     38  H   L42 d1784      23.482  19.586  26.693  0.00  0.00     0.209 HD
ATOM     39  H   L42 d1784      32.597  20.675  31.279  0.00  0.00     0.085 H 
ATOM     40  H   L42 d1784      28.885  21.561  31.726  0.00  0.00     0.134 H 
ATOM     41  H   L42 d1784      25.590  23.300  29.974  0.00  0.00     0.132 H 
ATOM     42  H   L42 d1784      28.932  20.847  34.207  0.00  0.00     0.210 HD
ATOM     43  H   L42 d1784      26.778  19.366  29.335  0.00  0.00     0.093 H 
ATOM     44  H   L42 d1784      25.385  18.948  27.748  0.00  0.00     0.078 H 
ATOM     45  H   L42 d1784      25.697  20.145  26.630  0.00  0.00     0.078 H 
ATOM     46  H   L42 d1784      24.918  21.298  32.037  0.00  0.00     0.084 H 
ATOM     47  H   L42 d1784      31.719  18.559  33.072  0.00  0.00     0.210 HD
ATOM     48  H   L42 d1784      27.359  21.691  30.320  0.00  0.00     0.091 H 
ATOM     49  H   L42 d1784      27.088  23.284  32.065  0.00  0.00     0.163 HD
ENDROOT
TORSDOF 12
ENDMDL
MODEL 19
REMARK VINA RESULT:      -8.1      2.713      3.891
REMARK  0 active torsions:
REMARK  status: ('A' for Active; 'I' for Inactive)
REMARK       I    between atoms: CCA_2  and  OCB_28 
REMARK       I    between atoms: CBL_3  and  CBK_24 
REMARK       I    between atoms: OBM_4  and  CBE_20 
REMARK       I    between atoms: CBI_5  and  CBJ_25 
REMARK       I    between atoms: CBY_7  and  OBZ_22 
REMARK       I    between atoms: SBW_8  and  OBP_27 
REMARK       I    between atoms: OBR_9  and  CBJ_25 
REMARK       I    between atoms: CCD_10  and  CCE_18 
REMARK       I    between atoms: OBO_12  and  CBG_29 
REMARK       I    between atoms: OBO_12  and  CBX_17 
REMARK       I    between atoms: CBH_23  and  OBP_27 
REMARK       I    between atoms: CBK_24  and  NBN_30 
REMARK       I    between atoms: CBF_26  and  NBN_30 
ROOT
ATOM      1  OBS L42 d1784      27.240  16.285  30.331  0.00  0.00    -0.274 OA
ATOM      2  CCA L42 d1784      22.969  17.865  27.032  0.00  0.00     0.084 C 
ATOM      3  CBL L42 d1784      27.263  16.247  27.930  0.00  0.00    -0.003 C 
ATOM      4  OBM L42 d1784      29.735  19.654  30.773  0.00  0.00    -0.369 OA
ATOM      5  CBI L42 d1784      26.771  21.811  31.331  0.00  0.00     0.090 C 
ATOM      6  OBU L42 d1784      23.101  19.740  32.385  0.00  0.00    -0.572 OA
ATOM      7  CBY L42 d1784      23.376  17.895  28.485  0.00  0.00     0.111 C 
ATOM      8  SBW L42 d1784      24.259  20.149  33.296  0.00  0.00     0.252 S 
ATOM      9  OBR L42 d1784      27.039  23.036  33.124  0.00  0.00    -0.398 OA
ATOM     10  CCD L42 d1784      23.028  20.413  27.344  0.00  0.00     0.147 C 
ATOM     11  OCG L42 d1784      23.025  22.724  27.762  0.00  0.00    -0.642 OA
ATOM     12  OBO L42 d1784      24.830  19.090  30.015  0.00  0.00    -0.348 OA
ATOM     13  OCH L42 d1784      23.642  20.291  28.547  0.00  0.00    -0.311 OA
ATOM     14  CCC L42 d1784      22.658  19.302  26.569  0.00  0.00    -0.034 C 
ATOM     15  OBQ L42 d1784      28.072  21.203  31.632  0.00  0.00    -0.349 OA
ATOM     16  OBV L42 d1784      24.408  19.298  34.444  0.00  0.00    -0.572 OA
ATOM     17  CBX L42 d1784      24.368  19.072  28.702  0.00  0.00     0.165 C 
ATOM     18  CCE L42 d1784      22.774  21.845  26.891  0.00  0.00     0.233 C 
ATOM     19  OCF L42 d1784      22.268  22.053  25.759  0.00  0.00    -0.642 OA
ATOM     20  CBE L42 d1784      28.453  20.209  30.556  0.00  0.00     0.151 C 
ATOM     21  OBT L42 d1784      23.963  21.513  33.793  0.00  0.00    -0.572 OA
ATOM     22  OBZ L42 d1784      23.912  16.637  28.831  0.00  0.00    -0.388 OA
ATOM     23  CBH L42 d1784      25.659  20.750  31.308  0.00  0.00     0.114 C 
ATOM     24  CBK L42 d1784      27.306  16.946  29.283  0.00  0.00     0.214 C 
ATOM     25  CBJ L42 d1784      26.103  22.962  32.207  0.00  0.00     0.043 C 
ATOM     26  CBF L42 d1784      27.349  19.132  30.384  0.00  0.00     0.087 C 
ATOM     27  OBP L42 d1784      25.592  20.077  32.612  0.00  0.00    -0.246 OA
ATOM     28  OCB L42 d1784      21.783  17.098  26.981  0.00  0.00    -0.389 OA
ATOM     29  CBG L42 d1784      25.981  19.857  30.152  0.00  0.00     0.094 C 
ATOM     30  NBN L42 d1784      27.460  18.280  29.210  0.00  0.00    -0.349 N 
ATOM     31  H   L42 d1784      23.738  17.456  26.409  0.00  0.00     0.093 H 
ATOM     32  H   L42 d1784      27.138  15.195  28.077  0.00  0.00     0.040 H 
ATOM     33  H   L42 d1784      28.177  16.429  27.405  0.00  0.00     0.040 H 
ATOM     34  H   L42 d1784      26.442  16.627  27.358  0.00  0.00     0.040 H 
ATOM     35  H   L42 d1784      30.383  20.368  30.873  0.00  0.00     0.212 HD
ATOM     36  H   L42 d1784      27.086  22.280  30.422  0.00  0.00     0.090 H 
ATOM     37  H   L42 d1784      22.541  18.068  29.131  0.00  0.00     0.095 H 
ATOM     38  H   L42 d1784      26.800  23.714  33.775  0.00  0.00     0.209 HD
ATOM     39  H   L42 d1784      22.168  19.450  25.673  0.00  0.00     0.085 H 
ATOM     40  H   L42 d1784      25.177  18.964  28.011  0.00  0.00     0.134 H 
ATOM     41  H   L42 d1784      28.521  20.739  29.630  0.00  0.00     0.132 H 
ATOM     42  H   L42 d1784      24.675  16.444  28.264  0.00  0.00     0.210 HD
ATOM     43  H   L42 d1784      24.677  21.151  31.164  0.00  0.00     0.093 H 
ATOM     44  H   L42 d1784      25.157  22.670  32.612  0.00  0.00     0.078 H 
ATOM     45  H   L42 d1784      25.863  23.872  31.696  0.00  0.00     0.078 H 
ATOM     46  H   L42 d1784      27.439  18.533  31.267  0.00  0.00     0.084 H 
ATOM     47  H   L42 d1784      21.114  17.500  27.557  0.00  0.00     0.210 HD
ATOM     48  H   L42 d1784      26.176  20.335  29.214  0.00  0.00     0.091 H 
ATOM     49  H   L42 d1784      27.654  18.691  28.337  0.00  0.00     0.163 HD
ENDROOT
TORSDOF 12
ENDMDL
MODEL 20
REMARK VINA RESULT:      -8.1      3.126      6.501
REMARK  0 active torsions:
REMARK  status: ('A' for Active; 'I' for Inactive)
REMARK       I    between atoms: CCA_2  and  OCB_28 
REMARK       I    between atoms: CBL_3  and  CBK_24 
REMARK       I    between atoms: OBM_4  and  CBE_20 
REMARK       I    between atoms: CBI_5  and  CBJ_25 
REMARK       I    between atoms: CBY_7  and  OBZ_22 
REMARK       I    between atoms: SBW_8  and  OBP_27 
REMARK       I    between atoms: OBR_9  and  CBJ_25 
REMARK       I    between atoms: CCD_10  and  CCE_18 
REMARK       I    between atoms: OBO_12  and  CBG_29 
REMARK       I    between atoms: OBO_12  and  CBX_17 
REMARK       I    between atoms: CBH_23  and  OBP_27 
REMARK       I    between atoms: CBK_24  and  NBN_30 
REMARK       I    between atoms: CBF_26  and  NBN_30 
ROOT
ATOM      1  OBS L42 d1784      22.806  20.568  27.405  0.00  0.00    -0.274 OA
ATOM      2  CCA L42 d1784      28.404  20.509  26.877  0.00  0.00     0.084 C 
ATOM      3  CBL L42 d1784      24.053  18.993  26.088  0.00  0.00    -0.003 C 
ATOM      4  OBM L42 d1784      21.862  17.914  30.542  0.00  0.00    -0.369 OA
ATOM      5  CBI L42 d1784      24.611  19.318  32.595  0.00  0.00     0.090 C 
ATOM      6  OBU L42 d1784      26.127  23.187  31.329  0.00  0.00    -0.572 OA
ATOM      7  CBY L42 d1784      27.330  21.189  27.690  0.00  0.00     0.111 C 
ATOM      8  SBW L42 d1784      24.900  22.880  32.189  0.00  0.00     0.252 S 
ATOM      9  OBR L42 d1784      23.890  19.833  34.596  0.00  0.00    -0.398 OA
ATOM     10  CCD L42 d1784      29.106  19.658  29.197  0.00  0.00     0.147 C 
ATOM     11  OCG L42 d1784      29.711  19.011  31.371  0.00  0.00    -0.642 OA
ATOM     12  OBO L42 d1784      25.829  20.784  29.551  0.00  0.00    -0.348 OA
ATOM     13  OCH L42 d1784      27.950  20.103  29.752  0.00  0.00    -0.311 OA
ATOM     14  CCC L42 d1784      29.404  19.830  27.836  0.00  0.00    -0.034 C 
ATOM     15  OBQ L42 d1784      23.235  18.924  32.272  0.00  0.00    -0.349 OA
ATOM     16  OBV L42 d1784      23.871  23.876  32.088  0.00  0.00    -0.572 OA
ATOM     17  CBX L42 d1784      26.875  20.226  28.822  0.00  0.00     0.165 C 
ATOM     18  CCE L42 d1784      30.053  18.951  30.158  0.00  0.00     0.233 C 
ATOM     19  OCF L42 d1784      31.118  18.451  29.716  0.00  0.00    -0.642 OA
ATOM     20  CBE L42 d1784      23.160  18.372  30.866  0.00  0.00     0.151 C 
ATOM     21  OBT L42 d1784      25.350  22.851  33.600  0.00  0.00    -0.572 OA
ATOM     22  OBZ L42 d1784      26.285  21.574  26.825  0.00  0.00    -0.388 OA
ATOM     23  CBH L42 d1784      25.098  20.438  31.663  0.00  0.00     0.114 C 
ATOM     24  CBK L42 d1784      23.550  19.574  27.404  0.00  0.00     0.214 C 
ATOM     25  CBJ L42 d1784      25.070  19.861  34.022  0.00  0.00     0.043 C 
ATOM     26  CBF L42 d1784      23.713  19.396  29.840  0.00  0.00     0.087 C 
ATOM     27  OBP L42 d1784      24.214  21.606  31.792  0.00  0.00    -0.246 OA
ATOM     28  OCB L42 d1784      29.068  21.541  26.177  0.00  0.00    -0.389 OA
ATOM     29  CBG L42 d1784      25.146  19.830  30.297  0.00  0.00     0.094 C 
ATOM     30  NBN L42 d1784      23.948  18.895  28.494  0.00  0.00    -0.349 N 
ATOM     31  H   L42 d1784      28.000  19.771  26.216  0.00  0.00     0.093 H 
ATOM     32  H   L42 d1784      23.694  19.589  25.276  0.00  0.00     0.040 H 
ATOM     33  H   L42 d1784      23.695  17.990  25.980  0.00  0.00     0.040 H 
ATOM     34  H   L42 d1784      25.123  18.992  26.084  0.00  0.00     0.040 H 
ATOM     35  H   L42 d1784      21.566  17.280  31.213  0.00  0.00     0.212 HD
ATOM     36  H   L42 d1784      25.021  18.332  32.511  0.00  0.00     0.090 H 
ATOM     37  H   L42 d1784      27.690  22.079  28.164  0.00  0.00     0.095 H 
ATOM     38  H   L42 d1784      23.970  20.143  35.512  0.00  0.00     0.209 HD
ATOM     39  H   L42 d1784      30.310  19.497  27.470  0.00  0.00     0.085 H 
ATOM     40  H   L42 d1784      26.582  19.297  28.378  0.00  0.00     0.134 H 
ATOM     41  H   L42 d1784      23.790  17.509  30.819  0.00  0.00     0.132 H 
ATOM     42  H   L42 d1784      25.932  20.791  26.375  0.00  0.00     0.210 HD
ATOM     43  H   L42 d1784      26.071  20.813  31.903  0.00  0.00     0.093 H 
ATOM     44  H   L42 d1784      25.476  20.849  33.971  0.00  0.00     0.078 H 
ATOM     45  H   L42 d1784      25.851  19.316  34.511  0.00  0.00     0.078 H 
ATOM     46  H   L42 d1784      22.960  20.156  29.809  0.00  0.00     0.084 H 
ATOM     47  H   L42 d1784      29.419  22.187  26.809  0.00  0.00     0.210 HD
ATOM     48  H   L42 d1784      25.666  18.899  30.202  0.00  0.00     0.091 H 
ATOM     49  H   L42 d1784      24.410  18.034  28.378  0.00  0.00     0.163 HD
ENDROOT
TORSDOF 12
ENDMDL
MODEL 21
REMARK VINA RESULT:      -8.1      3.371      5.259
REMARK  0 active torsions:
REMARK  status: ('A' for Active; 'I' for Inactive)
REMARK       I    between atoms: CCA_2  and  OCB_28 
REMARK       I    between atoms: CBL_3  and  CBK_24 
REMARK       I    between atoms: OBM_4  and  CBE_20 
REMARK       I    between atoms: CBI_5  and  CBJ_25 
REMARK       I    between atoms: CBY_7  and  OBZ_22 
REMARK       I    between atoms: SBW_8  and  OBP_27 
REMARK       I    between atoms: OBR_9  and  CBJ_25 
REMARK       I    between atoms: CCD_10  and  CCE_18 
REMARK       I    between atoms: OBO_12  and  CBG_29 
REMARK       I    between atoms: OBO_12  and  CBX_17 
REMARK       I    between atoms: CBH_23  and  OBP_27 
REMARK       I    between atoms: CBK_24  and  NBN_30 
REMARK       I    between atoms: CBF_26  and  NBN_30 
ROOT
ATOM      1  OBS L42 d1784      25.855  17.051  31.170  0.00  0.00    -0.274 OA
ATOM      2  CCA L42 d1784      22.429  18.267  26.880  0.00  0.00     0.084 C 
ATOM      3  CBL L42 d1784      26.388  16.746  28.848  0.00  0.00    -0.003 C 
ATOM      4  OBM L42 d1784      28.288  20.441  31.769  0.00  0.00    -0.369 OA
ATOM      5  CBI L42 d1784      25.333  22.655  31.441  0.00  0.00     0.090 C 
ATOM      6  OBU L42 d1784      21.468  20.726  31.901  0.00  0.00    -0.572 OA
ATOM      7  CBY L42 d1784      22.518  18.458  28.374  0.00  0.00     0.111 C 
ATOM      8  SBW L42 d1784      22.416  21.231  32.989  0.00  0.00     0.252 S 
ATOM      9  OBR L42 d1784      25.246  24.072  33.107  0.00  0.00    -0.398 OA
ATOM     10  CCD L42 d1784      22.489  20.834  26.919  0.00  0.00     0.147 C 
ATOM     11  OCG L42 d1784      22.460  23.177  27.074  0.00  0.00    -0.642 OA
ATOM     12  OBO L42 d1784      23.644  19.812  30.042  0.00  0.00    -0.348 OA
ATOM     13  OCH L42 d1784      22.829  20.845  28.232  0.00  0.00    -0.311 OA
ATOM     14  CCC L42 d1784      22.262  19.645  26.207  0.00  0.00    -0.034 C 
ATOM     15  OBQ L42 d1784      26.524  22.081  32.079  0.00  0.00    -0.349 OA
ATOM     16  OBV L42 d1784      22.295  20.513  34.228  0.00  0.00    -0.572 OA
ATOM     17  CBX L42 d1784      23.472  19.649  28.670  0.00  0.00     0.165 C 
ATOM     18  CCE L42 d1784      22.376  22.208  26.270  0.00  0.00     0.233 C 
ATOM     19  OCF L42 d1784      22.128  22.289  25.040  0.00  0.00    -0.642 OA
ATOM     20  CBE L42 d1784      27.097  20.972  31.224  0.00  0.00     0.151 C 
ATOM     21  OBT L42 d1784      22.058  22.642  33.261  0.00  0.00    -0.572 OA
ATOM     22  OBZ L42 d1784      22.934  17.244  28.961  0.00  0.00    -0.388 OA
ATOM     23  CBH L42 d1784      24.224  21.602  31.295  0.00  0.00     0.114 C 
ATOM     24  CBK L42 d1784      26.161  17.591  30.095  0.00  0.00     0.214 C 
ATOM     25  CBJ L42 d1784      24.526  23.899  32.024  0.00  0.00     0.043 C 
ATOM     26  CBF L42 d1784      26.027  19.886  30.937  0.00  0.00     0.087 C 
ATOM     27  OBP L42 d1784      23.862  21.079  32.620  0.00  0.00    -0.246 OA
ATOM     28  OCB L42 d1784      21.261  17.503  26.659  0.00  0.00    -0.389 OA
ATOM     29  CBG L42 d1784      24.761  20.585  30.339  0.00  0.00     0.094 C 
ATOM     30  NBN L42 d1784      26.363  18.908  29.912  0.00  0.00    -0.349 N 
ATOM     31  H   L42 d1784      23.301  17.789  26.484  0.00  0.00     0.093 H 
ATOM     32  H   L42 d1784      26.206  15.717  29.077  0.00  0.00     0.040 H 
ATOM     33  H   L42 d1784      27.398  16.865  28.515  0.00  0.00     0.040 H 
ATOM     34  H   L42 d1784      25.718  17.062  28.076  0.00  0.00     0.040 H 
ATOM     35  H   L42 d1784      28.920  21.159  31.929  0.00  0.00     0.212 HD
ATOM     36  H   L42 d1784      25.847  23.019  30.576  0.00  0.00     0.090 H 
ATOM     37  H   L42 d1784      21.569  18.705  28.803  0.00  0.00     0.095 H 
ATOM     38  H   L42 d1784      24.892  24.819  33.615  0.00  0.00     0.209 HD
ATOM     39  H   L42 d1784      21.979  19.693  25.216  0.00  0.00     0.085 H 
ATOM     40  H   L42 d1784      24.407  19.461  28.185  0.00  0.00     0.134 H 
ATOM     41  H   L42 d1784      27.376  21.395  30.282  0.00  0.00     0.132 H 
ATOM     42  H   L42 d1784      23.794  16.987  28.595  0.00  0.00     0.210 HD
ATOM     43  H   L42 d1784      23.306  21.988  30.902  0.00  0.00     0.093 H 
ATOM     44  H   L42 d1784      23.508  23.657  32.246  0.00  0.00     0.078 H 
ATOM     45  H   L42 d1784      24.425  24.747  31.379  0.00  0.00     0.078 H 
ATOM     46  H   L42 d1784      25.911  19.389  31.878  0.00  0.00     0.084 H 
ATOM     47  H   L42 d1784      20.495  17.969  27.031  0.00  0.00     0.210 HD
ATOM     48  H   L42 d1784      25.163  20.955  29.418  0.00  0.00     0.091 H 
ATOM     49  H   L42 d1784      26.749  19.219  29.062  0.00  0.00     0.163 HD
ENDROOT
TORSDOF 12
ENDMDL
MODEL 22
REMARK VINA RESULT:      -8.1      3.090      6.624
REMARK  0 active torsions:
REMARK  status: ('A' for Active; 'I' for Inactive)
REMARK       I    between atoms: CCA_2  and  OCB_28 
REMARK       I    between atoms: CBL_3  and  CBK_24 
REMARK       I    between atoms: OBM_4  and  CBE_20 
REMARK       I    between atoms: CBI_5  and  CBJ_25 
REMARK       I    between atoms: CBY_7  and  OBZ_22 
REMARK       I    between atoms: SBW_8  and  OBP_27 
REMARK       I    between atoms: OBR_9  and  CBJ_25 
REMARK       I    between atoms: CCD_10  and  CCE_18 
REMARK       I    between atoms: OBO_12  and  CBG_29 
REMARK       I    between atoms: OBO_12  and  CBX_17 
REMARK       I    between atoms: CBH_23  and  OBP_27 
REMARK       I    between atoms: CBK_24  and  NBN_30 
REMARK       I    between atoms: CBF_26  and  NBN_30 
ROOT
ATOM      1  OBS L42 d1784      27.738  20.207  29.110  0.00  0.00    -0.274 OA
ATOM      2  CCA L42 d1784      31.956  20.976  32.748  0.00  0.00     0.084 C 
ATOM      3  CBL L42 d1784      29.605  18.723  29.394  0.00  0.00    -0.003 C 
ATOM      4  OBM L42 d1784      24.900  17.768  31.051  0.00  0.00    -0.369 OA
ATOM      5  CBI L42 d1784      25.237  19.787  34.142  0.00  0.00     0.090 C 
ATOM      6  OBU L42 d1784      27.063  23.699  33.653  0.00  0.00    -0.572 OA
ATOM      7  CBY L42 d1784      30.605  21.557  32.410  0.00  0.00     0.111 C 
ATOM      8  SBW L42 d1784      25.608  23.291  33.418  0.00  0.00     0.252 S 
ATOM      9  OBR L42 d1784      23.268  20.383  34.890  0.00  0.00    -0.398 OA
ATOM     10  CCD L42 d1784      30.776  20.485  34.976  0.00  0.00     0.147 C 
ATOM     11  OCG L42 d1784      29.630  20.165  37.000  0.00  0.00    -0.642 OA
ATOM     12  OBO L42 d1784      28.237  21.111  32.676  0.00  0.00    -0.348 OA
ATOM     13  OCH L42 d1784      29.566  20.796  34.448  0.00  0.00    -0.311 OA
ATOM     14  CCC L42 d1784      31.966  20.563  34.234  0.00  0.00    -0.034 C 
ATOM     15  OBQ L42 d1784      24.544  19.152  33.016  0.00  0.00    -0.349 OA
ATOM     16  OBV L42 d1784      24.941  24.098  32.434  0.00  0.00    -0.572 OA
ATOM     17  CBX L42 d1784      29.503  20.654  33.030  0.00  0.00     0.165 C 
ATOM     18  CCE L42 d1784      30.750  20.037  36.432  0.00  0.00     0.233 C 
ATOM     19  OCF L42 d1784      31.818  19.668  36.982  0.00  0.00    -0.642 OA
ATOM     20  CBE L42 d1784      25.536  18.455  32.111  0.00  0.00     0.151 C 
ATOM     21  OBT L42 d1784      24.889  23.476  34.700  0.00  0.00    -0.572 OA
ATOM     22  OBZ L42 d1784      30.507  21.684  31.008  0.00  0.00    -0.388 OA
ATOM     23  CBH L42 d1784      26.211  20.870  33.651  0.00  0.00     0.114 C 
ATOM     24  CBK L42 d1784      28.283  19.347  29.821  0.00  0.00     0.214 C 
ATOM     25  CBJ L42 d1784      24.493  20.537  35.336  0.00  0.00     0.043 C 
ATOM     26  CBF L42 d1784      26.626  19.444  31.620  0.00  0.00     0.087 C 
ATOM     27  OBP L42 d1784      25.471  21.891  32.895  0.00  0.00    -0.246 OA
ATOM     28  OCB L42 d1784      32.885  22.023  32.556  0.00  0.00    -0.389 OA
ATOM     29  CBG L42 d1784      27.259  20.142  32.871  0.00  0.00     0.094 C 
ATOM     30  NBN L42 d1784      27.785  18.852  30.968  0.00  0.00    -0.349 N 
ATOM     31  H   L42 d1784      32.187  20.120  32.148  0.00  0.00     0.093 H 
ATOM     32  H   L42 d1784      29.931  19.170  28.478  0.00  0.00     0.040 H 
ATOM     33  H   L42 d1784      29.473  17.670  29.250  0.00  0.00     0.040 H 
ATOM     34  H   L42 d1784      30.341  18.890  30.153  0.00  0.00     0.040 H 
ATOM     35  H   L42 d1784      24.230  17.166  31.412  0.00  0.00     0.212 HD
ATOM     36  H   L42 d1784      25.613  18.875  34.558  0.00  0.00     0.090 H 
ATOM     37  H   L42 d1784      30.476  22.536  32.823  0.00  0.00     0.095 H 
ATOM     38  H   L42 d1784      22.645  20.792  35.511  0.00  0.00     0.209 HD
ATOM     39  H   L42 d1784      32.864  20.341  34.692  0.00  0.00     0.085 H 
ATOM     40  H   L42 d1784      29.658  19.651  32.691  0.00  0.00     0.134 H 
ATOM     41  H   L42 d1784      26.031  17.701  32.686  0.00  0.00     0.132 H 
ATOM     42  H   L42 d1784      30.620  20.814  30.596  0.00  0.00     0.210 HD
ATOM     43  H   L42 d1784      26.689  21.416  34.437  0.00  0.00     0.093 H 
ATOM     44  H   L42 d1784      24.774  21.566  35.409  0.00  0.00     0.078 H 
ATOM     45  H   L42 d1784      24.691  20.174  36.323  0.00  0.00     0.078 H 
ATOM     46  H   L42 d1784      26.107  20.070  30.924  0.00  0.00     0.084 H 
ATOM     47  H   L42 d1784      32.642  22.777  33.116  0.00  0.00     0.210 HD
ATOM     48  H   L42 d1784      27.717  19.300  33.348  0.00  0.00     0.091 H 
ATOM     49  H   L42 d1784      28.215  18.068  31.377  0.00  0.00     0.163 HD
ENDROOT
TORSDOF 12
ENDMDL
MODEL 23
REMARK VINA RESULT:      -8.1      3.312      5.952
REMARK  0 active torsions:
REMARK  status: ('A' for Active; 'I' for Inactive)
REMARK       I    between atoms: CCA_2  and  OCB_28 
REMARK       I    between atoms: CBL_3  and  CBK_24 
REMARK       I    between atoms: OBM_4  and  CBE_20 
REMARK       I    between atoms: CBI_5  and  CBJ_25 
REMARK       I    between atoms: CBY_7  and  OBZ_22 
REMARK       I    between atoms: SBW_8  and  OBP_27 
REMARK       I    between atoms: OBR_9  and  CBJ_25 
REMARK       I    between atoms: CCD_10  and  CCE_18 
REMARK       I    between atoms: OBO_12  and  CBG_29 
REMARK       I    between atoms: OBO_12  and  CBX_17 
REMARK       I    between atoms: CBH_23  and  OBP_27 
REMARK       I    between atoms: CBK_24  and  NBN_30 
REMARK       I    between atoms: CBF_26  and  NBN_30 
ROOT
ATOM      1  OBS L42 d1784      23.029  19.981  26.415  0.00  0.00    -0.274 OA
ATOM      2  CCA L42 d1784      21.897  20.192  31.919  0.00  0.00     0.084 C 
ATOM      3  CBL L42 d1784      22.045  21.854  27.552  0.00  0.00    -0.003 C 
ATOM      4  OBM L42 d1784      26.847  21.694  25.902  0.00  0.00    -0.369 OA
ATOM      5  CBI L42 d1784      28.122  19.798  28.821  0.00  0.00     0.090 C 
ATOM      6  OBU L42 d1784      25.705  16.413  30.075  0.00  0.00    -0.572 OA
ATOM      7  CBY L42 d1784      22.617  19.316  30.923  0.00  0.00     0.111 C 
ATOM      8  SBW L42 d1784      26.750  16.476  28.961  0.00  0.00     0.252 S 
ATOM      9  OBR L42 d1784      29.982  18.763  28.312  0.00  0.00    -0.398 OA
ATOM     10  CCD L42 d1784      24.263  20.391  32.898  0.00  0.00     0.147 C 
ATOM     11  OCG L42 d1784      26.447  20.433  33.760  0.00  0.00    -0.642 OA
ATOM     12  OBO L42 d1784      24.678  19.204  29.650  0.00  0.00    -0.348 OA
ATOM     13  OCH L42 d1784      24.809  19.811  31.799  0.00  0.00    -0.311 OA
ATOM     14  CCC L42 d1784      22.880  20.591  33.038  0.00  0.00    -0.034 C 
ATOM     15  OBQ L42 d1784      28.076  20.260  27.429  0.00  0.00    -0.349 OA
ATOM     16  OBV L42 d1784      26.507  15.540  27.898  0.00  0.00    -0.572 OA
ATOM     17  CBX L42 d1784      24.009  19.940  30.624  0.00  0.00     0.165 C 
ATOM     18  CCE L42 d1784      25.262  20.817  33.966  0.00  0.00     0.233 C 
ATOM     19  OCF L42 d1784      24.850  21.419  34.989  0.00  0.00    -0.642 OA
ATOM     20  CBE L42 d1784      26.886  21.169  27.214  0.00  0.00     0.151 C 
ATOM     21  OBT L42 d1784      28.057  16.127  29.566  0.00  0.00    -0.572 OA
ATOM     22  OBZ L42 d1784      21.806  19.174  29.777  0.00  0.00    -0.388 OA
ATOM     23  CBH L42 d1784      26.875  18.970  29.169  0.00  0.00     0.114 C 
ATOM     24  CBK L42 d1784      23.208  20.941  27.182  0.00  0.00     0.214 C 
ATOM     25  CBJ L42 d1784      29.290  18.894  29.419  0.00  0.00     0.043 C 
ATOM     26  CBF L42 d1784      25.567  20.459  27.620  0.00  0.00     0.087 C 
ATOM     27  OBP L42 d1784      26.789  17.808  28.272  0.00  0.00    -0.246 OA
ATOM     28  OCB L42 d1784      20.875  19.387  32.470  0.00  0.00    -0.389 OA
ATOM     29  CBG L42 d1784      25.725  19.922  29.082  0.00  0.00     0.094 C 
ATOM     30  NBN L42 d1784      24.386  21.304  27.718  0.00  0.00    -0.349 N 
ATOM     31  H   L42 d1784      21.507  21.079  31.465  0.00  0.00     0.093 H 
ATOM     32  H   L42 d1784      21.150  21.496  27.088  0.00  0.00     0.040 H 
ATOM     33  H   L42 d1784      22.251  22.848  27.213  0.00  0.00     0.040 H 
ATOM     34  H   L42 d1784      21.919  21.858  28.614  0.00  0.00     0.040 H 
ATOM     35  H   L42 d1784      27.692  22.125  25.700  0.00  0.00     0.212 HD
ATOM     36  H   L42 d1784      28.257  20.771  29.247  0.00  0.00     0.090 H 
ATOM     37  H   L42 d1784      22.792  18.333  31.307  0.00  0.00     0.095 H 
ATOM     38  H   L42 d1784      30.767  18.220  28.485  0.00  0.00     0.209 HD
ATOM     39  H   L42 d1784      22.515  21.012  33.906  0.00  0.00     0.085 H 
ATOM     40  H   L42 d1784      23.866  20.953  30.311  0.00  0.00     0.134 H 
ATOM     41  H   L42 d1784      26.998  22.015  27.859  0.00  0.00     0.132 H 
ATOM     42  H   L42 d1784      21.625  20.049  29.399  0.00  0.00     0.210 HD
ATOM     43  H   L42 d1784      26.893  18.547  30.151  0.00  0.00     0.093 H 
ATOM     44  H   L42 d1784      28.931  17.956  29.789  0.00  0.00     0.078 H 
ATOM     45  H   L42 d1784      29.813  19.289  30.265  0.00  0.00     0.078 H 
ATOM     46  H   L42 d1784      25.422  19.733  26.847  0.00  0.00     0.084 H 
ATOM     47  H   L42 d1784      21.268  18.595  32.871  0.00  0.00     0.210 HD
ATOM     48  H   L42 d1784      25.822  20.845  29.615  0.00  0.00     0.091 H 
ATOM     49  H   L42 d1784      24.452  22.165  28.189  0.00  0.00     0.163 HD
ENDROOT
TORSDOF 12
ENDMDL
MODEL 24
REMARK VINA RESULT:      -8.0      3.000      5.966
REMARK  0 active torsions:
REMARK  status: ('A' for Active; 'I' for Inactive)
REMARK       I    between atoms: CCA_2  and  OCB_28 
REMARK       I    between atoms: CBL_3  and  CBK_24 
REMARK       I    between atoms: OBM_4  and  CBE_20 
REMARK       I    between atoms: CBI_5  and  CBJ_25 
REMARK       I    between atoms: CBY_7  and  OBZ_22 
REMARK       I    between atoms: SBW_8  and  OBP_27 
REMARK       I    between atoms: OBR_9  and  CBJ_25 
REMARK       I    between atoms: CCD_10  and  CCE_18 
REMARK       I    between atoms: OBO_12  and  CBG_29 
REMARK       I    between atoms: OBO_12  and  CBX_17 
REMARK       I    between atoms: CBH_23  and  OBP_27 
REMARK       I    between atoms: CBK_24  and  NBN_30 
REMARK       I    between atoms: CBF_26  and  NBN_30 
ROOT
ATOM      1  OBS L42 d1784      23.120  20.366  27.994  0.00  0.00    -0.274 OA
ATOM      2  CCA L42 d1784      24.072  20.881  33.512  0.00  0.00     0.084 C 
ATOM      3  CBL L42 d1784      22.780  22.370  29.273  0.00  0.00    -0.003 C 
ATOM      4  OBM L42 d1784      26.629  21.645  26.039  0.00  0.00    -0.369 OA
ATOM      5  CBI L42 d1784      28.701  19.723  28.439  0.00  0.00     0.090 C 
ATOM      6  OBU L42 d1784      26.614  16.659  30.703  0.00  0.00    -0.572 OA
ATOM      7  CBY L42 d1784      24.305  19.901  32.389  0.00  0.00     0.111 C 
ATOM      8  SBW L42 d1784      27.187  16.573  29.289  0.00  0.00     0.252 S 
ATOM      9  OBR L42 d1784      30.154  18.479  27.376  0.00  0.00    -0.398 OA
ATOM     10  CCD L42 d1784      26.639  20.860  33.570  0.00  0.00     0.147 C 
ATOM     11  OCG L42 d1784      28.982  20.699  33.594  0.00  0.00    -0.642 OA
ATOM     12  OBO L42 d1784      25.749  19.527  30.477  0.00  0.00    -0.348 OA
ATOM     13  OCH L42 d1784      26.699  20.189  32.392  0.00  0.00    -0.311 OA
ATOM     14  CCC L42 d1784      25.423  21.211  34.178  0.00  0.00    -0.034 C 
ATOM     15  OBQ L42 d1784      28.196  20.140  27.126  0.00  0.00    -0.349 OA
ATOM     16  OBV L42 d1784      26.497  15.633  28.450  0.00  0.00    -0.572 OA
ATOM     17  CBX L42 d1784      25.544  20.362  31.572  0.00  0.00     0.165 C 
ATOM     18  CCE L42 d1784      27.989  21.213  34.181  0.00  0.00     0.233 C 
ATOM     19  OCF L42 d1784      28.028  21.890  35.239  0.00  0.00    -0.642 OA
ATOM     20  CBE L42 d1784      27.093  21.163  27.285  0.00  0.00     0.151 C 
ATOM     21  OBT L42 d1784      28.588  16.107  29.413  0.00  0.00    -0.572 OA
ATOM     22  OBZ L42 d1784      23.126  19.808  31.619  0.00  0.00    -0.388 OA
ATOM     23  CBH L42 d1784      27.596  19.044  29.264  0.00  0.00     0.114 C 
ATOM     24  CBK L42 d1784      23.646  21.326  28.579  0.00  0.00     0.214 C 
ATOM     25  CBJ L42 d1784      29.922  18.720  28.645  0.00  0.00     0.043 C 
ATOM     26  CBF L42 d1784      25.953  20.612  28.181  0.00  0.00     0.087 C 
ATOM     27  OBP L42 d1784      27.091  17.869  28.540  0.00  0.00    -0.246 OA
ATOM     28  OCB L42 d1784      23.251  20.209  34.445  0.00  0.00    -0.389 OA
ATOM     29  CBG L42 d1784      26.580  20.110  29.526  0.00  0.00     0.094 C 
ATOM     30  NBN L42 d1784      24.965  21.580  28.634  0.00  0.00    -0.349 N 
ATOM     31  H   L42 d1784      23.623  21.790  33.165  0.00  0.00     0.093 H 
ATOM     32  H   L42 d1784      21.750  22.095  29.184  0.00  0.00     0.040 H 
ATOM     33  H   L42 d1784      22.935  23.325  28.815  0.00  0.00     0.040 H 
ATOM     34  H   L42 d1784      23.046  22.423  30.308  0.00  0.00     0.040 H 
ATOM     35  H   L42 d1784      27.379  21.976  25.521  0.00  0.00     0.212 HD
ATOM     36  H   L42 d1784      29.065  20.690  28.720  0.00  0.00     0.090 H 
ATOM     37  H   L42 d1784      24.520  18.918  32.753  0.00  0.00     0.095 H 
ATOM     38  H   L42 d1784      30.898  17.862  27.296  0.00  0.00     0.209 HD
ATOM     39  H   L42 d1784      25.434  21.698  35.088  0.00  0.00     0.085 H 
ATOM     40  H   L42 d1784      25.386  21.374  31.260  0.00  0.00     0.134 H 
ATOM     41  H   L42 d1784      27.504  22.014  27.788  0.00  0.00     0.132 H 
ATOM     42  H   L42 d1784      22.898  20.683  31.270  0.00  0.00     0.210 HD
ATOM     43  H   L42 d1784      27.930  18.655  30.203  0.00  0.00     0.093 H 
ATOM     44  H   L42 d1784      29.641  17.839  29.183  0.00  0.00     0.078 H 
ATOM     45  H   L42 d1784      30.748  19.085  29.220  0.00  0.00     0.078 H 
ATOM     46  H   L42 d1784      25.476  19.879  27.564  0.00  0.00     0.084 H 
ATOM     47  H   L42 d1784      23.692  19.394  34.734  0.00  0.00     0.210 HD
ATOM     48  H   L42 d1784      26.943  21.035  29.924  0.00  0.00     0.091 H 
ATOM     49  H   L42 d1784      25.271  22.445  28.990  0.00  0.00     0.163 HD
ENDROOT
TORSDOF 12
ENDMDL
MODEL 25
REMARK VINA RESULT:      -8.0      1.936      2.588
REMARK  0 active torsions:
REMARK  status: ('A' for Active; 'I' for Inactive)
REMARK       I    between atoms: CCA_2  and  OCB_28 
REMARK       I    between atoms: CBL_3  and  CBK_24 
REMARK       I    between atoms: OBM_4  and  CBE_20 
REMARK       I    between atoms: CBI_5  and  CBJ_25 
REMARK       I    between atoms: CBY_7  and  OBZ_22 
REMARK       I    between atoms: SBW_8  and  OBP_27 
REMARK       I    between atoms: OBR_9  and  CBJ_25 
REMARK       I    between atoms: CCD_10  and  CCE_18 
REMARK       I    between atoms: OBO_12  and  CBG_29 
REMARK       I    between atoms: OBO_12  and  CBX_17 
REMARK       I    between atoms: CBH_23  and  OBP_27 
REMARK       I    between atoms: CBK_24  and  NBN_30 
REMARK       I    between atoms: CBF_26  and  NBN_30 
ROOT
ATOM      1  OBS L42 d1784      28.434  17.108  29.872  0.00  0.00    -0.274 OA
ATOM      2  CCA L42 d1784      24.022  20.216  31.450  0.00  0.00     0.084 C 
ATOM      3  CBL L42 d1784      26.748  17.964  28.392  0.00  0.00    -0.003 C 
ATOM      4  OBM L42 d1784      31.468  19.807  28.739  0.00  0.00    -0.369 OA
ATOM      5  CBI L42 d1784      30.778  21.883  31.731  0.00  0.00     0.090 C 
ATOM      6  OBU L42 d1784      28.520  19.944  34.895  0.00  0.00    -0.572 OA
ATOM      7  CBY L42 d1784      25.306  19.664  32.019  0.00  0.00     0.111 C 
ATOM      8  SBW L42 d1784      30.021  19.868  34.613  0.00  0.00     0.252 S 
ATOM      9  OBR L42 d1784      32.633  22.321  32.808  0.00  0.00    -0.398 OA
ATOM     10  CCD L42 d1784      25.168  22.447  32.003  0.00  0.00     0.147 C 
ATOM     11  OCG L42 d1784      26.268  24.425  32.630  0.00  0.00    -0.642 OA
ATOM     12  OBO L42 d1784      27.699  20.054  32.008  0.00  0.00    -0.348 OA
ATOM     13  OCH L42 d1784      26.352  21.827  32.235  0.00  0.00    -0.311 OA
ATOM     14  CCC L42 d1784      24.006  21.747  31.642  0.00  0.00    -0.034 C 
ATOM     15  OBQ L42 d1784      31.583  21.082  30.803  0.00  0.00    -0.349 OA
ATOM     16  OBV L42 d1784      30.623  18.641  35.056  0.00  0.00    -0.572 OA
ATOM     17  CBX L42 d1784      26.484  20.572  31.568  0.00  0.00     0.165 C 
ATOM     18  CCE L42 d1784      25.194  23.963  32.156  0.00  0.00     0.233 C 
ATOM     19  OCF L42 d1784      24.157  24.625  31.897  0.00  0.00    -0.642 OA
ATOM     20  CBE L42 d1784      30.716  20.527  29.695  0.00  0.00     0.151 C 
ATOM     21  OBT L42 d1784      30.664  20.971  35.364  0.00  0.00    -0.572 OA
ATOM     22  OBZ L42 d1784      25.441  18.321  31.609  0.00  0.00    -0.388 OA
ATOM     23  CBH L42 d1784      29.702  21.023  32.413  0.00  0.00     0.114 C 
ATOM     24  CBK L42 d1784      27.970  18.102  29.291  0.00  0.00     0.214 C 
ATOM     25  CBJ L42 d1784      31.382  22.687  32.968  0.00  0.00     0.043 C 
ATOM     26  CBF L42 d1784      29.535  19.705  30.276  0.00  0.00     0.087 C 
ATOM     27  OBP L42 d1784      30.342  19.923  33.148  0.00  0.00    -0.246 OA
ATOM     28  OCB L42 d1784      22.983  19.646  32.219  0.00  0.00    -0.389 OA
ATOM     29  CBG L42 d1784      28.777  20.597  31.317  0.00  0.00     0.094 C 
ATOM     30  NBN L42 d1784      28.480  19.345  29.341  0.00  0.00    -0.349 N 
ATOM     31  H   L42 d1784      23.917  19.995  30.408  0.00  0.00     0.093 H 
ATOM     32  H   L42 d1784      26.406  16.951  28.408  0.00  0.00     0.040 H 
ATOM     33  H   L42 d1784      27.009  18.236  27.390  0.00  0.00     0.040 H 
ATOM     34  H   L42 d1784      25.970  18.608  28.745  0.00  0.00     0.040 H 
ATOM     35  H   L42 d1784      32.190  20.364  28.409  0.00  0.00     0.212 HD
ATOM     36  H   L42 d1784      30.498  22.623  31.010  0.00  0.00     0.090 H 
ATOM     37  H   L42 d1784      25.303  19.667  33.090  0.00  0.00     0.095 H 
ATOM     38  H   L42 d1784      33.179  22.729  33.498  0.00  0.00     0.209 HD
ATOM     39  H   L42 d1784      23.124  22.265  31.504  0.00  0.00     0.085 H 
ATOM     40  H   L42 d1784      26.462  20.648  30.501  0.00  0.00     0.134 H 
ATOM     41  H   L42 d1784      30.292  21.354  29.165  0.00  0.00     0.132 H 
ATOM     42  H   L42 d1784      25.447  18.278  30.640  0.00  0.00     0.210 HD
ATOM     43  H   L42 d1784      29.133  21.544  33.155  0.00  0.00     0.093 H 
ATOM     44  H   L42 d1784      30.979  22.360  33.903  0.00  0.00     0.078 H 
ATOM     45  H   L42 d1784      31.193  23.740  32.991  0.00  0.00     0.078 H 
ATOM     46  H   L42 d1784      30.001  18.816  30.646  0.00  0.00     0.084 H 
ATOM     47  H   L42 d1784      23.114  19.869  33.154  0.00  0.00     0.210 HD
ATOM     48  H   L42 d1784      28.405  21.367  30.673  0.00  0.00     0.091 H 
ATOM     49  H   L42 d1784      28.130  20.030  28.727  0.00  0.00     0.163 HD
ENDROOT
TORSDOF 12
ENDMDL
MODEL 26
REMARK VINA RESULT:      -8.0      3.138      4.958
REMARK  0 active torsions:
REMARK  status: ('A' for Active; 'I' for Inactive)
REMARK       I    between atoms: CCA_2  and  OCB_28 
REMARK       I    between atoms: CBL_3  and  CBK_24 
REMARK       I    between atoms: OBM_4  and  CBE_20 
REMARK       I    between atoms: CBI_5  and  CBJ_25 
REMARK       I    between atoms: CBY_7  and  OBZ_22 
REMARK       I    between atoms: SBW_8  and  OBP_27 
REMARK       I    between atoms: OBR_9  and  CBJ_25 
REMARK       I    between atoms: CCD_10  and  CCE_18 
REMARK       I    between atoms: OBO_12  and  CBG_29 
REMARK       I    between atoms: OBO_12  and  CBX_17 
REMARK       I    between atoms: CBH_23  and  OBP_27 
REMARK       I    between atoms: CBK_24  and  NBN_30 
REMARK       I    between atoms: CBF_26  and  NBN_30 
ROOT
ATOM      1  OBS L42 d1784      29.827  20.688  34.354  0.00  0.00    -0.274 OA
ATOM      2  CCA L42 d1784      28.392  18.954  29.201  0.00  0.00     0.084 C 
ATOM      3  CBL L42 d1784      31.108  21.075  32.360  0.00  0.00    -0.003 C 
ATOM      4  OBM L42 d1784      28.372  24.625  34.751  0.00  0.00    -0.369 OA
ATOM      5  CBI L42 d1784      25.145  23.616  33.228  0.00  0.00     0.090 C 
ATOM      6  OBU L42 d1784      24.344  19.347  33.156  0.00  0.00    -0.572 OA
ATOM      7  CBY L42 d1784      27.810  19.046  30.590  0.00  0.00     0.111 C 
ATOM      8  SBW L42 d1784      24.127  20.338  34.301  0.00  0.00     0.252 S 
ATOM      9  OBR L42 d1784      23.469  24.292  34.462  0.00  0.00    -0.398 OA
ATOM     10  CCD L42 d1784      26.440  20.538  28.677  0.00  0.00     0.147 C 
ATOM     11  OCG L42 d1784      24.574  21.911  28.292  0.00  0.00    -0.642 OA
ATOM     12  OBO L42 d1784      26.851  20.651  32.134  0.00  0.00    -0.348 OA
ATOM     13  OCH L42 d1784      26.194  20.734  29.997  0.00  0.00    -0.311 OA
ATOM     14  CCC L42 d1784      27.459  19.689  28.217  0.00  0.00    -0.034 C 
ATOM     15  OBQ L42 d1784      26.037  24.181  34.247  0.00  0.00    -0.349 OA
ATOM     16  OBV L42 d1784      24.210  19.733  35.601  0.00  0.00    -0.572 OA
ATOM     17  CBX L42 d1784      27.326  20.502  30.834  0.00  0.00     0.165 C 
ATOM     18  CCE L42 d1784      25.533  21.314  27.730  0.00  0.00     0.233 C 
ATOM     19  OCF L42 d1784      25.732  21.241  26.491  0.00  0.00    -0.642 OA
ATOM     20  CBE L42 d1784      27.482  24.028  33.828  0.00  0.00     0.151 C 
ATOM     21  OBT L42 d1784      22.757  20.882  34.154  0.00  0.00    -0.572 OA
ATOM     22  OBZ L42 d1784      28.781  18.612  31.517  0.00  0.00    -0.388 OA
ATOM     23  CBH L42 d1784      25.389  22.109  33.057  0.00  0.00     0.114 C 
ATOM     24  CBK L42 d1784      29.929  21.323  33.292  0.00  0.00     0.214 C 
ATOM     25  CBJ L42 d1784      23.555  23.682  33.304  0.00  0.00     0.043 C 
ATOM     26  CBF L42 d1784      27.820  22.540  33.541  0.00  0.00     0.087 C 
ATOM     27  OBP L42 d1784      25.162  21.423  34.337  0.00  0.00    -0.246 OA
ATOM     28  OCB L42 d1784      28.405  17.578  28.880  0.00  0.00    -0.389 OA
ATOM     29  CBG L42 d1784      26.777  21.987  32.512  0.00  0.00     0.094 C 
ATOM     30  NBN L42 d1784      29.088  22.286  32.874  0.00  0.00    -0.349 N 
ATOM     31  H   L42 d1784      29.369  19.388  29.146  0.00  0.00     0.093 H 
ATOM     32  H   L42 d1784      31.724  20.299  32.763  0.00  0.00     0.040 H 
ATOM     33  H   L42 d1784      31.682  21.973  32.264  0.00  0.00     0.040 H 
ATOM     34  H   L42 d1784      30.746  20.779  31.398  0.00  0.00     0.040 H 
ATOM     35  H   L42 d1784      28.117  25.549  34.894  0.00  0.00     0.212 HD
ATOM     36  H   L42 d1784      25.430  24.299  32.455  0.00  0.00     0.090 H 
ATOM     37  H   L42 d1784      26.957  18.409  30.710  0.00  0.00     0.095 H 
ATOM     38  H   L42 d1784      22.535  24.426  34.688  0.00  0.00     0.209 HD
ATOM     39  H   L42 d1784      27.587  19.554  27.202  0.00  0.00     0.085 H 
ATOM     40  H   L42 d1784      28.143  21.166  30.645  0.00  0.00     0.134 H 
ATOM     41  H   L42 d1784      27.617  24.563  32.911  0.00  0.00     0.132 H 
ATOM     42  H   L42 d1784      29.573  19.167  31.438  0.00  0.00     0.210 HD
ATOM     43  H   L42 d1784      24.714  21.633  32.377  0.00  0.00     0.093 H 
ATOM     44  H   L42 d1784      23.107  22.711  33.320  0.00  0.00     0.078 H 
ATOM     45  H   L42 d1784      23.057  24.150  32.480  0.00  0.00     0.078 H 
ATOM     46  H   L42 d1784      27.832  22.091  34.512  0.00  0.00     0.084 H 
ATOM     47  H   L42 d1784      27.504  17.223  28.941  0.00  0.00     0.210 HD
ATOM     48  H   L42 d1784      27.014  22.587  31.659  0.00  0.00     0.091 H 
ATOM     49  H   L42 d1784      29.338  22.834  32.096  0.00  0.00     0.163 HD
ENDROOT
TORSDOF 12
ENDMDL
MODEL 27
REMARK VINA RESULT:      -8.0      2.488      6.371
REMARK  0 active torsions:
REMARK  status: ('A' for Active; 'I' for Inactive)
REMARK       I    between atoms: CCA_2  and  OCB_28 
REMARK       I    between atoms: CBL_3  and  CBK_24 
REMARK       I    between atoms: OBM_4  and  CBE_20 
REMARK       I    between atoms: CBI_5  and  CBJ_25 
REMARK       I    between atoms: CBY_7  and  OBZ_22 
REMARK       I    between atoms: SBW_8  and  OBP_27 
REMARK       I    between atoms: OBR_9  and  CBJ_25 
REMARK       I    between atoms: CCD_10  and  CCE_18 
REMARK       I    between atoms: OBO_12  and  CBG_29 
REMARK       I    between atoms: OBO_12  and  CBX_17 
REMARK       I    between atoms: CBH_23  and  OBP_27 
REMARK       I    between atoms: CBK_24  and  NBN_30 
REMARK       I    between atoms: CBF_26  and  NBN_30 
ROOT
ATOM      1  OBS L42 d1784      29.230  20.493  28.342  0.00  0.00    -0.274 OA
ATOM      2  CCA L42 d1784      32.058  21.149  33.158  0.00  0.00     0.084 C 
ATOM      3  CBL L42 d1784      31.091  19.147  29.045  0.00  0.00    -0.003 C 
ATOM      4  OBM L42 d1784      26.254  17.598  29.075  0.00  0.00    -0.369 OA
ATOM      5  CBI L42 d1784      25.418  19.232  32.297  0.00  0.00     0.090 C 
ATOM      6  OBU L42 d1784      26.829  23.314  32.765  0.00  0.00    -0.572 OA
ATOM      7  CBY L42 d1784      30.809  21.652  32.477  0.00  0.00     0.111 C 
ATOM      8  SBW L42 d1784      25.568  22.818  32.056  0.00  0.00     0.252 S 
ATOM      9  OBR L42 d1784      23.260  19.560  32.455  0.00  0.00    -0.398 OA
ATOM     10  CCD L42 d1784      30.337  20.283  34.858  0.00  0.00     0.147 C 
ATOM     11  OCG L42 d1784      28.689  19.614  36.390  0.00  0.00    -0.642 OA
ATOM     12  OBO L42 d1784      28.538  20.979  31.957  0.00  0.00    -0.348 OA
ATOM     13  OCH L42 d1784      29.310  20.555  34.015  0.00  0.00    -0.311 OA
ATOM     14  CCC L42 d1784      31.676  20.555  34.529  0.00  0.00    -0.034 C 
ATOM     15  OBQ L42 d1784      25.170  18.688  30.957  0.00  0.00    -0.349 OA
ATOM     16  OBV L42 d1784      25.133  23.683  30.996  0.00  0.00    -0.572 OA
ATOM     17  CBX L42 d1784      29.687  20.589  32.639  0.00  0.00     0.165 C 
ATOM     18  CCE L42 d1784      29.934  19.654  36.185  0.00  0.00     0.233 C 
ATOM     19  OCF L42 d1784      30.827  19.310  37.000  0.00  0.00    -0.642 OA
ATOM     20  CBE L42 d1784      26.461  18.197  30.339  0.00  0.00     0.151 C 
ATOM     21  OBT L42 d1784      24.485  22.778  33.067  0.00  0.00    -0.572 OA
ATOM     22  OBZ L42 d1784      31.116  21.947  31.132  0.00  0.00    -0.388 OA
ATOM     23  CBH L42 d1784      26.358  20.447  32.233  0.00  0.00     0.114 C 
ATOM     24  CBK L42 d1784      29.637  19.599  29.102  0.00  0.00     0.214 C 
ATOM     25  CBJ L42 d1784      24.271  19.760  33.268  0.00  0.00     0.043 C 
ATOM     26  CBF L42 d1784      27.523  19.328  30.304  0.00  0.00     0.087 C 
ATOM     27  OBP L42 d1784      25.760  21.489  31.387  0.00  0.00    -0.246 OA
ATOM     28  OCB L42 d1784      32.870  22.287  33.361  0.00  0.00    -0.389 OA
ATOM     29  CBG L42 d1784      27.668  19.914  31.749  0.00  0.00     0.094 C 
ATOM     30  NBN L42 d1784      28.884  18.924  29.987  0.00  0.00    -0.349 N 
ATOM     31  H   L42 d1784      32.556  20.399  32.580  0.00  0.00     0.093 H 
ATOM     32  H   L42 d1784      31.618  19.732  28.321  0.00  0.00     0.040 H 
ATOM     33  H   L42 d1784      31.134  18.114  28.770  0.00  0.00     0.040 H 
ATOM     34  H   L42 d1784      31.543  19.279  30.006  0.00  0.00     0.040 H 
ATOM     35  H   L42 d1784      25.584  16.901  29.153  0.00  0.00     0.212 HD
ATOM     36  H   L42 d1784      25.759  18.310  32.719  0.00  0.00     0.090 H 
ATOM     37  H   L42 d1784      30.447  22.557  32.921  0.00  0.00     0.095 H 
ATOM     38  H   L42 d1784      22.437  19.834  32.889  0.00  0.00     0.209 HD
ATOM     39  H   L42 d1784      32.417  20.353  35.218  0.00  0.00     0.085 H 
ATOM     40  H   L42 d1784      30.054  19.653  32.271  0.00  0.00     0.134 H 
ATOM     41  H   L42 d1784      26.850  17.421  30.965  0.00  0.00     0.132 H 
ATOM     42  H   L42 d1784      31.448  21.148  30.694  0.00  0.00     0.210 HD
ATOM     43  H   L42 d1784      26.513  20.927  33.177  0.00  0.00     0.093 H 
ATOM     44  H   L42 d1784      24.393  20.792  33.522  0.00  0.00     0.078 H 
ATOM     45  H   L42 d1784      24.208  19.293  34.230  0.00  0.00     0.078 H 
ATOM     46  H   L42 d1784      27.163  19.991  29.545  0.00  0.00     0.084 H 
ATOM     47  H   L42 d1784      32.385  22.941  33.888  0.00  0.00     0.210 HD
ATOM     48  H   L42 d1784      28.061  19.060  32.262  0.00  0.00     0.091 H 
ATOM     49  H   L42 d1784      29.264  18.133  30.433  0.00  0.00     0.163 HD
ENDROOT
TORSDOF 12
ENDMDL
MODEL 28
REMARK VINA RESULT:      -7.9      2.713      6.444
REMARK  0 active torsions:
REMARK  status: ('A' for Active; 'I' for Inactive)
REMARK       I    between atoms: CCA_2  and  OCB_28 
REMARK       I    between atoms: CBL_3  and  CBK_24 
REMARK       I    between atoms: OBM_4  and  CBE_20 
REMARK       I    between atoms: CBI_5  and  CBJ_25 
REMARK       I    between atoms: CBY_7  and  OBZ_22 
REMARK       I    between atoms: SBW_8  and  OBP_27 
REMARK       I    between atoms: OBR_9  and  CBJ_25 
REMARK       I    between atoms: CCD_10  and  CCE_18 
REMARK       I    between atoms: OBO_12  and  CBG_29 
REMARK       I    between atoms: OBO_12  and  CBX_17 
REMARK       I    between atoms: CBH_23  and  OBP_27 
REMARK       I    between atoms: CBK_24  and  NBN_30 
REMARK       I    between atoms: CBF_26  and  NBN_30 
ROOT
ATOM      1  OBS L42 d1784      24.772  18.810  31.996  0.00  0.00    -0.274 OA
ATOM      2  CCA L42 d1784      29.552  19.725  34.813  0.00  0.00     0.084 C 
ATOM      3  CBL L42 d1784      25.043  20.397  33.778  0.00  0.00    -0.003 C 
ATOM      4  OBM L42 d1784      24.657  21.632  28.867  0.00  0.00    -0.369 OA
ATOM      5  CBI L42 d1784      28.219  20.959  28.090  0.00  0.00     0.090 C 
ATOM      6  OBU L42 d1784      29.839  17.268  29.708  0.00  0.00    -0.572 OA
ATOM      7  CBY L42 d1784      29.054  18.981  33.598  0.00  0.00     0.111 C 
ATOM      8  SBW L42 d1784      29.026  17.471  28.429  0.00  0.00     0.252 S 
ATOM      9  OBR L42 d1784      28.480  20.578  25.951  0.00  0.00    -0.398 OA
ATOM     10  CCD L42 d1784      30.940  20.954  33.035  0.00  0.00     0.147 C 
ATOM     11  OCG L42 d1784      32.225  21.950  31.342  0.00  0.00    -0.642 OA
ATOM     12  OBO L42 d1784      28.378  19.355  31.300  0.00  0.00    -0.348 OA
ATOM     13  OCH L42 d1784      30.219  20.396  32.031  0.00  0.00    -0.311 OA
ATOM     14  CCC L42 d1784      30.695  20.670  34.389  0.00  0.00    -0.034 C 
ATOM     15  OBQ L42 d1784      26.781  21.079  27.825  0.00  0.00    -0.349 OA
ATOM     16  OBV L42 d1784      28.265  16.313  28.049  0.00  0.00    -0.572 OA
ATOM     17  CBX L42 d1784      28.909  19.986  32.421  0.00  0.00     0.165 C 
ATOM     18  CCE L42 d1784      32.031  21.918  32.588  0.00  0.00     0.233 C 
ATOM     19  OCF L42 d1784      32.705  22.530  33.455  0.00  0.00    -0.642 OA
ATOM     20  CBE L42 d1784      26.038  21.437  29.094  0.00  0.00     0.151 C 
ATOM     21  OBT L42 d1784      29.989  17.744  27.337  0.00  0.00    -0.572 OA
ATOM     22  OBZ L42 d1784      27.850  18.327  33.932  0.00  0.00    -0.388 OA
ATOM     23  CBH L42 d1784      28.503  19.829  29.092  0.00  0.00     0.114 C 
ATOM     24  CBK L42 d1784      25.237  19.905  32.350  0.00  0.00     0.214 C 
ATOM     25  CBJ L42 d1784      29.310  20.676  26.963  0.00  0.00     0.043 C 
ATOM     26  CBF L42 d1784      26.325  20.401  30.213  0.00  0.00     0.087 C 
ATOM     27  OBP L42 d1784      27.999  18.557  28.557  0.00  0.00    -0.246 OA
ATOM     28  OCB L42 d1784      30.070  18.739  35.682  0.00  0.00    -0.389 OA
ATOM     29  CBG L42 d1784      27.877  20.268  30.377  0.00  0.00     0.094 C 
ATOM     30  NBN L42 d1784      25.895  20.768  31.555  0.00  0.00    -0.349 N 
ATOM     31  H   L42 d1784      28.777  20.301  35.276  0.00  0.00     0.093 H 
ATOM     32  H   L42 d1784      24.515  19.656  34.341  0.00  0.00     0.040 H 
ATOM     33  H   L42 d1784      24.479  21.307  33.769  0.00  0.00     0.040 H 
ATOM     34  H   L42 d1784      25.997  20.573  34.228  0.00  0.00     0.040 H 
ATOM     35  H   L42 d1784      24.534  22.286  28.160  0.00  0.00     0.212 HD
ATOM     36  H   L42 d1784      28.354  21.981  28.379  0.00  0.00     0.090 H 
ATOM     37  H   L42 d1784      29.744  18.226  33.281  0.00  0.00     0.095 H 
ATOM     38  H   L42 d1784      28.981  20.399  25.139  0.00  0.00     0.209 HD
ATOM     39  H   L42 d1784      31.291  21.101  35.113  0.00  0.00     0.085 H 
ATOM     40  H   L42 d1784      28.284  20.793  32.741  0.00  0.00     0.134 H 
ATOM     41  H   L42 d1784      26.410  22.380  29.436  0.00  0.00     0.132 H 
ATOM     42  H   L42 d1784      27.197  18.981  34.226  0.00  0.00     0.210 HD
ATOM     43  H   L42 d1784      29.544  19.652  29.265  0.00  0.00     0.093 H 
ATOM     44  H   L42 d1784      29.850  19.769  27.137  0.00  0.00     0.078 H 
ATOM     45  H   L42 d1784      30.095  21.397  26.868  0.00  0.00     0.078 H 
ATOM     46  H   L42 d1784      25.792  19.529  29.895  0.00  0.00     0.084 H 
ATOM     47  H   L42 d1784      30.767  18.241  35.227  0.00  0.00     0.210 HD
ATOM     48  H   L42 d1784      28.118  21.252  30.720  0.00  0.00     0.091 H 
ATOM     49  H   L42 d1784      26.090  21.672  31.889  0.00  0.00     0.163 HD
ENDROOT
TORSDOF 12
ENDMDL
MODEL 29
REMARK VINA RESULT:      -7.9      3.724      6.397
REMARK  0 active torsions:
REMARK  status: ('A' for Active; 'I' for Inactive)
REMARK       I    between atoms: CCA_2  and  OCB_28 
REMARK       I    between atoms: CBL_3  and  CBK_24 
REMARK       I    between atoms: OBM_4  and  CBE_20 
REMARK       I    between atoms: CBI_5  and  CBJ_25 
REMARK       I    between atoms: CBY_7  and  OBZ_22 
REMARK       I    between atoms: SBW_8  and  OBP_27 
REMARK       I    between atoms: OBR_9  and  CBJ_25 
REMARK       I    between atoms: CCD_10  and  CCE_18 
REMARK       I    between atoms: OBO_12  and  CBG_29 
REMARK       I    between atoms: OBO_12  and  CBX_17 
REMARK       I    between atoms: CBH_23  and  OBP_27 
REMARK       I    between atoms: CBK_24  and  NBN_30 
REMARK       I    between atoms: CBF_26  and  NBN_30 
ROOT
ATOM      1  OBS L42 d1784      25.877  21.045  33.514  0.00  0.00    -0.274 OA
ATOM      2  CCA L42 d1784      22.640  22.249  29.077  0.00  0.00     0.084 C 
ATOM      3  CBL L42 d1784      23.504  21.402  33.592  0.00  0.00    -0.003 C 
ATOM      4  OBM L42 d1784      25.742  16.861  34.006  0.00  0.00    -0.369 OA
ATOM      5  CBI L42 d1784      26.177  16.388  30.355  0.00  0.00     0.090 C 
ATOM      6  OBU L42 d1784      27.689  19.827  28.173  0.00  0.00    -0.572 OA
ATOM      7  CBY L42 d1784      24.052  21.820  29.391  0.00  0.00     0.111 C 
ATOM      8  SBW L42 d1784      28.475  18.779  28.961  0.00  0.00     0.252 S 
ATOM      9  OBR L42 d1784      27.779  14.953  29.951  0.00  0.00    -0.398 OA
ATOM     10  CCD L42 d1784      22.615  19.987  27.861  0.00  0.00     0.147 C 
ATOM     11  OCG L42 d1784      22.729  17.945  26.709  0.00  0.00    -0.642 OA
ATOM     12  OBO L42 d1784      25.332  19.865  30.036  0.00  0.00    -0.348 OA
ATOM     13  OCH L42 d1784      23.788  19.622  28.435  0.00  0.00    -0.311 OA
ATOM     14  CCC L42 d1784      22.011  21.232  28.103  0.00  0.00    -0.034 C 
ATOM     15  OBQ L42 d1784      26.483  16.228  31.781  0.00  0.00    -0.349 OA
ATOM     16  OBV L42 d1784      29.713  19.276  29.493  0.00  0.00    -0.572 OA
ATOM     17  CBX L42 d1784      24.060  20.291  29.666  0.00  0.00     0.165 C 
ATOM     18  CCE L42 d1784      21.994  18.944  26.940  0.00  0.00     0.233 C 
ATOM     19  OCF L42 d1784      20.875  19.174  26.416  0.00  0.00    -0.642 OA
ATOM     20  CBE L42 d1784      25.526  17.045  32.621  0.00  0.00     0.151 C 
ATOM     21  OBT L42 d1784      28.807  17.683  28.021  0.00  0.00    -0.572 OA
ATOM     22  OBZ L42 d1784      24.528  22.590  30.473  0.00  0.00    -0.388 OA
ATOM     23  CBH L42 d1784      26.352  17.850  29.914  0.00  0.00     0.114 C 
ATOM     24  CBK L42 d1784      24.750  20.591  33.261  0.00  0.00     0.214 C 
ATOM     25  CBJ L42 d1784      26.932  15.605  29.190  0.00  0.00     0.043 C 
ATOM     26  CBF L42 d1784      25.555  18.538  32.199  0.00  0.00     0.087 C 
ATOM     27  OBP L42 d1784      27.735  18.279  30.167  0.00  0.00    -0.246 OA
ATOM     28  OCB L42 d1784      22.753  23.499  28.426  0.00  0.00    -0.389 OA
ATOM     29  CBG L42 d1784      25.306  18.620  30.655  0.00  0.00     0.094 C 
ATOM     30  NBN L42 d1784      24.496  19.379  32.737  0.00  0.00    -0.349 N 
ATOM     31  H   L42 d1784      22.033  22.309  29.957  0.00  0.00     0.093 H 
ATOM     32  H   L42 d1784      23.792  22.346  34.002  0.00  0.00     0.040 H 
ATOM     33  H   L42 d1784      22.910  20.869  34.306  0.00  0.00     0.040 H 
ATOM     34  H   L42 d1784      22.933  21.559  32.701  0.00  0.00     0.040 H 
ATOM     35  H   L42 d1784      25.714  15.914  34.215  0.00  0.00     0.212 HD
ATOM     36  H   L42 d1784      25.199  15.957  30.412  0.00  0.00     0.090 H 
ATOM     37  H   L42 d1784      24.715  21.993  28.568  0.00  0.00     0.095 H 
ATOM     38  H   L42 d1784      28.349  14.397  29.397  0.00  0.00     0.209 HD
ATOM     39  H   L42 d1784      21.132  21.471  27.619  0.00  0.00     0.085 H 
ATOM     40  H   L42 d1784      23.345  20.082  30.435  0.00  0.00     0.134 H 
ATOM     41  H   L42 d1784      24.536  16.685  32.434  0.00  0.00     0.132 H 
ATOM     42  H   L42 d1784      23.950  22.459  31.241  0.00  0.00     0.210 HD
ATOM     43  H   L42 d1784      26.212  18.009  28.865  0.00  0.00     0.093 H 
ATOM     44  H   L42 d1784      27.422  16.265  28.506  0.00  0.00     0.078 H 
ATOM     45  H   L42 d1784      26.322  15.013  28.540  0.00  0.00     0.078 H 
ATOM     46  H   L42 d1784      26.502  18.885  32.558  0.00  0.00     0.084 H 
ATOM     47  H   L42 d1784      23.308  23.403  27.636  0.00  0.00     0.210 HD
ATOM     48  H   L42 d1784      24.304  18.245  30.604  0.00  0.00     0.091 H 
ATOM     49  H   L42 d1784      23.568  19.052  32.716  0.00  0.00     0.163 HD
ENDROOT
TORSDOF 12
ENDMDL
MODEL 30
REMARK VINA RESULT:      -7.9      3.494      6.893
REMARK  0 active torsions:
REMARK  status: ('A' for Active; 'I' for Inactive)
REMARK       I    between atoms: CCA_2  and  OCB_28 
REMARK       I    between atoms: CBL_3  and  CBK_24 
REMARK       I    between atoms: OBM_4  and  CBE_20 
REMARK       I    between atoms: CBI_5  and  CBJ_25 
REMARK       I    between atoms: CBY_7  and  OBZ_22 
REMARK       I    between atoms: SBW_8  and  OBP_27 
REMARK       I    between atoms: OBR_9  and  CBJ_25 
REMARK       I    between atoms: CCD_10  and  CCE_18 
REMARK       I    between atoms: OBO_12  and  CBG_29 
REMARK       I    between atoms: OBO_12  and  CBX_17 
REMARK       I    between atoms: CBH_23  and  OBP_27 
REMARK       I    between atoms: CBK_24  and  NBN_30 
REMARK       I    between atoms: CBF_26  and  NBN_30 
ROOT
ATOM      1  OBS L42 d1784      23.342  22.756  29.813  0.00  0.00    -0.274 OA
ATOM      2  CCA L42 d1784      25.085  21.916  35.093  0.00  0.00     0.084 C 
ATOM      3  CBL L42 d1784      24.594  24.333  31.121  0.00  0.00    -0.003 C 
ATOM      4  OBM L42 d1784      26.520  21.603  27.295  0.00  0.00    -0.369 OA
ATOM      5  CBI L42 d1784      27.058  18.548  29.325  0.00  0.00     0.090 C 
ATOM      6  OBU L42 d1784      23.768  17.402  31.920  0.00  0.00    -0.572 OA
ATOM      7  CBY L42 d1784      24.458  21.154  33.951  0.00  0.00     0.111 C 
ATOM      8  SBW L42 d1784      23.951  17.112  30.430  0.00  0.00     0.252 S 
ATOM      9  OBR L42 d1784      27.157  16.779  28.041  0.00  0.00    -0.398 OA
ATOM     10  CCD L42 d1784      26.960  20.200  34.722  0.00  0.00     0.147 C 
ATOM     11  OCG L42 d1784      28.571  18.532  34.357  0.00  0.00    -0.642 OA
ATOM     12  OBO L42 d1784      25.023  20.130  31.827  0.00  0.00    -0.348 OA
ATOM     13  OCH L42 d1784      26.405  19.788  33.554  0.00  0.00    -0.311 OA
ATOM     14  CCC L42 d1784      26.380  21.197  35.523  0.00  0.00    -0.034 C 
ATOM     15  OBQ L42 d1784      26.801  19.333  28.113  0.00  0.00    -0.349 OA
ATOM     16  OBV L42 d1784      22.710  16.959  29.722  0.00  0.00    -0.572 OA
ATOM     17  CBX L42 d1784      25.570  20.768  32.937  0.00  0.00     0.165 C 
ATOM     18  CCE L42 d1784      28.262  19.505  35.098  0.00  0.00     0.233 C 
ATOM     19  OCF L42 d1784      28.878  19.869  36.131  0.00  0.00    -0.642 OA
ATOM     20  CBE L42 d1784      26.696  20.804  28.448  0.00  0.00     0.151 C 
ATOM     21  OBT L42 d1784      24.681  15.827  30.321  0.00  0.00    -0.572 OA
ATOM     22  OBZ L42 d1784      23.434  21.946  33.389  0.00  0.00    -0.388 OA
ATOM     23  CBH L42 d1784      25.899  18.683  30.326  0.00  0.00     0.114 C 
ATOM     24  CBK L42 d1784      24.443  23.060  30.298  0.00  0.00     0.214 C 
ATOM     25  CBJ L42 d1784      27.308  16.974  29.330  0.00  0.00     0.043 C 
ATOM     26  CBF L42 d1784      25.606  21.049  29.525  0.00  0.00     0.087 C 
ATOM     27  OBP L42 d1784      24.652  18.220  29.701  0.00  0.00    -0.246 OA
ATOM     28  OCB L42 d1784      24.153  21.856  36.153  0.00  0.00    -0.389 OA
ATOM     29  CBG L42 d1784      25.900  20.118  30.748  0.00  0.00     0.094 C 
ATOM     30  NBN L42 d1784      25.586  22.373  30.131  0.00  0.00    -0.349 N 
ATOM     31  H   L42 d1784      25.319  22.924  34.822  0.00  0.00     0.093 H 
ATOM     32  H   L42 d1784      23.645  24.817  31.206  0.00  0.00     0.040 H 
ATOM     33  H   L42 d1784      25.288  24.990  30.639  0.00  0.00     0.040 H 
ATOM     34  H   L42 d1784      24.957  24.085  32.097  0.00  0.00     0.040 H 
ATOM     35  H   L42 d1784      27.225  21.410  26.658  0.00  0.00     0.212 HD
ATOM     36  H   L42 d1784      28.006  18.996  29.537  0.00  0.00     0.090 H 
ATOM     37  H   L42 d1784      24.004  20.242  34.279  0.00  0.00     0.095 H 
ATOM     38  H   L42 d1784      27.278  15.837  27.840  0.00  0.00     0.209 HD
ATOM     39  H   L42 d1784      26.829  21.454  36.416  0.00  0.00     0.085 H 
ATOM     40  H   L42 d1784      26.091  21.658  32.651  0.00  0.00     0.134 H 
ATOM     41  H   L42 d1784      27.629  21.111  28.871  0.00  0.00     0.132 H 
ATOM     42  H   L42 d1784      23.807  22.785  33.078  0.00  0.00     0.210 HD
ATOM     43  H   L42 d1784      26.003  18.072  31.198  0.00  0.00     0.093 H 
ATOM     44  H   L42 d1784      26.582  16.446  29.910  0.00  0.00     0.078 H 
ATOM     45  H   L42 d1784      28.231  16.639  29.757  0.00  0.00     0.078 H 
ATOM     46  H   L42 d1784      24.688  20.886  28.998  0.00  0.00     0.084 H 
ATOM     47  H   L42 d1784      23.967  20.928  36.368  0.00  0.00     0.210 HD
ATOM     48  H   L42 d1784      26.835  20.523  31.076  0.00  0.00     0.091 H 
ATOM     49  H   L42 d1784      26.434  22.775  30.427  0.00  0.00     0.163 HD
ENDROOT
TORSDOF 12
ENDMDL
MODEL 31
REMARK VINA RESULT:      -7.9      3.878      6.683
REMARK  0 active torsions:
REMARK  status: ('A' for Active; 'I' for Inactive)
REMARK       I    between atoms: CCA_2  and  OCB_28 
REMARK       I    between atoms: CBL_3  and  CBK_24 
REMARK       I    between atoms: OBM_4  and  CBE_20 
REMARK       I    between atoms: CBI_5  and  CBJ_25 
REMARK       I    between atoms: CBY_7  and  OBZ_22 
REMARK       I    between atoms: SBW_8  and  OBP_27 
REMARK       I    between atoms: OBR_9  and  CBJ_25 
REMARK       I    between atoms: CCD_10  and  CCE_18 
REMARK       I    between atoms: OBO_12  and  CBG_29 
REMARK       I    between atoms: OBO_12  and  CBX_17 
REMARK       I    between atoms: CBH_23  and  OBP_27 
REMARK       I    between atoms: CBK_24  and  NBN_30 
REMARK       I    between atoms: CBF_26  and  NBN_30 
ROOT
ATOM      1  OBS L42 d1784      25.001  18.315  33.773  0.00  0.00    -0.274 OA
ATOM      2  CCA L42 d1784      28.501  17.723  29.412  0.00  0.00     0.084 C 
ATOM      3  CBL L42 d1784      27.379  18.639  33.857  0.00  0.00    -0.003 C 
ATOM      4  OBM L42 d1784      23.964  22.398  33.942  0.00  0.00    -0.369 OA
ATOM      5  CBI L42 d1784      23.461  22.452  30.270  0.00  0.00     0.090 C 
ATOM      6  OBU L42 d1784      22.989  18.573  28.371  0.00  0.00    -0.572 OA
ATOM      7  CBY L42 d1784      27.021  17.766  29.705  0.00  0.00     0.111 C 
ATOM      8  SBW L42 d1784      21.934  19.419  29.084  0.00  0.00     0.252 S 
ATOM      9  OBR L42 d1784      21.528  23.351  29.772  0.00  0.00    -0.398 OA
ATOM     10  CCD L42 d1784      27.912  19.804  28.026  0.00  0.00     0.147 C 
ATOM     11  OCG L42 d1784      27.250  21.640  26.722  0.00  0.00    -0.642 OA
ATOM     12  OBO L42 d1784      25.241  19.333  30.210  0.00  0.00    -0.348 OA
ATOM     13  OCH L42 d1784      26.676  19.872  28.581  0.00  0.00    -0.311 OA
ATOM     14  CCC L42 d1784      28.834  18.797  28.357  0.00  0.00    -0.034 C 
ATOM     15  OBQ L42 d1784      23.105  22.629  31.682  0.00  0.00    -0.349 OA
ATOM     16  OBV L42 d1784      20.875  18.639  29.663  0.00  0.00    -0.572 OA
ATOM     17  CBX L42 d1784      26.586  19.250  29.862  0.00  0.00     0.165 C 
ATOM     18  CCE L42 d1784      28.230  20.904  27.022  0.00  0.00     0.233 C 
ATOM     19  OCF L42 d1784      29.376  20.956  26.507  0.00  0.00    -0.642 OA
ATOM     20  CBE L42 d1784      24.240  22.176  32.573  0.00  0.00     0.151 C 
ATOM     21  OBT L42 d1784      21.323  20.305  28.066  0.00  0.00    -0.572 OA
ATOM     22  OBZ L42 d1784      26.764  16.979  30.847  0.00  0.00    -0.388 OA
ATOM     23  CBH L42 d1784      23.704  20.970  29.943  0.00  0.00     0.114 C 
ATOM     24  CBK L42 d1784      25.961  19.044  33.476  0.00  0.00     0.214 C 
ATOM     25  CBJ L42 d1784      22.533  22.903  29.055  0.00  0.00     0.043 C 
ATOM     26  CBF L42 d1784      24.631  20.706  32.267  0.00  0.00     0.087 C 
ATOM     27  OBP L42 d1784      22.491  20.194  30.241  0.00  0.00    -0.246 OA
ATOM     28  OCB L42 d1784      28.746  16.445  28.860  0.00  0.00    -0.389 OA
ATOM     29  CBG L42 d1784      24.913  20.579  30.732  0.00  0.00     0.094 C 
ATOM     30  NBN L42 d1784      25.875  20.235  32.858  0.00  0.00    -0.349 N 
ATOM     31  H   L42 d1784      29.089  17.901  30.288  0.00  0.00     0.093 H 
ATOM     32  H   L42 d1784      27.359  17.685  34.340  0.00  0.00     0.040 H 
ATOM     33  H   L42 d1784      27.792  19.368  34.522  0.00  0.00     0.040 H 
ATOM     34  H   L42 d1784      27.982  18.578  32.975  0.00  0.00     0.040 H 
ATOM     35  H   L42 d1784      23.726  23.328  34.078  0.00  0.00     0.212 HD
ATOM     36  H   L42 d1784      24.280  23.140  30.284  0.00  0.00     0.090 H 
ATOM     37  H   L42 d1784      26.442  17.354  28.904  0.00  0.00     0.095 H 
ATOM     38  H   L42 d1784      20.834  23.683  29.182  0.00  0.00     0.209 HD
ATOM     39  H   L42 d1784      29.752  18.776  27.885  0.00  0.00     0.085 H 
ATOM     40  H   L42 d1784      27.205  19.706  30.606  0.00  0.00     0.134 H 
ATOM     41  H   L42 d1784      25.094  22.781  32.350  0.00  0.00     0.132 H 
ATOM     42  H   L42 d1784      27.273  17.323  31.598  0.00  0.00     0.210 HD
ATOM     43  H   L42 d1784      23.895  20.777  28.908  0.00  0.00     0.093 H 
ATOM     44  H   L42 d1784      22.254  22.084  28.428  0.00  0.00     0.078 H 
ATOM     45  H   L42 d1784      22.963  23.591  28.356  0.00  0.00     0.078 H 
ATOM     46  H   L42 d1784      23.814  20.138  32.660  0.00  0.00     0.084 H 
ATOM     47  H   L42 d1784      28.196  16.323  28.070  0.00  0.00     0.210 HD
ATOM     48  H   L42 d1784      25.771  21.212  30.643  0.00  0.00     0.091 H 
ATOM     49  H   L42 d1784      26.676  20.804  32.804  0.00  0.00     0.163 HD
ENDROOT
TORSDOF 12
ENDMDL
MODEL 32
REMARK VINA RESULT:      -7.9      2.654      5.407
REMARK  0 active torsions:
REMARK  status: ('A' for Active; 'I' for Inactive)
REMARK       I    between atoms: CCA_2  and  OCB_28 
REMARK       I    between atoms: CBL_3  and  CBK_24 
REMARK       I    between atoms: OBM_4  and  CBE_20 
REMARK       I    between atoms: CBI_5  and  CBJ_25 
REMARK       I    between atoms: CBY_7  and  OBZ_22 
REMARK       I    between atoms: SBW_8  and  OBP_27 
REMARK       I    between atoms: OBR_9  and  CBJ_25 
REMARK       I    between atoms: CCD_10  and  CCE_18 
REMARK       I    between atoms: OBO_12  and  CBG_29 
REMARK       I    between atoms: OBO_12  and  CBX_17 
REMARK       I    between atoms: CBH_23  and  OBP_27 
REMARK       I    between atoms: CBK_24  and  NBN_30 
REMARK       I    between atoms: CBF_26  and  NBN_30 
ROOT
ATOM      1  OBS L42 d1784      24.376  17.923  29.551  0.00  0.00    -0.274 OA
ATOM      2  CCA L42 d1784      28.975  20.131  27.184  0.00  0.00     0.084 C 
ATOM      3  CBL L42 d1784      25.952  16.713  28.201  0.00  0.00    -0.003 C 
ATOM      4  OBM L42 d1784      25.583  16.301  33.250  0.00  0.00    -0.369 OA
ATOM      5  CBI L42 d1784      27.584  19.340  33.962  0.00  0.00     0.090 C 
ATOM      6  OBU L42 d1784      26.617  22.839  31.576  0.00  0.00    -0.572 OA
ATOM      7  CBY L42 d1784      27.897  20.500  28.174  0.00  0.00     0.111 C 
ATOM      8  SBW L42 d1784      25.924  22.327  32.839  0.00  0.00     0.252 S 
ATOM      9  OBR L42 d1784      27.127  20.110  35.959  0.00  0.00    -0.398 OA
ATOM     10  CCD L42 d1784      30.469  20.473  29.245  0.00  0.00     0.147 C 
ATOM     11  OCG L42 d1784      31.750  20.898  31.166  0.00  0.00    -0.642 OA
ATOM     12  OBO L42 d1784      27.230  20.112  30.472  0.00  0.00    -0.348 OA
ATOM     13  OCH L42 d1784      29.391  20.526  30.067  0.00  0.00    -0.311 OA
ATOM     14  CCC L42 d1784      30.352  20.305  27.856  0.00  0.00    -0.034 C 
ATOM     15  OBQ L42 d1784      26.569  18.308  34.200  0.00  0.00    -0.349 OA
ATOM     16  OBV L42 d1784      24.535  22.686  32.913  0.00  0.00    -0.572 OA
ATOM     17  CBX L42 d1784      28.240  19.861  29.548  0.00  0.00     0.165 C 
ATOM     18  CCE L42 d1784      31.818  20.602  29.941  0.00  0.00     0.233 C 
ATOM     19  OCF L42 d1784      32.872  20.500  29.265  0.00  0.00    -0.642 OA
ATOM     20  CBE L42 d1784      26.500  17.354  33.028  0.00  0.00     0.151 C 
ATOM     21  OBT L42 d1784      26.604  22.956  33.996  0.00  0.00    -0.572 OA
ATOM     22  OBZ L42 d1784      26.650  20.090  27.657  0.00  0.00    -0.388 OA
ATOM     23  CBH L42 d1784      27.228  20.190  32.732  0.00  0.00     0.114 C 
ATOM     24  CBK L42 d1784      25.505  17.409  29.480  0.00  0.00     0.214 C 
ATOM     25  CBJ L42 d1784      27.981  20.458  35.026  0.00  0.00     0.043 C 
ATOM     26  CBF L42 d1784      26.229  18.121  31.707  0.00  0.00     0.087 C 
ATOM     27  OBP L42 d1784      25.920  20.830  32.937  0.00  0.00    -0.246 OA
ATOM     28  OCB L42 d1784      28.859  21.058  26.125  0.00  0.00    -0.389 OA
ATOM     29  CBG L42 d1784      27.299  19.257  31.566  0.00  0.00     0.094 C 
ATOM     30  NBN L42 d1784      26.406  17.365  30.476  0.00  0.00    -0.349 N 
ATOM     31  H   L42 d1784      28.879  19.120  26.845  0.00  0.00     0.093 H 
ATOM     32  H   L42 d1784      25.182  16.794  27.463  0.00  0.00     0.040 H 
ATOM     33  H   L42 d1784      26.143  15.680  28.405  0.00  0.00     0.040 H 
ATOM     34  H   L42 d1784      26.845  17.175  27.836  0.00  0.00     0.040 H 
ATOM     35  H   L42 d1784      25.797  15.857  34.085  0.00  0.00     0.212 HD
ATOM     36  H   L42 d1784      28.411  18.662  33.926  0.00  0.00     0.090 H 
ATOM     37  H   L42 d1784      27.840  21.558  28.327  0.00  0.00     0.095 H 
ATOM     38  H   L42 d1784      27.223  20.702  36.722  0.00  0.00     0.209 HD
ATOM     39  H   L42 d1784      31.204  20.299  27.273  0.00  0.00     0.085 H 
ATOM     40  H   L42 d1784      28.378  18.809  29.406  0.00  0.00     0.134 H 
ATOM     41  H   L42 d1784      27.457  16.886  32.929  0.00  0.00     0.132 H 
ATOM     42  H   L42 d1784      26.663  19.132  27.504  0.00  0.00     0.210 HD
ATOM     43  H   L42 d1784      27.898  21.005  32.557  0.00  0.00     0.093 H 
ATOM     44  H   L42 d1784      27.806  21.449  34.662  0.00  0.00     0.078 H 
ATOM     45  H   L42 d1784      29.012  20.498  35.313  0.00  0.00     0.078 H 
ATOM     46  H   L42 d1784      25.207  18.424  31.794  0.00  0.00     0.084 H 
ATOM     47  H   L42 d1784      28.952  21.959  26.473  0.00  0.00     0.210 HD
ATOM     48  H   L42 d1784      28.189  18.669  31.473  0.00  0.00     0.091 H 
ATOM     49  H   L42 d1784      27.208  16.805  30.370  0.00  0.00     0.163 HD
ENDROOT
TORSDOF 12
ENDMDL
MODEL 33
REMARK VINA RESULT:      -7.9      2.882      6.829
REMARK  0 active torsions:
REMARK  status: ('A' for Active; 'I' for Inactive)
REMARK       I    between atoms: CCA_2  and  OCB_28 
REMARK       I    between atoms: CBL_3  and  CBK_24 
REMARK       I    between atoms: OBM_4  and  CBE_20 
REMARK       I    between atoms: CBI_5  and  CBJ_25 
REMARK       I    between atoms: CBY_7  and  OBZ_22 
REMARK       I    between atoms: SBW_8  and  OBP_27 
REMARK       I    between atoms: OBR_9  and  CBJ_25 
REMARK       I    between atoms: CCD_10  and  CCE_18 
REMARK       I    between atoms: OBO_12  and  CBG_29 
REMARK       I    between atoms: OBO_12  and  CBX_17 
REMARK       I    between atoms: CBH_23  and  OBP_27 
REMARK       I    between atoms: CBK_24  and  NBN_30 
REMARK       I    between atoms: CBF_26  and  NBN_30 
ROOT
ATOM      1  OBS L42 d1784      26.014  20.689  33.503  0.00  0.00    -0.274 OA
ATOM      2  CCA L42 d1784      30.528  19.601  30.330  0.00  0.00     0.084 C 
ATOM      3  CBL L42 d1784      28.019  22.010  33.454  0.00  0.00    -0.003 C 
ATOM      4  OBM L42 d1784      23.622  23.382  31.314  0.00  0.00    -0.369 OA
ATOM      5  CBI L42 d1784      24.127  21.376  28.238  0.00  0.00     0.090 C 
ATOM      6  OBU L42 d1784      25.552  17.318  28.843  0.00  0.00    -0.572 OA
ATOM      7  CBY L42 d1784      29.104  19.134  30.508  0.00  0.00     0.111 C 
ATOM      8  SBW L42 d1784      24.120  17.846  28.927  0.00  0.00     0.252 S 
ATOM      9  OBR L42 d1784      22.209  20.960  27.268  0.00  0.00    -0.398 OA
ATOM     10  CCD L42 d1784      29.646  20.215  27.997  0.00  0.00     0.147 C 
ATOM     11  OCG L42 d1784      28.760  20.655  25.868  0.00  0.00    -0.642 OA
ATOM     12  OBO L42 d1784      26.825  19.784  29.994  0.00  0.00    -0.348 OA
ATOM     13  OCH L42 d1784      28.363  20.003  28.384  0.00  0.00    -0.311 OA
ATOM     14  CCC L42 d1784      30.736  20.027  28.863  0.00  0.00    -0.034 C 
ATOM     15  OBQ L42 d1784      23.370  22.056  29.294  0.00  0.00    -0.349 OA
ATOM     16  OBV L42 d1784      23.283  17.088  29.816  0.00  0.00    -0.572 OA
ATOM     17  CBX L42 d1784      28.156  20.135  29.790  0.00  0.00     0.165 C 
ATOM     18  CCE L42 d1784      29.817  20.680  26.557  0.00  0.00     0.233 C 
ATOM     19  OCF L42 d1784      30.967  20.962  26.134  0.00  0.00    -0.642 OA
ATOM     20  CBE L42 d1784      24.311  22.656  30.316  0.00  0.00     0.151 C 
ATOM     21  OBT L42 d1784      23.534  17.738  27.570  0.00  0.00    -0.572 OA
ATOM     22  OBZ L42 d1784      28.841  19.000  31.887  0.00  0.00    -0.388 OA
ATOM     23  CBH L42 d1784      24.946  20.208  28.810  0.00  0.00     0.114 C 
ATOM     24  CBK L42 d1784      26.704  21.506  32.873  0.00  0.00     0.214 C 
ATOM     25  CBJ L42 d1784      23.459  20.706  26.955  0.00  0.00     0.043 C 
ATOM     26  CBF L42 d1784      25.254  21.571  30.902  0.00  0.00     0.087 C 
ATOM     27  OBP L42 d1784      24.045  19.246  29.460  0.00  0.00    -0.246 OA
ATOM     28  OCB L42 d1784      31.338  18.475  30.601  0.00  0.00    -0.389 OA
ATOM     29  CBG L42 d1784      25.959  20.835  29.713  0.00  0.00     0.094 C 
ATOM     30  NBN L42 d1784      26.379  22.054  31.689  0.00  0.00    -0.349 N 
ATOM     31  H   L42 d1784      30.762  20.426  30.969  0.00  0.00     0.093 H 
ATOM     32  H   L42 d1784      28.203  21.527  34.390  0.00  0.00     0.040 H 
ATOM     33  H   L42 d1784      27.961  23.068  33.603  0.00  0.00     0.040 H 
ATOM     34  H   L42 d1784      28.817  21.789  32.776  0.00  0.00     0.040 H 
ATOM     35  H   L42 d1784      23.049  24.044  30.895  0.00  0.00     0.212 HD
ATOM     36  H   L42 d1784      24.621  22.257  27.884  0.00  0.00     0.090 H 
ATOM     37  H   L42 d1784      28.939  18.174  30.063  0.00  0.00     0.095 H 
ATOM     38  H   L42 d1784      21.626  20.613  26.575  0.00  0.00     0.209 HD
ATOM     39  H   L42 d1784      31.694  20.176  28.510  0.00  0.00     0.085 H 
ATOM     40  H   L42 d1784      28.357  21.117  30.164  0.00  0.00     0.134 H 
ATOM     41  H   L42 d1784      24.928  23.370  29.814  0.00  0.00     0.132 H 
ATOM     42  H   L42 d1784      28.981  19.853  32.327  0.00  0.00     0.210 HD
ATOM     43  H   L42 d1784      25.460  19.633  28.069  0.00  0.00     0.093 H 
ATOM     44  H   L42 d1784      23.658  19.657  26.892  0.00  0.00     0.078 H 
ATOM     45  H   L42 d1784      23.793  21.061  26.003  0.00  0.00     0.078 H 
ATOM     46  H   L42 d1784      24.610  20.985  31.525  0.00  0.00     0.084 H 
ATOM     47  H   L42 d1784      31.096  17.751  30.003  0.00  0.00     0.210 HD
ATOM     48  H   L42 d1784      26.536  21.640  29.306  0.00  0.00     0.091 H 
ATOM     49  H   L42 d1784      26.916  22.803  31.345  0.00  0.00     0.163 HD
ENDROOT
TORSDOF 12
ENDMDL
MODEL 34
REMARK VINA RESULT:      -7.8      3.406      6.191
REMARK  0 active torsions:
REMARK  status: ('A' for Active; 'I' for Inactive)
REMARK       I    between atoms: CCA_2  and  OCB_28 
REMARK       I    between atoms: CBL_3  and  CBK_24 
REMARK       I    between atoms: OBM_4  and  CBE_20 
REMARK       I    between atoms: CBI_5  and  CBJ_25 
REMARK       I    between atoms: CBY_7  and  OBZ_22 
REMARK       I    between atoms: SBW_8  and  OBP_27 
REMARK       I    between atoms: OBR_9  and  CBJ_25 
REMARK       I    between atoms: CCD_10  and  CCE_18 
REMARK       I    between atoms: OBO_12  and  CBG_29 
REMARK       I    between atoms: OBO_12  and  CBX_17 
REMARK       I    between atoms: CBH_23  and  OBP_27 
REMARK       I    between atoms: CBK_24  and  NBN_30 
REMARK       I    between atoms: CBF_26  and  NBN_30 
ROOT
ATOM      1  OBS L42 d1784      26.464  20.774  34.270  0.00  0.00    -0.274 OA
ATOM      2  CCA L42 d1784      23.561  23.155  30.083  0.00  0.00     0.084 C 
ATOM      3  CBL L42 d1784      24.148  21.401  34.377  0.00  0.00    -0.003 C 
ATOM      4  OBM L42 d1784      25.813  16.619  33.978  0.00  0.00    -0.369 OA
ATOM      5  CBI L42 d1784      26.326  16.767  30.309  0.00  0.00     0.090 C 
ATOM      6  OBU L42 d1784      28.317  20.331  28.824  0.00  0.00    -0.572 OA
ATOM      7  CBY L42 d1784      24.900  22.504  30.334  0.00  0.00     0.111 C 
ATOM      8  SBW L42 d1784      28.943  19.068  29.417  0.00  0.00     0.252 S 
ATOM      9  OBR L42 d1784      27.761  15.242  29.671  0.00  0.00    -0.398 OA
ATOM     10  CCD L42 d1784      23.314  21.172  28.470  0.00  0.00     0.147 C 
ATOM     11  OCG L42 d1784      23.228  19.375  26.962  0.00  0.00    -0.642 OA
ATOM     12  OBO L42 d1784      25.913  20.321  30.626  0.00  0.00    -0.348 OA
ATOM     13  OCH L42 d1784      24.413  20.566  28.984  0.00  0.00    -0.311 OA
ATOM     14  CCC L42 d1784      22.854  22.417  28.929  0.00  0.00    -0.034 C 
ATOM     15  OBQ L42 d1784      26.557  16.314  31.685  0.00  0.00    -0.349 OA
ATOM     16  OBV L42 d1784      30.211  19.303  30.050  0.00  0.00    -0.572 OA
ATOM     17  CBX L42 d1784      24.715  20.961  30.322  0.00  0.00     0.165 C 
ATOM     18  CCE L42 d1784      22.609  20.399  27.363  0.00  0.00     0.233 C 
ATOM     19  OCF L42 d1784      21.545  20.856  26.874  0.00  0.00    -0.642 OA
ATOM     20  CBE L42 d1784      25.673  17.077  32.648  0.00  0.00     0.151 C 
ATOM     21  OBT L42 d1784      29.177  18.128  28.295  0.00  0.00    -0.572 OA
ATOM     22  OBZ L42 d1784      25.422  23.000  31.547  0.00  0.00    -0.388 OA
ATOM     23  CBH L42 d1784      26.690  18.252  30.149  0.00  0.00     0.114 C 
ATOM     24  CBK L42 d1784      25.301  20.516  33.921  0.00  0.00     0.214 C 
ATOM     25  CBJ L42 d1784      27.026  16.122  29.031  0.00  0.00     0.043 C 
ATOM     26  CBF L42 d1784      25.895  18.606  32.509  0.00  0.00     0.087 C 
ATOM     27  OBP L42 d1784      28.104  18.453  30.498  0.00  0.00    -0.246 OA
ATOM     28  OCB L42 d1784      23.847  24.478  29.677  0.00  0.00    -0.389 OA
ATOM     29  CBG L42 d1784      25.716  18.997  31.004  0.00  0.00     0.094 C 
ATOM     30  NBN L42 d1784      24.925  19.461  33.177  0.00  0.00    -0.349 N 
ATOM     31  H   L42 d1784      22.934  23.129  30.950  0.00  0.00     0.093 H 
ATOM     32  H   L42 d1784      24.531  22.212  34.959  0.00  0.00     0.040 H 
ATOM     33  H   L42 d1784      23.469  20.825  34.971  0.00  0.00     0.040 H 
ATOM     34  H   L42 d1784      23.634  21.787  33.521  0.00  0.00     0.040 H 
ATOM     35  H   L42 d1784      25.665  15.661  34.008  0.00  0.00     0.212 HD
ATOM     36  H   L42 d1784      25.302  16.457  30.271  0.00  0.00     0.090 H 
ATOM     37  H   L42 d1784      25.609  22.740  29.568  0.00  0.00     0.095 H 
ATOM     38  H   L42 d1784      28.281  14.730  29.033  0.00  0.00     0.209 HD
ATOM     39  H   L42 d1784      22.028  22.847  28.484  0.00  0.00     0.085 H 
ATOM     40  H   L42 d1784      23.953  20.707  31.028  0.00  0.00     0.134 H 
ATOM     41  H   L42 d1784      24.655  16.882  32.382  0.00  0.00     0.132 H 
ATOM     42  H   L42 d1784      24.805  22.805  32.269  0.00  0.00     0.210 HD
ATOM     43  H   L42 d1784      26.609  18.614  29.145  0.00  0.00     0.093 H 
ATOM     44  H   L42 d1784      27.617  16.829  28.488  0.00  0.00     0.078 H 
ATOM     45  H   L42 d1784      26.375  15.737  28.274  0.00  0.00     0.078 H 
ATOM     46  H   L42 d1784      26.862  18.762  32.941  0.00  0.00     0.084 H 
ATOM     47  H   L42 d1784      24.416  24.459  28.891  0.00  0.00     0.210 HD
ATOM     48  H   L42 d1784      24.680  18.765  30.869  0.00  0.00     0.091 H 
ATOM     49  H   L42 d1784      23.966  19.260  33.082  0.00  0.00     0.163 HD
ENDROOT
TORSDOF 12
ENDMDL
MODEL 35
REMARK VINA RESULT:      -7.8      2.766      5.406
REMARK  0 active torsions:
REMARK  status: ('A' for Active; 'I' for Inactive)
REMARK       I    between atoms: CCA_2  and  OCB_28 
REMARK       I    between atoms: CBL_3  and  CBK_24 
REMARK       I    between atoms: OBM_4  and  CBE_20 
REMARK       I    between atoms: CBI_5  and  CBJ_25 
REMARK       I    between atoms: CBY_7  and  OBZ_22 
REMARK       I    between atoms: SBW_8  and  OBP_27 
REMARK       I    between atoms: OBR_9  and  CBJ_25 
REMARK       I    between atoms: CCD_10  and  CCE_18 
REMARK       I    between atoms: OBO_12  and  CBG_29 
REMARK       I    between atoms: OBO_12  and  CBX_17 
REMARK       I    between atoms: CBH_23  and  OBP_27 
REMARK       I    between atoms: CBK_24  and  NBN_30 
REMARK       I    between atoms: CBF_26  and  NBN_30 
ROOT
ATOM      1  OBS L42 d1784      23.215  18.554  30.129  0.00  0.00    -0.274 OA
ATOM      2  CCA L42 d1784      27.249  20.773  26.901  0.00  0.00     0.084 C 
ATOM      3  CBL L42 d1784      24.128  17.528  28.159  0.00  0.00    -0.003 C 
ATOM      4  OBM L42 d1784      25.141  16.036  32.907  0.00  0.00    -0.369 OA
ATOM      5  CBI L42 d1784      27.723  18.628  33.509  0.00  0.00     0.090 C 
ATOM      6  OBU L42 d1784      26.696  22.649  32.226  0.00  0.00    -0.572 OA
ATOM      7  CBY L42 d1784      26.569  21.016  28.226  0.00  0.00     0.111 C 
ATOM      8  SBW L42 d1784      26.317  21.938  33.525  0.00  0.00     0.252 S 
ATOM      9  OBR L42 d1784      27.980  18.973  35.655  0.00  0.00    -0.398 OA
ATOM     10  CCD L42 d1784      29.300  20.498  28.422  0.00  0.00     0.147 C 
ATOM     11  OCG L42 d1784      31.123  20.355  29.895  0.00  0.00    -0.642 OA
ATOM     12  OBO L42 d1784      26.526  20.191  30.506  0.00  0.00    -0.348 OA
ATOM     13  OCH L42 d1784      28.521  20.471  29.533  0.00  0.00    -0.311 OA
ATOM     14  CCC L42 d1784      28.770  20.657  27.132  0.00  0.00    -0.034 C 
ATOM     15  OBQ L42 d1784      26.665  17.673  33.857  0.00  0.00    -0.349 OA
ATOM     16  OBV L42 d1784      25.081  22.406  34.090  0.00  0.00    -0.572 OA
ATOM     17  CBX L42 d1784      27.179  20.055  29.284  0.00  0.00     0.165 C 
ATOM     18  CCE L42 d1784      30.793  20.335  28.677  0.00  0.00     0.233 C 
ATOM     19  OCF L42 d1784      31.582  20.284  27.700  0.00  0.00    -0.642 OA
ATOM     20  CBE L42 d1784      26.115  17.017  32.609  0.00  0.00     0.151 C 
ATOM     21  OBT L42 d1784      27.387  22.223  34.509  0.00  0.00    -0.572 OA
ATOM     22  OBZ L42 d1784      25.178  20.856  28.055  0.00  0.00    -0.388 OA
ATOM     23  CBH L42 d1784      27.175  19.762  32.629  0.00  0.00     0.114 C 
ATOM     24  CBK L42 d1784      24.179  17.961  29.618  0.00  0.00     0.214 C 
ATOM     25  CBJ L42 d1784      28.579  19.435  34.583  0.00  0.00     0.043 C 
ATOM     26  CBF L42 d1784      25.609  18.083  31.601  0.00  0.00     0.087 C 
ATOM     27  OBP L42 d1784      26.099  20.465  33.342  0.00  0.00    -0.246 OA
ATOM     28  OCB L42 d1784      26.989  21.921  26.119  0.00  0.00    -0.389 OA
ATOM     29  CBG L42 d1784      26.763  19.110  31.347  0.00  0.00     0.094 C 
ATOM     30  NBN L42 d1784      25.306  17.607  30.260  0.00  0.00    -0.349 N 
ATOM     31  H   L42 d1784      26.900  19.878  26.428  0.00  0.00     0.093 H 
ATOM     32  H   L42 d1784      23.205  17.847  27.724  0.00  0.00     0.040 H 
ATOM     33  H   L42 d1784      24.201  16.461  28.100  0.00  0.00     0.040 H 
ATOM     34  H   L42 d1784      24.944  17.970  27.626  0.00  0.00     0.040 H 
ATOM     35  H   L42 d1784      25.508  15.398  33.539  0.00  0.00     0.212 HD
ATOM     36  H   L42 d1784      28.387  17.897  33.095  0.00  0.00     0.090 H 
ATOM     37  H   L42 d1784      26.729  22.013  28.581  0.00  0.00     0.095 H 
ATOM     38  H   L42 d1784      28.382  19.367  36.445  0.00  0.00     0.209 HD
ATOM     39  H   L42 d1784      29.409  20.698  26.323  0.00  0.00     0.085 H 
ATOM     40  H   L42 d1784      27.101  19.053  28.916  0.00  0.00     0.134 H 
ATOM     41  H   L42 d1784      26.917  16.492  32.134  0.00  0.00     0.132 H 
ATOM     42  H   L42 d1784      24.993  19.960  27.732  0.00  0.00     0.210 HD
ATOM     43  H   L42 d1784      27.891  20.526  32.407  0.00  0.00     0.093 H 
ATOM     44  H   L42 d1784      28.470  20.494  34.480  0.00  0.00     0.078 H 
ATOM     45  H   L42 d1784      29.641  19.309  34.539  0.00  0.00     0.078 H 
ATOM     46  H   L42 d1784      24.715  18.457  32.056  0.00  0.00     0.084 H 
ATOM     47  H   L42 d1784      27.320  22.708  26.580  0.00  0.00     0.210 HD
ATOM     48  H   L42 d1784      27.484  18.475  30.876  0.00  0.00     0.091 H 
ATOM     49  H   L42 d1784      25.945  17.009  29.809  0.00  0.00     0.163 HD
ENDROOT
TORSDOF 12
ENDMDL
MODEL 36
REMARK VINA RESULT:      -7.8      4.102      7.217
REMARK  0 active torsions:
REMARK  status: ('A' for Active; 'I' for Inactive)
REMARK       I    between atoms: CCA_2  and  OCB_28 
REMARK       I    between atoms: CBL_3  and  CBK_24 
REMARK       I    between atoms: OBM_4  and  CBE_20 
REMARK       I    between atoms: CBI_5  and  CBJ_25 
REMARK       I    between atoms: CBY_7  and  OBZ_22 
REMARK       I    between atoms: SBW_8  and  OBP_27 
REMARK       I    between atoms: OBR_9  and  CBJ_25 
REMARK       I    between atoms: CCD_10  and  CCE_18 
REMARK       I    between atoms: OBO_12  and  CBG_29 
REMARK       I    between atoms: OBO_12  and  CBX_17 
REMARK       I    between atoms: CBH_23  and  OBP_27 
REMARK       I    between atoms: CBK_24  and  NBN_30 
REMARK       I    between atoms: CBF_26  and  NBN_30 
ROOT
ATOM      1  OBS L42 d1784      28.813  19.125  32.942  0.00  0.00    -0.274 OA
ATOM      2  CCA L42 d1784      25.488  22.602  35.853  0.00  0.00     0.084 C 
ATOM      3  CBL L42 d1784      28.570  19.125  35.331  0.00  0.00    -0.003 C 
ATOM      4  OBM L42 d1784      26.576  15.621  32.242  0.00  0.00    -0.369 OA
ATOM      5  CBI L42 d1784      23.620  17.658  31.317  0.00  0.00     0.090 C 
ATOM      6  OBU L42 d1784      24.422  21.813  30.337  0.00  0.00    -0.572 OA
ATOM      7  CBY L42 d1784      25.771  22.204  34.425  0.00  0.00     0.111 C 
ATOM      8  SBW L42 d1784      24.545  20.582  29.439  0.00  0.00     0.252 S 
ATOM      9  OBR L42 d1784      22.782  16.978  29.413  0.00  0.00    -0.398 OA
ATOM     10  CCD L42 d1784      23.169  21.668  35.264  0.00  0.00     0.147 C 
ATOM     11  OCG L42 d1784      21.064  20.872  34.594  0.00  0.00    -0.642 OA
ATOM     12  OBO L42 d1784      25.336  20.422  32.839  0.00  0.00    -0.348 OA
ATOM     13  OCH L42 d1784      23.636  21.129  34.110  0.00  0.00    -0.311 OA
ATOM     14  CCC L42 d1784      23.986  22.401  36.140  0.00  0.00    -0.034 C 
ATOM     15  OBQ L42 d1784      24.667  16.645  31.143  0.00  0.00    -0.349 OA
ATOM     16  OBV L42 d1784      25.526  20.730  28.400  0.00  0.00    -0.572 OA
ATOM     17  CBX L42 d1784      25.038  20.867  34.124  0.00  0.00     0.165 C 
ATOM     18  CCE L42 d1784      21.693  21.414  35.545  0.00  0.00     0.233 C 
ATOM     19  OCF L42 d1784      21.192  21.822  36.623  0.00  0.00    -0.642 OA
ATOM     20  CBE L42 d1784      25.595  16.634  32.338  0.00  0.00     0.151 C 
ATOM     21  OBT L42 d1784      23.232  20.388  28.781  0.00  0.00    -0.572 OA
ATOM     22  OBZ L42 d1784      27.169  22.133  34.245  0.00  0.00    -0.388 OA
ATOM     23  CBH L42 d1784      24.226  19.067  31.408  0.00  0.00     0.114 C 
ATOM     24  CBK L42 d1784      28.094  18.839  33.912  0.00  0.00     0.214 C 
ATOM     25  CBJ L42 d1784      22.423  17.885  30.291  0.00  0.00     0.043 C 
ATOM     26  CBF L42 d1784      26.202  18.041  32.579  0.00  0.00     0.087 C 
ATOM     27  OBP L42 d1784      24.986  19.357  30.184  0.00  0.00    -0.246 OA
ATOM     28  OCB L42 d1784      25.791  23.979  35.936  0.00  0.00    -0.389 OA
ATOM     29  CBG L42 d1784      25.031  19.076  32.669  0.00  0.00     0.094 C 
ATOM     30  NBN L42 d1784      26.895  18.235  33.845  0.00  0.00    -0.349 N 
ATOM     31  H   L42 d1784      26.057  22.023  36.551  0.00  0.00     0.093 H 
ATOM     32  H   L42 d1784      29.525  19.604  35.296  0.00  0.00     0.040 H 
ATOM     33  H   L42 d1784      28.650  18.206  35.873  0.00  0.00     0.040 H 
ATOM     34  H   L42 d1784      27.867  19.767  35.820  0.00  0.00     0.040 H 
ATOM     35  H   L42 d1784      26.144  14.765  32.091  0.00  0.00     0.212 HD
ATOM     36  H   L42 d1784      23.182  17.204  32.182  0.00  0.00     0.090 H 
ATOM     37  H   L42 d1784      25.401  22.926  33.727  0.00  0.00     0.095 H 
ATOM     38  H   L42 d1784      22.146  16.966  28.681  0.00  0.00     0.209 HD
ATOM     39  H   L42 d1784      23.574  22.813  36.992  0.00  0.00     0.085 H 
ATOM     40  H   L42 d1784      25.334  20.147  34.858  0.00  0.00     0.134 H 
ATOM     41  H   L42 d1784      25.014  16.390  33.203  0.00  0.00     0.132 H 
ATOM     42  H   L42 d1784      27.542  21.485  34.863  0.00  0.00     0.210 HD
ATOM     43  H   L42 d1784      23.500  19.851  31.463  0.00  0.00     0.093 H 
ATOM     44  H   L42 d1784      22.420  18.872  29.879  0.00  0.00     0.078 H 
ATOM     45  H   L42 d1784      21.432  17.799  30.686  0.00  0.00     0.078 H 
ATOM     46  H   L42 d1784      26.896  18.160  31.773  0.00  0.00     0.084 H 
ATOM     47  H   L42 d1784      25.257  24.467  35.289  0.00  0.00     0.210 HD
ATOM     48  H   L42 d1784      24.540  18.733  33.556  0.00  0.00     0.091 H 
ATOM     49  H   L42 d1784      26.473  17.914  34.674  0.00  0.00     0.163 HD
ENDROOT
TORSDOF 12
ENDMDL
MODEL 37
REMARK VINA RESULT:      -7.8      3.136      5.483
REMARK  0 active torsions:
REMARK  status: ('A' for Active; 'I' for Inactive)
REMARK       I    between atoms: CCA_2  and  OCB_28 
REMARK       I    between atoms: CBL_3  and  CBK_24 
REMARK       I    between atoms: OBM_4  and  CBE_20 
REMARK       I    between atoms: CBI_5  and  CBJ_25 
REMARK       I    between atoms: CBY_7  and  OBZ_22 
REMARK       I    between atoms: SBW_8  and  OBP_27 
REMARK       I    between atoms: OBR_9  and  CBJ_25 
REMARK       I    between atoms: CCD_10  and  CCE_18 
REMARK       I    between atoms: OBO_12  and  CBG_29 
REMARK       I    between atoms: OBO_12  and  CBX_17 
REMARK       I    between atoms: CBH_23  and  OBP_27 
REMARK       I    between atoms: CBK_24  and  NBN_30 
REMARK       I    between atoms: CBF_26  and  NBN_30 
ROOT
ATOM      1  OBS L42 d1784      26.476  24.220  32.993  0.00  0.00    -0.274 OA
ATOM      2  CCA L42 d1784      25.012  19.904  29.699  0.00  0.00     0.084 C 
ATOM      3  CBL L42 d1784      24.222  23.504  32.575  0.00  0.00    -0.003 C 
ATOM      4  OBM L42 d1784      26.729  22.709  36.920  0.00  0.00    -0.369 OA
ATOM      5  CBI L42 d1784      28.563  19.732  35.687  0.00  0.00     0.090 C 
ATOM      6  OBU L42 d1784      30.307  20.096  31.725  0.00  0.00    -0.572 OA
ATOM      7  CBY L42 d1784      26.246  20.524  30.306  0.00  0.00     0.111 C 
ATOM      8  SBW L42 d1784      30.872  20.576  33.062  0.00  0.00     0.252 S 
ATOM      9  OBR L42 d1784      30.377  19.404  36.867  0.00  0.00    -0.398 OA
ATOM     10  CCD L42 d1784      25.749  17.913  31.145  0.00  0.00     0.147 C 
ATOM     11  OCG L42 d1784      26.562  16.126  32.433  0.00  0.00    -0.642 OA
ATOM     12  OBO L42 d1784      27.441  20.683  32.411  0.00  0.00    -0.348 OA
ATOM     13  OCH L42 d1784      26.659  18.676  31.800  0.00  0.00    -0.311 OA
ATOM     14  CCC L42 d1784      24.938  18.421  30.117  0.00  0.00    -0.034 C 
ATOM     15  OBQ L42 d1784      28.329  20.930  36.502  0.00  0.00    -0.349 OA
ATOM     16  OBV L42 d1784      31.742  21.713  32.938  0.00  0.00    -0.572 OA
ATOM     17  CBX L42 d1784      26.356  20.071  31.789  0.00  0.00     0.165 C 
ATOM     18  CCE L42 d1784      25.667  16.465  31.610  0.00  0.00     0.233 C 
ATOM     19  OCF L42 d1784      24.806  15.703  31.101  0.00  0.00    -0.642 OA
ATOM     20  CBE L42 d1784      27.027  21.591  36.109  0.00  0.00     0.151 C 
ATOM     21  OBT L42 d1784      31.677  19.465  33.621  0.00  0.00    -0.572 OA
ATOM     22  OBZ L42 d1784      26.173  21.924  30.149  0.00  0.00    -0.388 OA
ATOM     23  CBH L42 d1784      28.693  20.094  34.199  0.00  0.00     0.114 C 
ATOM     24  CBK L42 d1784      25.598  23.371  33.214  0.00  0.00     0.214 C 
ATOM     25  CBJ L42 d1784      29.798  18.746  35.890  0.00  0.00     0.043 C 
ATOM     26  CBF L42 d1784      27.011  21.924  34.593  0.00  0.00     0.087 C 
ATOM     27  OBP L42 d1784      29.808  21.034  34.016  0.00  0.00    -0.246 OA
ATOM     28  OCB L42 d1784      25.192  19.979  28.300  0.00  0.00    -0.389 OA
ATOM     29  CBG L42 d1784      27.351  20.619  33.797  0.00  0.00     0.094 C 
ATOM     30  NBN L42 d1784      25.726  22.311  34.032  0.00  0.00    -0.349 N 
ATOM     31  H   L42 d1784      24.117  20.400  30.015  0.00  0.00     0.093 H 
ATOM     32  H   L42 d1784      24.205  24.367  31.942  0.00  0.00     0.040 H 
ATOM     33  H   L42 d1784      23.481  23.609  33.340  0.00  0.00     0.040 H 
ATOM     34  H   L42 d1784      24.012  22.631  31.993  0.00  0.00     0.040 H 
ATOM     35  H   L42 d1784      26.752  22.447  37.854  0.00  0.00     0.212 HD
ATOM     36  H   L42 d1784      27.703  19.201  36.039  0.00  0.00     0.090 H 
ATOM     37  H   L42 d1784      27.140  20.200  29.814  0.00  0.00     0.095 H 
ATOM     38  H   L42 d1784      31.182  18.936  37.139  0.00  0.00     0.209 HD
ATOM     39  H   L42 d1784      24.281  17.791  29.632  0.00  0.00     0.085 H 
ATOM     40  H   L42 d1784      25.440  20.316  32.285  0.00  0.00     0.134 H 
ATOM     41  H   L42 d1784      26.237  20.890  36.284  0.00  0.00     0.132 H 
ATOM     42  H   L42 d1784      25.372  22.256  30.583  0.00  0.00     0.210 HD
ATOM     43  H   L42 d1784      28.937  19.264  33.569  0.00  0.00     0.093 H 
ATOM     44  H   L42 d1784      30.416  18.681  35.020  0.00  0.00     0.078 H 
ATOM     45  H   L42 d1784      29.562  17.719  36.082  0.00  0.00     0.078 H 
ATOM     46  H   L42 d1784      27.698  22.740  34.505  0.00  0.00     0.084 H 
ATOM     47  H   L42 d1784      26.010  19.519  28.055  0.00  0.00     0.210 HD
ATOM     48  H   L42 d1784      26.503  20.016  34.047  0.00  0.00     0.091 H 
ATOM     49  H   L42 d1784      24.926  21.784  34.259  0.00  0.00     0.163 HD
ENDROOT
TORSDOF 12
ENDMDL
MODEL 38
REMARK VINA RESULT:      -7.8      3.763      7.086
REMARK  0 active torsions:
REMARK  status: ('A' for Active; 'I' for Inactive)
REMARK       I    between atoms: CCA_2  and  OCB_28 
REMARK       I    between atoms: CBL_3  and  CBK_24 
REMARK       I    between atoms: OBM_4  and  CBE_20 
REMARK       I    between atoms: CBI_5  and  CBJ_25 
REMARK       I    between atoms: CBY_7  and  OBZ_22 
REMARK       I    between atoms: SBW_8  and  OBP_27 
REMARK       I    between atoms: OBR_9  and  CBJ_25 
REMARK       I    between atoms: CCD_10  and  CCE_18 
REMARK       I    between atoms: OBO_12  and  CBG_29 
REMARK       I    between atoms: OBO_12  and  CBX_17 
REMARK       I    between atoms: CBH_23  and  OBP_27 
REMARK       I    between atoms: CBK_24  and  NBN_30 
REMARK       I    between atoms: CBF_26  and  NBN_30 
ROOT
ATOM      1  OBS L42 d1784      22.036  22.068  30.589  0.00  0.00    -0.274 OA
ATOM      2  CCA L42 d1784      23.894  24.030  35.521  0.00  0.00     0.084 C 
ATOM      3  CBL L42 d1784      22.335  24.390  31.128  0.00  0.00    -0.003 C 
ATOM      4  OBM L42 d1784      25.406  21.732  28.078  0.00  0.00    -0.369 OA
ATOM      5  CBI L42 d1784      27.347  20.200  30.840  0.00  0.00     0.090 C 
ATOM      6  OBU L42 d1784      25.009  18.639  34.152  0.00  0.00    -0.572 OA
ATOM      7  CBY L42 d1784      23.738  22.721  34.786  0.00  0.00     0.111 C 
ATOM      8  SBW L42 d1784      25.332  17.970  32.815  0.00  0.00     0.252 S 
ATOM      9  OBR L42 d1784      28.320  18.359  30.167  0.00  0.00    -0.398 OA
ATOM     10  CCD L42 d1784      26.375  23.376  35.405  0.00  0.00     0.147 C 
ATOM     11  OCG L42 d1784      28.603  22.639  35.321  0.00  0.00    -0.642 OA
ATOM     12  OBO L42 d1784      24.764  21.412  33.021  0.00  0.00    -0.348 OA
ATOM     13  OCH L42 d1784      26.110  22.377  34.525  0.00  0.00    -0.311 OA
ATOM     14  CCC L42 d1784      25.369  24.197  35.940  0.00  0.00    -0.034 C 
ATOM     15  OBQ L42 d1784      26.754  20.298  29.502  0.00  0.00    -0.349 OA
ATOM     16  OBV L42 d1784      24.336  17.023  32.397  0.00  0.00    -0.572 OA
ATOM     17  CBX L42 d1784      24.911  22.571  33.777  0.00  0.00     0.165 C 
ATOM     18  CCE L42 d1784      27.845  23.546  35.764  0.00  0.00     0.233 C 
ATOM     19  OCF L42 d1784      28.188  24.488  36.522  0.00  0.00    -0.642 OA
ATOM     20  CBE L42 d1784      25.936  21.564  29.378  0.00  0.00     0.151 C 
ATOM     21  OBT L42 d1784      26.601  17.226  32.994  0.00  0.00    -0.572 OA
ATOM     22  OBZ L42 d1784      22.465  22.694  34.177  0.00  0.00    -0.388 OA
ATOM     23  CBH L42 d1784      26.258  20.119  31.922  0.00  0.00     0.114 C 
ATOM     24  CBK L42 d1784      22.840  22.997  30.774  0.00  0.00     0.214 C 
ATOM     25  CBJ L42 d1784      28.339  19.037  31.291  0.00  0.00     0.043 C 
ATOM     26  CBF L42 d1784      24.851  21.631  30.485  0.00  0.00     0.087 C 
ATOM     27  OBP L42 d1784      25.407  18.946  31.678  0.00  0.00    -0.246 OA
ATOM     28  OCB L42 d1784      23.097  23.916  36.682  0.00  0.00    -0.389 OA
ATOM     29  CBG L42 d1784      25.548  21.435  31.874  0.00  0.00     0.094 C 
ATOM     30  NBN L42 d1784      24.175  22.910  30.648  0.00  0.00    -0.349 N 
ATOM     31  H   L42 d1784      23.606  24.866  34.917  0.00  0.00     0.093 H 
ATOM     32  H   L42 d1784      21.268  24.372  31.210  0.00  0.00     0.040 H 
ATOM     33  H   L42 d1784      22.623  25.080  30.363  0.00  0.00     0.040 H 
ATOM     34  H   L42 d1784      22.758  24.696  32.062  0.00  0.00     0.040 H 
ATOM     35  H   L42 d1784      26.124  21.681  27.427  0.00  0.00     0.212 HD
ATOM     36  H   L42 d1784      27.950  21.080  30.749  0.00  0.00     0.090 H 
ATOM     37  H   L42 d1784      23.787  21.882  35.448  0.00  0.00     0.095 H 
ATOM     38  H   L42 d1784      28.892  17.580  30.251  0.00  0.00     0.209 HD
ATOM     39  H   L42 d1784      25.621  24.925  36.626  0.00  0.00     0.085 H 
ATOM     40  H   L42 d1784      24.931  23.439  33.151  0.00  0.00     0.134 H 
ATOM     41  H   L42 d1784      26.592  22.395  29.531  0.00  0.00     0.132 H 
ATOM     42  H   L42 d1784      22.382  23.444  33.567  0.00  0.00     0.210 HD
ATOM     43  H   L42 d1784      26.637  19.973  32.912  0.00  0.00     0.093 H 
ATOM     44  H   L42 d1784      27.957  18.471  32.115  0.00  0.00     0.078 H 
ATOM     45  H   L42 d1784      29.301  19.341  31.648  0.00  0.00     0.078 H 
ATOM     46  H   L42 d1784      24.139  20.889  30.189  0.00  0.00     0.084 H 
ATOM     47  H   L42 d1784      23.388  23.150  37.200  0.00  0.00     0.210 HD
ATOM     48  H   L42 d1784      26.159  22.313  31.906  0.00  0.00     0.091 H 
ATOM     49  H   L42 d1784      24.712  23.735  30.665  0.00  0.00     0.163 HD
ENDROOT
TORSDOF 12
ENDMDL
MODEL 39
REMARK VINA RESULT:      -7.7      4.236      7.199
REMARK  0 active torsions:
REMARK  status: ('A' for Active; 'I' for Inactive)
REMARK       I    between atoms: CCA_2  and  OCB_28 
REMARK       I    between atoms: CBL_3  and  CBK_24 
REMARK       I    between atoms: OBM_4  and  CBE_20 
REMARK       I    between atoms: CBI_5  and  CBJ_25 
REMARK       I    between atoms: CBY_7  and  OBZ_22 
REMARK       I    between atoms: SBW_8  and  OBP_27 
REMARK       I    between atoms: OBR_9  and  CBJ_25 
REMARK       I    between atoms: CCD_10  and  CCE_18 
REMARK       I    between atoms: OBO_12  and  CBG_29 
REMARK       I    between atoms: OBO_12  and  CBX_17 
REMARK       I    between atoms: CBH_23  and  OBP_27 
REMARK       I    between atoms: CBK_24  and  NBN_30 
REMARK       I    between atoms: CBF_26  and  NBN_30 
ROOT
ATOM      1  OBS L42 d1784      27.141  16.499  30.409  0.00  0.00    -0.274 OA
ATOM      2  CCA L42 d1784      25.069  20.272  34.028  0.00  0.00     0.084 C 
ATOM      3  CBL L42 d1784      26.236  15.985  32.574  0.00  0.00    -0.003 C 
ATOM      4  OBM L42 d1784      23.873  15.048  28.176  0.00  0.00    -0.369 OA
ATOM      5  CBI L42 d1784      22.582  18.500  27.769  0.00  0.00     0.090 C 
ATOM      6  OBU L42 d1784      25.431  21.685  28.546  0.00  0.00    -0.572 OA
ATOM      7  CBY L42 d1784      25.545  20.187  32.598  0.00  0.00     0.111 C 
ATOM      8  SBW L42 d1784      25.239  20.871  27.266  0.00  0.00     0.252 S 
ATOM      9  OBR L42 d1784      22.127  18.907  25.667  0.00  0.00    -0.398 OA
ATOM     10  CCD L42 d1784      22.866  20.904  32.868  0.00  0.00     0.147 C 
ATOM     11  OCG L42 d1784      20.931  21.556  31.710  0.00  0.00    -0.642 OA
ATOM     12  OBO L42 d1784      24.835  19.409  30.414  0.00  0.00    -0.348 OA
ATOM     13  OCH L42 d1784      23.353  20.534  31.657  0.00  0.00    -0.311 OA
ATOM     14  CCC L42 d1784      23.630  20.827  34.044  0.00  0.00    -0.034 C 
ATOM     15  OBQ L42 d1784      23.054  17.177  27.342  0.00  0.00    -0.349 OA
ATOM     16  OBV L42 d1784      26.436  20.752  26.481  0.00  0.00    -0.572 OA
ATOM     17  CBX L42 d1784      24.410  19.578  31.729  0.00  0.00     0.165 C 
ATOM     18  CCE L42 d1784      21.427  21.404  32.860  0.00  0.00     0.233 C 
ATOM     19  OCF L42 d1784      20.875  21.707  33.948  0.00  0.00    -0.642 OA
ATOM     20  CBE L42 d1784      23.480  16.357  28.539  0.00  0.00     0.151 C 
ATOM     21  OBT L42 d1784      24.239  21.586  26.439  0.00  0.00    -0.572 OA
ATOM     22  OBZ L42 d1784      26.742  19.439  32.565  0.00  0.00    -0.388 OA
ATOM     23  CBH L42 d1784      23.705  19.290  28.459  0.00  0.00     0.114 C 
ATOM     24  CBK L42 d1784      26.122  16.388  31.109  0.00  0.00     0.214 C 
ATOM     25  CBJ L42 d1784      21.979  19.591  26.777  0.00  0.00     0.043 C 
ATOM     26  CBF L42 d1784      24.559  17.104  29.366  0.00  0.00     0.087 C 
ATOM     27  OBP L42 d1784      24.836  19.451  27.533  0.00  0.00    -0.246 OA
ATOM     28  OCB L42 d1784      25.926  21.199  34.663  0.00  0.00    -0.389 OA
ATOM     29  CBG L42 d1784      24.017  18.532  29.710  0.00  0.00     0.094 C 
ATOM     30  NBN L42 d1784      24.858  16.554  30.680  0.00  0.00    -0.349 N 
ATOM     31  H   L42 d1784      25.081  19.318  34.512  0.00  0.00     0.093 H 
ATOM     32  H   L42 d1784      27.268  15.875  32.833  0.00  0.00     0.040 H 
ATOM     33  H   L42 d1784      25.728  15.056  32.729  0.00  0.00     0.040 H 
ATOM     34  H   L42 d1784      25.793  16.741  33.187  0.00  0.00     0.040 H 
ATOM     35  H   L42 d1784      23.166  14.628  27.663  0.00  0.00     0.212 HD
ATOM     36  H   L42 d1784      21.754  18.133  28.339  0.00  0.00     0.090 H 
ATOM     37  H   L42 d1784      25.767  21.152  32.192  0.00  0.00     0.095 H 
ATOM     38  H   L42 d1784      21.801  19.431  24.919  0.00  0.00     0.209 HD
ATOM     39  H   L42 d1784      23.221  21.147  34.935  0.00  0.00     0.085 H 
ATOM     40  H   L42 d1784      24.117  18.645  32.161  0.00  0.00     0.134 H 
ATOM     41  H   L42 d1784      22.627  16.235  29.173  0.00  0.00     0.132 H 
ATOM     42  H   L42 d1784      26.581  18.555  32.928  0.00  0.00     0.210 HD
ATOM     43  H   L42 d1784      23.434  20.290  28.725  0.00  0.00     0.093 H 
ATOM     44  H   L42 d1784      22.546  20.499  26.776  0.00  0.00     0.078 H 
ATOM     45  H   L42 d1784      20.990  19.939  26.994  0.00  0.00     0.078 H 
ATOM     46  H   L42 d1784      25.433  17.050  28.751  0.00  0.00     0.084 H 
ATOM     47  H   L42 d1784      25.887  22.048  34.196  0.00  0.00     0.210 HD
ATOM     48  H   L42 d1784      23.188  18.276  30.337  0.00  0.00     0.091 H 
ATOM     49  H   L42 d1784      24.115  16.295  31.271  0.00  0.00     0.163 HD
ENDROOT
TORSDOF 12
ENDMDL
MODEL 40
REMARK VINA RESULT:      -7.7      3.176      6.899
REMARK  0 active torsions:
REMARK  status: ('A' for Active; 'I' for Inactive)
REMARK       I    between atoms: CCA_2  and  OCB_28 
REMARK       I    between atoms: CBL_3  and  CBK_24 
REMARK       I    between atoms: OBM_4  and  CBE_20 
REMARK       I    between atoms: CBI_5  and  CBJ_25 
REMARK       I    between atoms: CBY_7  and  OBZ_22 
REMARK       I    between atoms: SBW_8  and  OBP_27 
REMARK       I    between atoms: OBR_9  and  CBJ_25 
REMARK       I    between atoms: CCD_10  and  CCE_18 
REMARK       I    between atoms: OBO_12  and  CBG_29 
REMARK       I    between atoms: OBO_12  and  CBX_17 
REMARK       I    between atoms: CBH_23  and  OBP_27 
REMARK       I    between atoms: CBK_24  and  NBN_30 
REMARK       I    between atoms: CBF_26  and  NBN_30 
ROOT
ATOM      1  OBS L42 d1784      27.697  16.228  28.054  0.00  0.00    -0.274 OA
ATOM      2  CCA L42 d1784      28.030  19.058  32.902  0.00  0.00     0.084 C 
ATOM      3  CBL L42 d1784      27.991  15.230  30.219  0.00  0.00    -0.003 C 
ATOM      4  OBM L42 d1784      23.655  15.129  27.575  0.00  0.00    -0.369 OA
ATOM      5  CBI L42 d1784      22.580  18.525  28.600  0.00  0.00     0.090 C 
ATOM      6  OBU L42 d1784      25.639  21.605  28.433  0.00  0.00    -0.572 OA
ATOM      7  CBY L42 d1784      27.702  19.296  31.449  0.00  0.00     0.111 C 
ATOM      8  SBW L42 d1784      24.764  21.069  27.299  0.00  0.00     0.252 S 
ATOM      9  OBR L42 d1784      21.145  19.343  27.164  0.00  0.00    -0.398 OA
ATOM     10  CCD L42 d1784      25.594  19.817  33.194  0.00  0.00     0.147 C 
ATOM     11  OCG L42 d1784      23.389  20.608  33.355  0.00  0.00    -0.642 OA
ATOM     12  OBO L42 d1784      25.924  18.962  29.834  0.00  0.00    -0.348 OA
ATOM     13  OCH L42 d1784      25.367  19.732  31.860  0.00  0.00    -0.311 OA
ATOM     14  CCC L42 d1784      26.844  19.529  33.767  0.00  0.00    -0.034 C 
ATOM     15  OBQ L42 d1784      22.674  17.345  27.733  0.00  0.00    -0.349 OA
ATOM     16  OBV L42 d1784      25.381  21.173  26.006  0.00  0.00    -0.572 OA
ATOM     17  CBX L42 d1784      26.243  18.832  31.183  0.00  0.00     0.165 C 
ATOM     18  CCE L42 d1784      24.392  20.240  34.028  0.00  0.00     0.233 C 
ATOM     19  OCF L42 d1784      24.495  20.283  35.280  0.00  0.00    -0.642 OA
ATOM     20  CBE L42 d1784      23.594  16.312  28.346  0.00  0.00     0.151 C 
ATOM     21  OBT L42 d1784      23.534  21.895  27.269  0.00  0.00    -0.572 OA
ATOM     22  OBZ L42 d1784      28.659  18.629  30.655  0.00  0.00    -0.388 OA
ATOM     23  CBH L42 d1784      23.949  19.204  28.759  0.00  0.00     0.114 C 
ATOM     24  CBK L42 d1784      27.173  15.925  29.138  0.00  0.00     0.214 C 
ATOM     25  CBJ L42 d1784      21.632  19.772  28.305  0.00  0.00     0.043 C 
ATOM     26  CBF L42 d1784      24.993  16.918  28.633  0.00  0.00     0.087 C 
ATOM     27  OBP L42 d1784      24.456  19.608  27.440  0.00  0.00    -0.246 OA
ATOM     28  OCB L42 d1784      29.153  19.869  33.181  0.00  0.00    -0.389 OA
ATOM     29  CBG L42 d1784      24.803  18.216  29.489  0.00  0.00     0.094 C 
ATOM     30  NBN L42 d1784      25.883  16.119  29.463  0.00  0.00    -0.349 N 
ATOM     31  H   L42 d1784      28.222  18.025  33.106  0.00  0.00     0.093 H 
ATOM     32  H   L42 d1784      29.000  15.116  29.883  0.00  0.00     0.040 H 
ATOM     33  H   L42 d1784      27.571  14.267  30.421  0.00  0.00     0.040 H 
ATOM     34  H   L42 d1784      27.977  15.819  31.112  0.00  0.00     0.040 H 
ATOM     35  H   L42 d1784      22.758  14.793  27.425  0.00  0.00     0.212 HD
ATOM     36  H   L42 d1784      22.136  18.009  29.426  0.00  0.00     0.090 H 
ATOM     37  H   L42 d1784      27.751  20.334  31.192  0.00  0.00     0.095 H 
ATOM     38  H   L42 d1784      20.519  19.997  26.814  0.00  0.00     0.209 HD
ATOM     39  H   L42 d1784      26.971  19.636  34.786  0.00  0.00     0.085 H 
ATOM     40  H   L42 d1784      26.148  17.816  31.504  0.00  0.00     0.134 H 
ATOM     41  H   L42 d1784      23.179  16.021  29.288  0.00  0.00     0.132 H 
ATOM     42  H   L42 d1784      28.645  17.681  30.860  0.00  0.00     0.210 HD
ATOM     43  H   L42 d1784      23.922  20.113  29.324  0.00  0.00     0.093 H 
ATOM     44  H   L42 d1784      22.180  20.684  28.197  0.00  0.00     0.078 H 
ATOM     45  H   L42 d1784      20.920  20.020  29.064  0.00  0.00     0.078 H 
ATOM     46  H   L42 d1784      25.424  17.035  27.661  0.00  0.00     0.084 H 
ATOM     47  H   L42 d1784      28.940  20.795  32.984  0.00  0.00     0.210 HD
ATOM     48  H   L42 d1784      24.396  17.796  30.385  0.00  0.00     0.091 H 
ATOM     49  H   L42 d1784      25.529  15.708  30.285  0.00  0.00     0.163 HD
ENDROOT
TORSDOF 12
ENDMDL
MODEL 41
REMARK VINA RESULT:      -7.7      2.757      7.017
REMARK  0 active torsions:
REMARK  status: ('A' for Active; 'I' for Inactive)
REMARK       I    between atoms: CCA_2  and  OCB_28 
REMARK       I    between atoms: CBL_3  and  CBK_24 
REMARK       I    between atoms: OBM_4  and  CBE_20 
REMARK       I    between atoms: CBI_5  and  CBJ_25 
REMARK       I    between atoms: CBY_7  and  OBZ_22 
REMARK       I    between atoms: SBW_8  and  OBP_27 
REMARK       I    between atoms: OBR_9  and  CBJ_25 
REMARK       I    between atoms: CCD_10  and  CCE_18 
REMARK       I    between atoms: OBO_12  and  CBG_29 
REMARK       I    between atoms: OBO_12  and  CBX_17 
REMARK       I    between atoms: CBH_23  and  OBP_27 
REMARK       I    between atoms: CBK_24  and  NBN_30 
REMARK       I    between atoms: CBF_26  and  NBN_30 
ROOT
ATOM      1  OBS L42 d1784      25.129  21.462  33.312  0.00  0.00    -0.274 OA
ATOM      2  CCA L42 d1784      30.287  20.347  31.369  0.00  0.00     0.084 C 
ATOM      3  CBL L42 d1784      26.951  23.026  33.254  0.00  0.00    -0.003 C 
ATOM      4  OBM L42 d1784      22.968  23.138  30.104  0.00  0.00    -0.369 OA
ATOM      5  CBI L42 d1784      24.302  20.546  27.814  0.00  0.00     0.090 C 
ATOM      6  OBU L42 d1784      25.992  17.029  29.722  0.00  0.00    -0.572 OA
ATOM      7  CBY L42 d1784      28.914  19.723  31.420  0.00  0.00     0.111 C 
ATOM      8  SBW L42 d1784      24.525  17.333  29.414  0.00  0.00     0.252 S 
ATOM      9  OBR L42 d1784      22.680  19.614  26.678  0.00  0.00    -0.398 OA
ATOM     10  CCD L42 d1784      29.843  20.231  28.842  0.00  0.00     0.147 C 
ATOM     11  OCG L42 d1784      29.373  19.997  26.554  0.00  0.00    -0.642 OA
ATOM     12  OBO L42 d1784      26.734  19.867  30.369  0.00  0.00    -0.348 OA
ATOM     13  OCH L42 d1784      28.538  19.924  29.046  0.00  0.00    -0.311 OA
ATOM     14  CCC L42 d1784      30.746  20.431  29.899  0.00  0.00    -0.034 C 
ATOM     15  OBQ L42 d1784      23.277  21.337  28.503  0.00  0.00    -0.349 OA
ATOM     16  OBV L42 d1784      23.609  16.694  30.318  0.00  0.00    -0.572 OA
ATOM     17  CBX L42 d1784      28.034  20.360  30.308  0.00  0.00     0.165 C 
ATOM     18  CCE L42 d1784      30.257  20.352  27.381  0.00  0.00     0.233 C 
ATOM     19  OCF L42 d1784      31.433  20.697  27.101  0.00  0.00    -0.642 OA
ATOM     20  CBE L42 d1784      23.919  22.306  29.472  0.00  0.00     0.151 C 
ATOM     21  OBT L42 d1784      24.245  16.808  28.058  0.00  0.00    -0.572 OA
ATOM     22  OBZ L42 d1784      28.389  19.890  32.718  0.00  0.00    -0.388 OA
ATOM     23  CBH L42 d1784      25.104  19.694  28.810  0.00  0.00     0.114 C 
ATOM     24  CBK L42 d1784      25.844  22.198  32.613  0.00  0.00     0.214 C 
ATOM     25  CBJ L42 d1784      23.986  19.489  26.664  0.00  0.00     0.043 C 
ATOM     26  CBF L42 d1784      24.831  21.556  30.480  0.00  0.00     0.087 C 
ATOM     27  OBP L42 d1784      24.195  18.792  29.531  0.00  0.00    -0.246 OA
ATOM     28  OCB L42 d1784      31.138  19.461  32.067  0.00  0.00    -0.389 OA
ATOM     29  CBG L42 d1784      25.839  20.671  29.672  0.00  0.00     0.094 C 
ATOM     30  NBN L42 d1784      25.713  22.384  31.288  0.00  0.00    -0.349 N 
ATOM     31  H   L42 d1784      30.297  21.330  31.793  0.00  0.00     0.093 H 
ATOM     32  H   L42 d1784      26.988  22.820  34.303  0.00  0.00     0.040 H 
ATOM     33  H   L42 d1784      26.753  24.067  33.101  0.00  0.00     0.040 H 
ATOM     34  H   L42 d1784      27.890  22.773  32.807  0.00  0.00     0.040 H 
ATOM     35  H   L42 d1784      22.427  23.580  29.431  0.00  0.00     0.212 HD
ATOM     36  H   L42 d1784      24.763  21.380  27.326  0.00  0.00     0.090 H 
ATOM     37  H   L42 d1784      28.946  18.670  31.228  0.00  0.00     0.095 H 
ATOM     38  H   L42 d1784      22.291  19.023  26.015  0.00  0.00     0.209 HD
ATOM     39  H   L42 d1784      31.735  20.636  29.689  0.00  0.00     0.085 H 
ATOM     40  H   L42 d1784      28.049  21.422  30.433  0.00  0.00     0.134 H 
ATOM     41  H   L42 d1784      24.548  22.963  28.909  0.00  0.00     0.132 H 
ATOM     42  H   L42 d1784      28.345  20.836  32.930  0.00  0.00     0.210 HD
ATOM     43  H   L42 d1784      25.818  19.042  28.351  0.00  0.00     0.093 H 
ATOM     44  H   L42 d1784      24.304  18.500  26.920  0.00  0.00     0.078 H 
ATOM     45  H   L42 d1784      24.470  19.649  25.723  0.00  0.00     0.078 H 
ATOM     46  H   L42 d1784      24.138  21.047  31.117  0.00  0.00     0.084 H 
ATOM     47  H   L42 d1784      31.102  18.585  31.653  0.00  0.00     0.210 HD
ATOM     48  H   L42 d1784      26.399  21.432  29.168  0.00  0.00     0.091 H 
ATOM     49  H   L42 d1784      26.228  23.101  30.853  0.00  0.00     0.163 HD
ENDROOT
TORSDOF 12
ENDMDL
MODEL 42
REMARK VINA RESULT:      -7.7      2.439      3.851
REMARK  0 active torsions:
REMARK  status: ('A' for Active; 'I' for Inactive)
REMARK       I    between atoms: CCA_2  and  OCB_28 
REMARK       I    between atoms: CBL_3  and  CBK_24 
REMARK       I    between atoms: OBM_4  and  CBE_20 
REMARK       I    between atoms: CBI_5  and  CBJ_25 
REMARK       I    between atoms: CBY_7  and  OBZ_22 
REMARK       I    between atoms: SBW_8  and  OBP_27 
REMARK       I    between atoms: OBR_9  and  CBJ_25 
REMARK       I    between atoms: CCD_10  and  CCE_18 
REMARK       I    between atoms: OBO_12  and  CBG_29 
REMARK       I    between atoms: OBO_12  and  CBX_17 
REMARK       I    between atoms: CBH_23  and  OBP_27 
REMARK       I    between atoms: CBK_24  and  NBN_30 
REMARK       I    between atoms: CBF_26  and  NBN_30 
ROOT
ATOM      1  OBS L42 d1784      28.203  18.492  28.036  0.00  0.00    -0.274 OA
ATOM      2  CCA L42 d1784      23.802  21.896  28.852  0.00  0.00     0.084 C 
ATOM      3  CBL L42 d1784      27.973  20.698  27.114  0.00  0.00    -0.003 C 
ATOM      4  OBM L42 d1784      31.066  19.500  30.961  0.00  0.00    -0.369 OA
ATOM      5  CBI L42 d1784      28.416  19.632  33.551  0.00  0.00     0.090 C 
ATOM      6  OBU L42 d1784      24.679  17.667  32.529  0.00  0.00    -0.572 OA
ATOM      7  CBY L42 d1784      24.358  20.588  29.360  0.00  0.00     0.111 C 
ATOM      8  SBW L42 d1784      25.961  17.045  33.085  0.00  0.00     0.252 S 
ATOM      9  OBR L42 d1784      28.994  18.454  35.302  0.00  0.00    -0.398 OA
ATOM     10  CCD L42 d1784      24.156  22.576  31.303  0.00  0.00     0.147 C 
ATOM     11  OCG L42 d1784      24.438  23.063  33.583  0.00  0.00    -0.642 OA
ATOM     12  OBO L42 d1784      26.077  19.709  30.826  0.00  0.00    -0.348 OA
ATOM     13  OCH L42 d1784      24.876  21.452  31.551  0.00  0.00    -0.311 OA
ATOM     14  CCC L42 d1784      23.595  22.851  30.045  0.00  0.00    -0.034 C 
ATOM     15  OBQ L42 d1784      29.671  19.198  32.927  0.00  0.00    -0.349 OA
ATOM     16  OBV L42 d1784      26.139  15.672  32.705  0.00  0.00    -0.572 OA
ATOM     17  CBX L42 d1784      25.483  20.890  30.389  0.00  0.00     0.165 C 
ATOM     18  CCE L42 d1784      24.008  23.521  32.488  0.00  0.00     0.233 C 
ATOM     19  OCF L42 d1784      23.412  24.617  32.330  0.00  0.00    -0.642 OA
ATOM     20  CBE L42 d1784      29.833  19.837  31.565  0.00  0.00     0.151 C 
ATOM     21  OBT L42 d1784      25.862  17.085  34.562  0.00  0.00    -0.572 OA
ATOM     22  OBZ L42 d1784      24.793  19.824  28.257  0.00  0.00    -0.388 OA
ATOM     23  CBH L42 d1784      27.204  19.189  32.717  0.00  0.00     0.114 C 
ATOM     24  CBK L42 d1784      28.228  19.715  28.249  0.00  0.00     0.214 C 
ATOM     25  CBJ L42 d1784      27.966  19.220  35.022  0.00  0.00     0.043 C 
ATOM     26  CBF L42 d1784      28.612  19.526  30.660  0.00  0.00     0.087 C 
ATOM     27  OBP L42 d1784      27.202  17.725  32.587  0.00  0.00    -0.246 OA
ATOM     28  OCB L42 d1784      22.544  21.586  28.288  0.00  0.00    -0.389 OA
ATOM     29  CBG L42 d1784      27.311  19.938  31.426  0.00  0.00     0.094 C 
ATOM     30  NBN L42 d1784      28.512  20.296  29.428  0.00  0.00    -0.349 N 
ATOM     31  H   L42 d1784      24.455  22.361  28.143  0.00  0.00     0.093 H 
ATOM     32  H   L42 d1784      27.756  20.158  26.217  0.00  0.00     0.040 H 
ATOM     33  H   L42 d1784      28.843  21.304  26.964  0.00  0.00     0.040 H 
ATOM     34  H   L42 d1784      27.142  21.324  27.364  0.00  0.00     0.040 H 
ATOM     35  H   L42 d1784      31.793  19.714  31.567  0.00  0.00     0.212 HD
ATOM     36  H   L42 d1784      28.683  20.667  33.605  0.00  0.00     0.090 H 
ATOM     37  H   L42 d1784      23.616  20.010  29.870  0.00  0.00     0.095 H 
ATOM     38  H   L42 d1784      28.895  18.095  36.198  0.00  0.00     0.209 HD
ATOM     39  H   L42 d1784      23.034  23.707  29.918  0.00  0.00     0.085 H 
ATOM     40  H   L42 d1784      26.201  21.533  29.925  0.00  0.00     0.134 H 
ATOM     41  H   L42 d1784      29.860  20.898  31.702  0.00  0.00     0.132 H 
ATOM     42  H   L42 d1784      25.468  20.318  27.768  0.00  0.00     0.210 HD
ATOM     43  H   L42 d1784      26.260  19.418  33.165  0.00  0.00     0.093 H 
ATOM     44  H   L42 d1784      27.042  18.682  35.031  0.00  0.00     0.078 H 
ATOM     45  H   L42 d1784      27.770  20.022  35.704  0.00  0.00     0.078 H 
ATOM     46  H   L42 d1784      28.730  18.490  30.422  0.00  0.00     0.084 H 
ATOM     47  H   L42 d1784      21.983  21.168  28.960  0.00  0.00     0.210 HD
ATOM     48  H   L42 d1784      27.456  20.996  31.494  0.00  0.00     0.091 H 
ATOM     49  H   L42 d1784      28.656  21.269  29.460  0.00  0.00     0.163 HD
ENDROOT
TORSDOF 12
ENDMDL
MODEL 43
REMARK VINA RESULT:      -7.7      3.208      7.347
REMARK  0 active torsions:
REMARK  status: ('A' for Active; 'I' for Inactive)
REMARK       I    between atoms: CCA_2  and  OCB_28 
REMARK       I    between atoms: CBL_3  and  CBK_24 
REMARK       I    between atoms: OBM_4  and  CBE_20 
REMARK       I    between atoms: CBI_5  and  CBJ_25 
REMARK       I    between atoms: CBY_7  and  OBZ_22 
REMARK       I    between atoms: SBW_8  and  OBP_27 
REMARK       I    between atoms: OBR_9  and  CBJ_25 
REMARK       I    between atoms: CCD_10  and  CCE_18 
REMARK       I    between atoms: OBO_12  and  CBG_29 
REMARK       I    between atoms: OBO_12  and  CBX_17 
REMARK       I    between atoms: CBH_23  and  OBP_27 
REMARK       I    between atoms: CBK_24  and  NBN_30 
REMARK       I    between atoms: CBF_26  and  NBN_30 
ROOT
ATOM      1  OBS L42 d1784      23.619  23.455  34.016  0.00  0.00    -0.274 OA
ATOM      2  CCA L42 d1784      28.367  21.013  35.782  0.00  0.00     0.084 C 
ATOM      3  CBL L42 d1784      25.577  24.625  34.769  0.00  0.00    -0.003 C 
ATOM      4  OBM L42 d1784      24.135  24.268  29.912  0.00  0.00    -0.369 OA
ATOM      5  CBI L42 d1784      25.588  20.896  29.397  0.00  0.00     0.090 C 
ATOM      6  OBU L42 d1784      24.811  18.005  32.545  0.00  0.00    -0.572 OA
ATOM      7  CBY L42 d1784      27.062  20.650  35.117  0.00  0.00     0.111 C 
ATOM      8  SBW L42 d1784      23.912  18.401  31.373  0.00  0.00     0.252 S 
ATOM      9  OBR L42 d1784      24.617  19.889  27.714  0.00  0.00    -0.398 OA
ATOM     10  CCD L42 d1784      29.317  20.131  33.565  0.00  0.00     0.147 C 
ATOM     11  OCG L42 d1784      30.083  19.221  31.541  0.00  0.00    -0.642 OA
ATOM     12  OBO L42 d1784      25.943  20.755  32.969  0.00  0.00    -0.348 OA
ATOM     13  OCH L42 d1784      28.084  20.104  33.002  0.00  0.00    -0.311 OA
ATOM     14  CCC L42 d1784      29.533  20.535  34.893  0.00  0.00    -0.034 C 
ATOM     15  OBQ L42 d1784      24.662  22.013  29.178  0.00  0.00    -0.349 OA
ATOM     16  OBV L42 d1784      22.512  18.241  31.649  0.00  0.00    -0.572 OA
ATOM     17  CBX L42 d1784      27.155  21.003  33.607  0.00  0.00     0.165 C 
ATOM     18  CCE L42 d1784      30.454  19.697  32.649  0.00  0.00     0.233 C 
ATOM     19  OCF L42 d1784      31.638  19.753  33.068  0.00  0.00    -0.642 OA
ATOM     20  CBE L42 d1784      24.960  23.143  30.139  0.00  0.00     0.151 C 
ATOM     21  OBT L42 d1784      24.244  17.503  30.243  0.00  0.00    -0.572 OA
ATOM     22  OBZ L42 d1784      26.014  21.314  35.788  0.00  0.00    -0.388 OA
ATOM     23  CBH L42 d1784      25.427  20.316  30.811  0.00  0.00     0.114 C 
ATOM     24  CBK L42 d1784      24.783  23.804  33.761  0.00  0.00     0.214 C 
ATOM     25  CBJ L42 d1784      25.616  19.576  28.506  0.00  0.00     0.043 C 
ATOM     26  CBF L42 d1784      24.911  22.645  31.609  0.00  0.00     0.087 C 
ATOM     27  OBP L42 d1784      24.047  19.848  30.998  0.00  0.00    -0.246 OA
ATOM     28  OCB L42 d1784      28.393  20.295  36.999  0.00  0.00    -0.389 OA
ATOM     29  CBG L42 d1784      25.857  21.405  31.742  0.00  0.00     0.094 C 
ATOM     30  NBN L42 d1784      25.439  23.556  32.614  0.00  0.00    -0.349 N 
ATOM     31  H   L42 d1784      28.458  22.068  35.938  0.00  0.00     0.093 H 
ATOM     32  H   L42 d1784      24.987  24.776  35.649  0.00  0.00     0.040 H 
ATOM     33  H   L42 d1784      25.827  25.573  34.340  0.00  0.00     0.040 H 
ATOM     34  H   L42 d1784      26.475  24.103  35.028  0.00  0.00     0.040 H 
ATOM     35  H   L42 d1784      24.203  24.536  28.982  0.00  0.00     0.212 HD
ATOM     36  H   L42 d1784      26.471  21.444  29.138  0.00  0.00     0.090 H 
ATOM     37  H   L42 d1784      26.860  19.601  35.180  0.00  0.00     0.095 H 
ATOM     38  H   L42 d1784      24.476  19.175  27.073  0.00  0.00     0.209 HD
ATOM     39  H   L42 d1784      30.489  20.511  35.281  0.00  0.00     0.085 H 
ATOM     40  H   L42 d1784      27.434  22.032  33.517  0.00  0.00     0.134 H 
ATOM     41  H   L42 d1784      25.959  23.476  29.954  0.00  0.00     0.132 H 
ATOM     42  H   L42 d1784      26.163  22.272  35.752  0.00  0.00     0.210 HD
ATOM     43  H   L42 d1784      26.029  19.451  30.998  0.00  0.00     0.093 H 
ATOM     44  H   L42 d1784      25.422  18.693  29.077  0.00  0.00     0.078 H 
ATOM     45  H   L42 d1784      26.546  19.341  28.030  0.00  0.00     0.078 H 
ATOM     46  H   L42 d1784      23.868  22.484  31.788  0.00  0.00     0.084 H 
ATOM     47  H   L42 d1784      28.308  19.346  36.815  0.00  0.00     0.210 HD
ATOM     48  H   L42 d1784      26.803  21.864  31.543  0.00  0.00     0.091 H 
ATOM     49  H   L42 d1784      26.300  24.004  32.449  0.00  0.00     0.163 HD
ENDROOT
TORSDOF 12
ENDMDL
MODEL 44
REMARK VINA RESULT:      -7.6      3.098      6.116
REMARK  0 active torsions:
REMARK  status: ('A' for Active; 'I' for Inactive)
REMARK       I    between atoms: CCA_2  and  OCB_28 
REMARK       I    between atoms: CBL_3  and  CBK_24 
REMARK       I    between atoms: OBM_4  and  CBE_20 
REMARK       I    between atoms: CBI_5  and  CBJ_25 
REMARK       I    between atoms: CBY_7  and  OBZ_22 
REMARK       I    between atoms: SBW_8  and  OBP_27 
REMARK       I    between atoms: OBR_9  and  CBJ_25 
REMARK       I    between atoms: CCD_10  and  CCE_18 
REMARK       I    between atoms: OBO_12  and  CBG_29 
REMARK       I    between atoms: OBO_12  and  CBX_17 
REMARK       I    between atoms: CBH_23  and  OBP_27 
REMARK       I    between atoms: CBK_24  and  NBN_30 
REMARK       I    between atoms: CBF_26  and  NBN_30 
ROOT
ATOM      1  OBS L42 d1784      28.765  21.319  30.546  0.00  0.00    -0.274 OA
ATOM      2  CCA L42 d1784      26.318  16.443  31.909  0.00  0.00     0.084 C 
ATOM      3  CBL L42 d1784      29.851  19.177  30.532  0.00  0.00    -0.003 C 
ATOM      4  OBM L42 d1784      28.435  21.706  26.361  0.00  0.00    -0.369 OA
ATOM      5  CBI L42 d1784      24.898  20.606  26.510  0.00  0.00     0.090 C 
ATOM      6  OBU L42 d1784      23.019  20.811  30.421  0.00  0.00    -0.572 OA
ATOM      7  CBY L42 d1784      25.952  17.884  31.651  0.00  0.00     0.111 C 
ATOM      8  SBW L42 d1784      23.205  21.929  29.394  0.00  0.00     0.252 S 
ATOM      9  OBR L42 d1784      23.615  21.992  25.404  0.00  0.00    -0.398 OA
ATOM     10  CCD L42 d1784      24.792  16.076  29.876  0.00  0.00     0.147 C 
ATOM     11  OCG L42 d1784      23.312  15.846  28.068  0.00  0.00    -0.642 OA
ATOM     12  OBO L42 d1784      25.634  19.455  29.831  0.00  0.00    -0.348 OA
ATOM     13  OCH L42 d1784      24.767  17.405  29.606  0.00  0.00    -0.311 OA
ATOM     14  CCC L42 d1784      25.495  15.540  30.968  0.00  0.00    -0.034 C 
ATOM     15  OBQ L42 d1784      26.022  21.491  26.185  0.00  0.00    -0.349 OA
ATOM     16  OBV L42 d1784      23.286  23.237  29.984  0.00  0.00    -0.572 OA
ATOM     17  CBX L42 d1784      25.893  18.117  30.115  0.00  0.00     0.165 C 
ATOM     18  CCE L42 d1784      24.009  15.204  28.902  0.00  0.00     0.233 C 
ATOM     19  OCF L42 d1784      24.031  13.955  29.040  0.00  0.00    -0.642 OA
ATOM     20  CBE L42 d1784      27.317  20.917  26.716  0.00  0.00     0.151 C 
ATOM     21  OBT L42 d1784      22.015  21.916  28.512  0.00  0.00    -0.572 OA
ATOM     22  OBZ L42 d1784      26.884  18.712  32.311  0.00  0.00    -0.388 OA
ATOM     23  CBH L42 d1784      24.721  20.473  28.031  0.00  0.00     0.114 C 
ATOM     24  CBK L42 d1784      28.898  20.225  29.973  0.00  0.00     0.214 C 
ATOM     25  CBJ L42 d1784      23.399  20.858  26.030  0.00  0.00     0.043 C 
ATOM     26  CBF L42 d1784      27.221  20.659  28.243  0.00  0.00     0.087 C 
ATOM     27  OBP L42 d1784      24.482  21.800  28.617  0.00  0.00    -0.246 OA
ATOM     28  OCB L42 d1784      25.936  16.183  33.245  0.00  0.00    -0.389 OA
ATOM     29  CBG L42 d1784      25.954  19.781  28.518  0.00  0.00     0.094 C 
ATOM     30  NBN L42 d1784      28.291  19.864  28.830  0.00  0.00    -0.349 N 
ATOM     31  H   L42 d1784      27.359  16.258  31.746  0.00  0.00     0.093 H 
ATOM     32  H   L42 d1784      30.290  19.541  31.437  0.00  0.00     0.040 H 
ATOM     33  H   L42 d1784      30.622  18.977  29.817  0.00  0.00     0.040 H 
ATOM     34  H   L42 d1784      29.311  18.276  30.735  0.00  0.00     0.040 H 
ATOM     35  H   L42 d1784      28.447  21.836  25.400  0.00  0.00     0.212 HD
ATOM     36  H   L42 d1784      25.253  19.775  25.935  0.00  0.00     0.090 H 
ATOM     37  H   L42 d1784      24.985  18.127  32.040  0.00  0.00     0.095 H 
ATOM     38  H   L42 d1784      22.782  22.316  25.027  0.00  0.00     0.209 HD
ATOM     39  H   L42 d1784      25.459  14.524  31.144  0.00  0.00     0.085 H 
ATOM     40  H   L42 d1784      26.826  17.808  29.691  0.00  0.00     0.134 H 
ATOM     41  H   L42 d1784      27.472  19.969  26.247  0.00  0.00     0.132 H 
ATOM     42  H   L42 d1784      27.776  18.520  31.984  0.00  0.00     0.210 HD
ATOM     43  H   L42 d1784      23.869  19.896  28.322  0.00  0.00     0.093 H 
ATOM     44  H   L42 d1784      22.721  20.968  26.850  0.00  0.00     0.078 H 
ATOM     45  H   L42 d1784      22.943  20.077  25.458  0.00  0.00     0.078 H 
ATOM     46  H   L42 d1784      27.234  21.641  28.669  0.00  0.00     0.084 H 
ATOM     47  H   L42 d1784      24.989  16.361  33.351  0.00  0.00     0.210 HD
ATOM     48  H   L42 d1784      26.233  18.880  28.011  0.00  0.00     0.091 H 
ATOM     49  H   L42 d1784      28.577  19.039  28.376  0.00  0.00     0.163 HD
ENDROOT
TORSDOF 12
ENDMDL
MODEL 45
REMARK VINA RESULT:      -7.6      1.947      6.180
REMARK  0 active torsions:
REMARK  status: ('A' for Active; 'I' for Inactive)
REMARK       I    between atoms: CCA_2  and  OCB_28 
REMARK       I    between atoms: CBL_3  and  CBK_24 
REMARK       I    between atoms: OBM_4  and  CBE_20 
REMARK       I    between atoms: CBI_5  and  CBJ_25 
REMARK       I    between atoms: CBY_7  and  OBZ_22 
REMARK       I    between atoms: SBW_8  and  OBP_27 
REMARK       I    between atoms: OBR_9  and  CBJ_25 
REMARK       I    between atoms: CCD_10  and  CCE_18 
REMARK       I    between atoms: OBO_12  and  CBG_29 
REMARK       I    between atoms: OBO_12  and  CBX_17 
REMARK       I    between atoms: CBH_23  and  OBP_27 
REMARK       I    between atoms: CBK_24  and  NBN_30 
REMARK       I    between atoms: CBF_26  and  NBN_30 
ROOT
ATOM      1  OBS L42 d1784      31.233  20.836  28.064  0.00  0.00    -0.274 OA
ATOM      2  CCA L42 d1784      31.434  21.609  33.631  0.00  0.00     0.084 C 
ATOM      3  CBL L42 d1784      33.070  20.212  29.480  0.00  0.00    -0.003 C 
ATOM      4  OBM L42 d1784      29.771  16.932  27.440  0.00  0.00    -0.369 OA
ATOM      5  CBI L42 d1784      27.159  17.467  30.016  0.00  0.00     0.090 C 
ATOM      6  OBU L42 d1784      26.371  21.605  31.073  0.00  0.00    -0.572 OA
ATOM      7  CBY L42 d1784      30.454  21.708  32.488  0.00  0.00     0.111 C 
ATOM      8  SBW L42 d1784      25.823  20.804  29.892  0.00  0.00     0.252 S 
ATOM      9  OBR L42 d1784      25.192  16.895  29.246  0.00  0.00    -0.398 OA
ATOM     10  CCD L42 d1784      29.756  19.837  34.432  0.00  0.00     0.147 C 
ATOM     11  OCG L42 d1784      28.116  18.302  35.114  0.00  0.00    -0.642 OA
ATOM     12  OBO L42 d1784      29.085  20.317  31.048  0.00  0.00    -0.348 OA
ATOM     13  OCH L42 d1784      29.118  19.844  33.235  0.00  0.00    -0.311 OA
ATOM     14  CCC L42 d1784      30.858  20.664  34.705  0.00  0.00    -0.034 C 
ATOM     15  OBQ L42 d1784      27.700  17.135  28.693  0.00  0.00    -0.349 OA
ATOM     16  OBV L42 d1784      25.494  21.617  28.755  0.00  0.00    -0.572 OA
ATOM     17  CBX L42 d1784      29.935  20.282  32.150  0.00  0.00     0.165 C 
ATOM     18  CCE L42 d1784      29.194  18.860  35.457  0.00  0.00     0.233 C 
ATOM     19  OCF L42 d1784      29.764  18.742  36.571  0.00  0.00    -0.642 OA
ATOM     20  CBE L42 d1784      29.203  17.311  28.678  0.00  0.00     0.151 C 
ATOM     21  OBT L42 d1784      24.571  20.155  30.347  0.00  0.00    -0.572 OA
ATOM     22  OBZ L42 d1784      31.088  22.348  31.403  0.00  0.00    -0.388 OA
ATOM     23  CBH L42 d1784      27.426  18.939  30.368  0.00  0.00     0.114 C 
ATOM     24  CBK L42 d1784      31.664  20.044  28.917  0.00  0.00     0.214 C 
ATOM     25  CBJ L42 d1784      25.624  17.312  30.413  0.00  0.00     0.043 C 
ATOM     26  CBF L42 d1784      29.595  18.750  29.106  0.00  0.00     0.087 C 
ATOM     27  OBP L42 d1784      26.809  19.808  29.356  0.00  0.00    -0.246 OA
ATOM     28  OCB L42 d1784      31.530  22.912  34.169  0.00  0.00    -0.389 OA
ATOM     29  CBG L42 d1784      28.913  19.059  30.481  0.00  0.00     0.094 C 
ATOM     30  NBN L42 d1784      31.004  18.974  29.394  0.00  0.00    -0.349 N 
ATOM     31  H   L42 d1784      32.385  21.236  33.312  0.00  0.00     0.093 H 
ATOM     32  H   L42 d1784      33.523  21.082  29.053  0.00  0.00     0.040 H 
ATOM     33  H   L42 d1784      33.656  19.349  29.239  0.00  0.00     0.040 H 
ATOM     34  H   L42 d1784      33.018  20.323  30.543  0.00  0.00     0.040 H 
ATOM     35  H   L42 d1784      29.495  16.028  27.221  0.00  0.00     0.212 HD
ATOM     36  H   L42 d1784      27.676  16.687  30.536  0.00  0.00     0.090 H 
ATOM     37  H   L42 d1784      29.598  22.298  32.744  0.00  0.00     0.095 H 
ATOM     38  H   L42 d1784      24.236  16.739  29.292  0.00  0.00     0.209 HD
ATOM     39  H   L42 d1784      31.290  20.639  35.641  0.00  0.00     0.085 H 
ATOM     40  H   L42 d1784      30.779  19.651  31.964  0.00  0.00     0.134 H 
ATOM     41  H   L42 d1784      29.619  16.643  29.403  0.00  0.00     0.132 H 
ATOM     42  H   L42 d1784      31.872  21.841  31.141  0.00  0.00     0.210 HD
ATOM     43  H   L42 d1784      26.988  19.252  31.292  0.00  0.00     0.093 H 
ATOM     44  H   L42 d1784      25.181  18.241  30.703  0.00  0.00     0.078 H 
ATOM     45  H   L42 d1784      25.409  16.684  31.253  0.00  0.00     0.078 H 
ATOM     46  H   L42 d1784      29.302  19.352  28.271  0.00  0.00     0.084 H 
ATOM     47  H   L42 d1784      30.650  23.213  34.445  0.00  0.00     0.210 HD
ATOM     48  H   L42 d1784      29.408  18.344  31.105  0.00  0.00     0.091 H 
ATOM     49  H   L42 d1784      31.487  18.323  29.952  0.00  0.00     0.163 HD
ENDROOT
TORSDOF 12
ENDMDL
MODEL 46
REMARK VINA RESULT:      -7.6      2.387      5.463
REMARK  0 active torsions:
REMARK  status: ('A' for Active; 'I' for Inactive)
REMARK       I    between atoms: CCA_2  and  OCB_28 
REMARK       I    between atoms: CBL_3  and  CBK_24 
REMARK       I    between atoms: OBM_4  and  CBE_20 
REMARK       I    between atoms: CBI_5  and  CBJ_25 
REMARK       I    between atoms: CBY_7  and  OBZ_22 
REMARK       I    between atoms: SBW_8  and  OBP_27 
REMARK       I    between atoms: OBR_9  and  CBJ_25 
REMARK       I    between atoms: CCD_10  and  CCE_18 
REMARK       I    between atoms: OBO_12  and  CBG_29 
REMARK       I    between atoms: OBO_12  and  CBX_17 
REMARK       I    between atoms: CBH_23  and  OBP_27 
REMARK       I    between atoms: CBK_24  and  NBN_30 
REMARK       I    between atoms: CBF_26  and  NBN_30 
ROOT
ATOM      1  OBS L42 d1784      26.734  21.625  30.799  0.00  0.00    -0.274 OA
ATOM      2  CCA L42 d1784      29.331  17.838  27.553  0.00  0.00     0.084 C 
ATOM      3  CBL L42 d1784      25.740  19.601  29.972  0.00  0.00    -0.003 C 
ATOM      4  OBM L42 d1784      27.204  20.325  34.781  0.00  0.00    -0.369 OA
ATOM      5  CBI L42 d1784      30.777  19.567  34.142  0.00  0.00     0.090 C 
ATOM      6  OBU L42 d1784      32.497  21.419  30.609  0.00  0.00    -0.572 OA
ATOM      7  CBY L42 d1784      29.646  19.073  28.361  0.00  0.00     0.111 C 
ATOM      8  SBW L42 d1784      32.302  22.021  32.001  0.00  0.00     0.252 S 
ATOM      9  OBR L42 d1784      32.041  20.462  35.689  0.00  0.00    -0.398 OA
ATOM     10  CCD L42 d1784      30.946  16.772  29.241  0.00  0.00     0.147 C 
ATOM     11  OCG L42 d1784      32.502  15.918  30.779  0.00  0.00    -0.642 OA
ATOM     12  OBO L42 d1784      29.965  19.802  30.651  0.00  0.00    -0.348 OA
ATOM     13  OCH L42 d1784      30.926  17.882  30.021  0.00  0.00    -0.311 OA
ATOM     14  CCC L42 d1784      30.227  16.680  28.039  0.00  0.00    -0.034 C 
ATOM     15  OBQ L42 d1784      29.630  20.187  34.814  0.00  0.00    -0.349 OA
ATOM     16  OBV L42 d1784      32.144  23.449  31.987  0.00  0.00    -0.572 OA
ATOM     17  CBX L42 d1784      29.752  18.677  29.860  0.00  0.00     0.165 C 
ATOM     18  CCE L42 d1784      31.802  15.628  29.770  0.00  0.00     0.233 C 
ATOM     19  OCF L42 d1784      31.827  14.538  29.144  0.00  0.00    -0.642 OA
ATOM     20  CBE L42 d1784      28.341  19.805  34.120  0.00  0.00     0.151 C 
ATOM     21  OBT L42 d1784      33.525  21.721  32.782  0.00  0.00    -0.572 OA
ATOM     22  OBZ L42 d1784      28.656  20.045  28.104  0.00  0.00    -0.388 OA
ATOM     23  CBH L42 d1784      30.901  20.063  32.693  0.00  0.00     0.114 C 
ATOM     24  CBK L42 d1784      26.668  20.388  30.888  0.00  0.00     0.214 C 
ATOM     25  CBJ L42 d1784      32.280  19.687  34.657  0.00  0.00     0.043 C 
ATOM     26  CBF L42 d1784      28.390  20.183  32.616  0.00  0.00     0.087 C 
ATOM     27  OBP L42 d1784      31.062  21.524  32.684  0.00  0.00    -0.246 OA
ATOM     28  OCB L42 d1784      29.673  18.154  26.219  0.00  0.00    -0.389 OA
ATOM     29  CBG L42 d1784      29.682  19.558  31.991  0.00  0.00     0.094 C 
ATOM     30  NBN L42 d1784      27.333  19.633  31.780  0.00  0.00    -0.349 N 
ATOM     31  H   L42 d1784      28.305  17.548  27.646  0.00  0.00     0.093 H 
ATOM     32  H   L42 d1784      25.253  20.272  29.297  0.00  0.00     0.040 H 
ATOM     33  H   L42 d1784      25.006  19.090  30.561  0.00  0.00     0.040 H 
ATOM     34  H   L42 d1784      26.310  18.886  29.415  0.00  0.00     0.040 H 
ATOM     35  H   L42 d1784      27.224  20.060  35.714  0.00  0.00     0.212 HD
ATOM     36  H   L42 d1784      30.478  18.559  34.342  0.00  0.00     0.090 H 
ATOM     37  H   L42 d1784      30.586  19.504  28.085  0.00  0.00     0.095 H 
ATOM     38  H   L42 d1784      32.873  20.653  36.149  0.00  0.00     0.209 HD
ATOM     39  H   L42 d1784      30.298  15.823  27.470  0.00  0.00     0.085 H 
ATOM     40  H   L42 d1784      28.850  18.174  30.140  0.00  0.00     0.134 H 
ATOM     41  H   L42 d1784      28.243  18.741  34.173  0.00  0.00     0.132 H 
ATOM     42  H   L42 d1784      27.785  19.690  28.342  0.00  0.00     0.210 HD
ATOM     43  H   L42 d1784      31.766  19.697  32.180  0.00  0.00     0.093 H 
ATOM     44  H   L42 d1784      32.922  20.151  33.938  0.00  0.00     0.078 H 
ATOM     45  H   L42 d1784      32.790  18.768  34.860  0.00  0.00     0.078 H 
ATOM     46  H   L42 d1784      28.319  21.251  32.621  0.00  0.00     0.084 H 
ATOM     47  H   L42 d1784      30.608  18.411  26.176  0.00  0.00     0.210 HD
ATOM     48  H   L42 d1784      29.460  18.516  32.099  0.00  0.00     0.091 H 
ATOM     49  H   L42 d1784      27.099  18.681  31.870  0.00  0.00     0.163 HD
ENDROOT
TORSDOF 12
ENDMDL
MODEL 47
REMARK VINA RESULT:      -7.6      2.107      2.890
REMARK  0 active torsions:
REMARK  status: ('A' for Active; 'I' for Inactive)
REMARK       I    between atoms: CCA_2  and  OCB_28 
REMARK       I    between atoms: CBL_3  and  CBK_24 
REMARK       I    between atoms: OBM_4  and  CBE_20 
REMARK       I    between atoms: CBI_5  and  CBJ_25 
REMARK       I    between atoms: CBY_7  and  OBZ_22 
REMARK       I    between atoms: SBW_8  and  OBP_27 
REMARK       I    between atoms: OBR_9  and  CBJ_25 
REMARK       I    between atoms: CCD_10  and  CCE_18 
REMARK       I    between atoms: OBO_12  and  CBG_29 
REMARK       I    between atoms: OBO_12  and  CBX_17 
REMARK       I    between atoms: CBH_23  and  OBP_27 
REMARK       I    between atoms: CBK_24  and  NBN_30 
REMARK       I    between atoms: CBF_26  and  NBN_30 
ROOT
ATOM      1  OBS L42 d1784      29.303  16.692  29.130  0.00  0.00    -0.274 OA
ATOM      2  CCA L42 d1784      24.656  19.013  26.976  0.00  0.00     0.084 C 
ATOM      3  CBL L42 d1784      29.224  18.031  27.139  0.00  0.00    -0.003 C 
ATOM      4  OBM L42 d1784      31.081  19.615  31.593  0.00  0.00    -0.369 OA
ATOM      5  CBI L42 d1784      27.771  20.455  33.036  0.00  0.00     0.090 C 
ATOM      6  OBU L42 d1784      24.647  17.496  32.442  0.00  0.00    -0.572 OA
ATOM      7  CBY L42 d1784      25.114  18.290  28.219  0.00  0.00     0.111 C 
ATOM      8  SBW L42 d1784      25.738  17.526  33.513  0.00  0.00     0.252 S 
ATOM      9  OBR L42 d1784      27.866  20.467  35.222  0.00  0.00    -0.398 OA
ATOM     10  CCD L42 d1784      24.212  20.886  28.676  0.00  0.00     0.147 C 
ATOM     11  OCG L42 d1784      23.761  22.497  30.324  0.00  0.00    -0.642 OA
ATOM     12  OBO L42 d1784      26.363  18.655  30.265  0.00  0.00    -0.348 OA
ATOM     13  OCH L42 d1784      24.892  20.222  29.644  0.00  0.00    -0.311 OA
ATOM     14  CCC L42 d1784      24.040  20.367  27.382  0.00  0.00    -0.034 C 
ATOM     15  OBQ L42 d1784      29.180  20.047  33.042  0.00  0.00    -0.349 OA
ATOM     16  OBV L42 d1784      26.108  16.222  33.987  0.00  0.00    -0.572 OA
ATOM     17  CBX L42 d1784      25.855  19.298  29.140  0.00  0.00     0.165 C 
ATOM     18  CCE L42 d1784      23.654  22.241  29.092  0.00  0.00     0.233 C 
ATOM     19  OCF L42 d1784      23.065  22.953  28.240  0.00  0.00    -0.642 OA
ATOM     20  CBE L42 d1784      29.705  19.936  31.628  0.00  0.00     0.151 C 
ATOM     21  OBT L42 d1784      25.195  18.278  34.668  0.00  0.00    -0.572 OA
ATOM     22  OBZ L42 d1784      25.908  17.189  27.834  0.00  0.00    -0.388 OA
ATOM     23  CBH L42 d1784      26.897  19.406  32.330  0.00  0.00     0.114 C 
ATOM     24  CBK L42 d1784      29.186  17.830  28.648  0.00  0.00     0.214 C 
ATOM     25  CBJ L42 d1784      26.924  20.750  34.353  0.00  0.00     0.043 C 
ATOM     26  CBF L42 d1784      28.836  18.960  30.791  0.00  0.00     0.087 C 
ATOM     27  OBP L42 d1784      27.026  18.113  33.016  0.00  0.00    -0.246 OA
ATOM     28  OCB L42 d1784      23.649  18.202  26.407  0.00  0.00    -0.389 OA
ATOM     29  CBG L42 d1784      27.340  19.411  30.902  0.00  0.00     0.094 C 
ATOM     30  NBN L42 d1784      29.064  18.968  29.353  0.00  0.00    -0.349 N 
ATOM     31  H   L42 d1784      25.463  19.188  26.294  0.00  0.00     0.093 H 
ATOM     32  H   L42 d1784      29.322  17.082  26.655  0.00  0.00     0.040 H 
ATOM     33  H   L42 d1784      30.058  18.650  26.882  0.00  0.00     0.040 H 
ATOM     34  H   L42 d1784      28.319  18.503  26.818  0.00  0.00     0.040 H 
ATOM     35  H   L42 d1784      31.576  20.253  32.130  0.00  0.00     0.212 HD
ATOM     36  H   L42 d1784      27.943  21.407  32.578  0.00  0.00     0.090 H 
ATOM     37  H   L42 d1784      24.290  17.901  28.781  0.00  0.00     0.095 H 
ATOM     38  H   L42 d1784      27.524  20.594  36.121  0.00  0.00     0.209 HD
ATOM     39  H   L42 d1784      23.490  20.901  26.691  0.00  0.00     0.085 H 
ATOM     40  H   L42 d1784      26.638  19.759  28.574  0.00  0.00     0.134 H 
ATOM     41  H   L42 d1784      29.623  20.900  31.171  0.00  0.00     0.132 H 
ATOM     42  H   L42 d1784      26.668  17.503  27.319  0.00  0.00     0.210 HD
ATOM     43  H   L42 d1784      25.849  19.621  32.361  0.00  0.00     0.093 H 
ATOM     44  H   L42 d1784      26.076  20.105  34.446  0.00  0.00     0.078 H 
ATOM     45  H   L42 d1784      26.482  21.722  34.428  0.00  0.00     0.078 H 
ATOM     46  H   L42 d1784      29.085  17.997  31.185  0.00  0.00     0.084 H 
ATOM     47  H   L42 d1784      22.939  18.067  27.055  0.00  0.00     0.210 HD
ATOM     48  H   L42 d1784      27.392  20.363  30.416  0.00  0.00     0.091 H 
ATOM     49  H   L42 d1784      29.131  19.830  28.884  0.00  0.00     0.163 HD
ENDROOT
TORSDOF 12
ENDMDL
MODEL 48
REMARK VINA RESULT:      -7.5      3.345      6.845
REMARK  0 active torsions:
REMARK  status: ('A' for Active; 'I' for Inactive)
REMARK       I    between atoms: CCA_2  and  OCB_28 
REMARK       I    between atoms: CBL_3  and  CBK_24 
REMARK       I    between atoms: OBM_4  and  CBE_20 
REMARK       I    between atoms: CBI_5  and  CBJ_25 
REMARK       I    between atoms: CBY_7  and  OBZ_22 
REMARK       I    between atoms: SBW_8  and  OBP_27 
REMARK       I    between atoms: OBR_9  and  CBJ_25 
REMARK       I    between atoms: CCD_10  and  CCE_18 
REMARK       I    between atoms: OBO_12  and  CBG_29 
REMARK       I    between atoms: OBO_12  and  CBX_17 
REMARK       I    between atoms: CBH_23  and  OBP_27 
REMARK       I    between atoms: CBK_24  and  NBN_30 
REMARK       I    between atoms: CBF_26  and  NBN_30 
ROOT
ATOM      1  OBS L42 d1784      29.037  19.883  30.920  0.00  0.00    -0.274 OA
ATOM      2  CCA L42 d1784      25.374  22.659  34.159  0.00  0.00     0.084 C 
ATOM      3  CBL L42 d1784      28.899  19.707  33.311  0.00  0.00    -0.003 C 
ATOM      4  OBM L42 d1784      27.300  16.136  30.072  0.00  0.00    -0.369 OA
ATOM      5  CBI L42 d1784      24.045  17.770  29.381  0.00  0.00     0.090 C 
ATOM      6  OBU L42 d1784      24.198  22.048  28.643  0.00  0.00    -0.572 OA
ATOM      7  CBY L42 d1784      25.651  22.392  32.700  0.00  0.00     0.111 C 
ATOM      8  SBW L42 d1784      24.458  20.903  27.664  0.00  0.00     0.252 S 
ATOM      9  OBR L42 d1784      23.233  17.088  27.466  0.00  0.00    -0.398 OA
ATOM     10  CCD L42 d1784      23.191  21.433  33.590  0.00  0.00     0.147 C 
ATOM     11  OCG L42 d1784      21.195  20.379  32.942  0.00  0.00    -0.642 OA
ATOM     12  OBO L42 d1784      25.409  20.662  31.018  0.00  0.00    -0.348 OA
ATOM     13  OCH L42 d1784      23.680  21.036  32.389  0.00  0.00    -0.311 OA
ATOM     14  CCC L42 d1784      23.931  22.224  34.483  0.00  0.00    -0.034 C 
ATOM     15  OBQ L42 d1784      25.218  16.933  29.107  0.00  0.00    -0.349 OA
ATOM     16  OBV L42 d1784      25.362  21.254  26.604  0.00  0.00    -0.572 OA
ATOM     17  CBX L42 d1784      25.105  20.982  32.338  0.00  0.00     0.165 C 
ATOM     18  CCE L42 d1784      21.780  20.950  33.903  0.00  0.00     0.233 C 
ATOM     19  OCF L42 d1784      21.272  21.216  35.022  0.00  0.00    -0.642 OA
ATOM     20  CBE L42 d1784      26.188  16.988  30.266  0.00  0.00     0.151 C 
ATOM     21  OBT L42 d1784      23.160  20.558  27.039  0.00  0.00    -0.572 OA
ATOM     22  OBZ L42 d1784      27.035  22.536  32.468  0.00  0.00    -0.388 OA
ATOM     23  CBH L42 d1784      24.445  19.245  29.542  0.00  0.00     0.114 C 
ATOM     24  CBK L42 d1784      28.409  19.438  31.894  0.00  0.00     0.214 C 
ATOM     25  CBJ L42 d1784      22.785  17.880  28.412  0.00  0.00     0.043 C 
ATOM     26  CBF L42 d1784      26.597  18.452  30.577  0.00  0.00     0.087 C 
ATOM     27  OBP L42 d1784      25.103  19.714  28.314  0.00  0.00    -0.246 OA
ATOM     28  OCB L42 d1784      25.479  24.059  34.320  0.00  0.00    -0.389 OA
ATOM     29  CBG L42 d1784      25.293  19.298  30.772  0.00  0.00     0.094 C 
ATOM     30  NBN L42 d1784      27.307  18.671  31.828  0.00  0.00    -0.349 N 
ATOM     31  H   L42 d1784      26.050  22.130  34.799  0.00  0.00     0.093 H 
ATOM     32  H   L42 d1784      29.774  20.322  33.274  0.00  0.00     0.040 H 
ATOM     33  H   L42 d1784      29.134  18.780  33.790  0.00  0.00     0.040 H 
ATOM     34  H   L42 d1784      28.133  20.210  33.864  0.00  0.00     0.040 H 
ATOM     35  H   L42 d1784      26.990  15.237  29.882  0.00  0.00     0.212 HD
ATOM     36  H   L42 d1784      23.714  17.207  30.229  0.00  0.00     0.090 H 
ATOM     37  H   L42 d1784      25.151  23.092  32.063  0.00  0.00     0.095 H 
ATOM     38  H   L42 d1784      22.574  17.026  26.757  0.00  0.00     0.209 HD
ATOM     39  H   L42 d1784      23.501  22.521  35.373  0.00  0.00     0.085 H 
ATOM     40  H   L42 d1784      25.533  20.271  33.014  0.00  0.00     0.134 H 
ATOM     41  H   L42 d1784      25.686  16.612  31.133  0.00  0.00     0.132 H 
ATOM     42  H   L42 d1784      27.523  21.915  33.030  0.00  0.00     0.210 HD
ATOM     43  H   L42 d1784      23.617  19.910  29.671  0.00  0.00     0.093 H 
ATOM     44  H   L42 d1784      22.622  18.878  28.065  0.00  0.00     0.078 H 
ATOM     45  H   L42 d1784      21.834  17.626  28.834  0.00  0.00     0.078 H 
ATOM     46  H   L42 d1784      27.231  18.718  29.757  0.00  0.00     0.084 H 
ATOM     47  H   L42 d1784      24.853  24.501  33.725  0.00  0.00     0.210 HD
ATOM     48  H   L42 d1784      24.896  18.835  31.652  0.00  0.00     0.091 H 
ATOM     49  H   L42 d1784      26.972  18.244  32.649  0.00  0.00     0.163 HD
ENDROOT
TORSDOF 12
ENDMDL
MODEL 49
REMARK VINA RESULT:      -7.5      2.613      6.915
REMARK  0 active torsions:
REMARK  status: ('A' for Active; 'I' for Inactive)
REMARK       I    between atoms: CCA_2  and  OCB_28 
REMARK       I    between atoms: CBL_3  and  CBK_24 
REMARK       I    between atoms: OBM_4  and  CBE_20 
REMARK       I    between atoms: CBI_5  and  CBJ_25 
REMARK       I    between atoms: CBY_7  and  OBZ_22 
REMARK       I    between atoms: SBW_8  and  OBP_27 
REMARK       I    between atoms: OBR_9  and  CBJ_25 
REMARK       I    between atoms: CCD_10  and  CCE_18 
REMARK       I    between atoms: OBO_12  and  CBG_29 
REMARK       I    between atoms: OBO_12  and  CBX_17 
REMARK       I    between atoms: CBH_23  and  OBP_27 
REMARK       I    between atoms: CBK_24  and  NBN_30 
REMARK       I    between atoms: CBF_26  and  NBN_30 
ROOT
ATOM      1  OBS L42 d1784      25.050  22.608  34.054  0.00  0.00    -0.274 OA
ATOM      2  CCA L42 d1784      30.010  20.015  33.505  0.00  0.00     0.084 C 
ATOM      3  CBL L42 d1784      27.194  23.683  34.190  0.00  0.00    -0.003 C 
ATOM      4  OBM L42 d1784      24.028  24.078  30.237  0.00  0.00    -0.369 OA
ATOM      5  CBI L42 d1784      25.045  20.864  28.695  0.00  0.00     0.090 C 
ATOM      6  OBU L42 d1784      25.382  17.490  31.411  0.00  0.00    -0.572 OA
ATOM      7  CBY L42 d1784      28.537  19.736  33.330  0.00  0.00     0.111 C 
ATOM      8  SBW L42 d1784      24.127  18.050  30.740  0.00  0.00     0.252 S 
ATOM      9  OBR L42 d1784      23.475  20.119  27.365  0.00  0.00    -0.398 OA
ATOM     10  CCD L42 d1784      30.026  19.519  30.985  0.00  0.00     0.147 C 
ATOM     11  OCG L42 d1784      29.942  18.961  28.706  0.00  0.00    -0.642 OA
ATOM     12  OBO L42 d1784      26.702  20.160  31.803  0.00  0.00    -0.348 OA
ATOM     13  OCH L42 d1784      28.671  19.557  30.929  0.00  0.00    -0.311 OA
ATOM     14  CCC L42 d1784      30.738  19.710  32.180  0.00  0.00    -0.034 C 
ATOM     15  OBQ L42 d1784      24.150  21.982  29.017  0.00  0.00    -0.349 OA
ATOM     16  OBV L42 d1784      22.926  17.819  31.493  0.00  0.00    -0.572 OA
ATOM     17  CBX L42 d1784      28.073  20.328  31.970  0.00  0.00     0.165 C 
ATOM     18  CCE L42 d1784      30.720  19.262  29.653  0.00  0.00     0.233 C 
ATOM     19  OCF L42 d1784      31.975  19.274  29.601  0.00  0.00    -0.642 OA
ATOM     20  CBE L42 d1784      24.832  22.949  29.960  0.00  0.00     0.151 C 
ATOM     21  OBT L42 d1784      23.976  17.351  29.442  0.00  0.00    -0.572 OA
ATOM     22  OBZ L42 d1784      27.843  20.262  34.440  0.00  0.00    -0.388 OA
ATOM     23  CBH L42 d1784      25.400  20.061  29.957  0.00  0.00     0.114 C 
ATOM     24  CBK L42 d1784      26.048  23.018  33.439  0.00  0.00     0.214 C 
ATOM     25  CBJ L42 d1784      24.683  19.704  27.664  0.00  0.00     0.043 C 
ATOM     26  CBF L42 d1784      25.315  22.222  31.243  0.00  0.00     0.087 C 
ATOM     27  OBP L42 d1784      24.171  19.541  30.573  0.00  0.00    -0.246 OA
ATOM     28  OCB L42 d1784      30.458  19.112  34.494  0.00  0.00    -0.389 OA
ATOM     29  CBG L42 d1784      26.191  20.996  30.816  0.00  0.00     0.094 C 
ATOM     30  NBN L42 d1784      26.217  22.971  32.106  0.00  0.00    -0.349 N 
ATOM     31  H   L42 d1784      30.195  21.034  33.778  0.00  0.00     0.093 H 
ATOM     32  H   L42 d1784      26.982  23.679  35.239  0.00  0.00     0.040 H 
ATOM     33  H   L42 d1784      27.304  24.693  33.852  0.00  0.00     0.040 H 
ATOM     34  H   L42 d1784      28.100  23.146  34.008  0.00  0.00     0.040 H 
ATOM     35  H   L42 d1784      23.755  24.493  29.404  0.00  0.00     0.212 HD
ATOM     36  H   L42 d1784      25.788  21.464  28.213  0.00  0.00     0.090 H 
ATOM     37  H   L42 d1784      28.330  18.686  33.300  0.00  0.00     0.095 H 
ATOM     38  H   L42 d1784      23.076  19.514  26.720  0.00  0.00     0.209 HD
ATOM     39  H   L42 d1784      31.768  19.644  32.172  0.00  0.00     0.085 H 
ATOM     40  H   L42 d1784      28.340  21.364  31.945  0.00  0.00     0.134 H 
ATOM     41  H   L42 d1784      25.702  23.329  29.468  0.00  0.00     0.132 H 
ATOM     42  H   L42 d1784      28.007  21.216  34.501  0.00  0.00     0.210 HD
ATOM     43  H   L42 d1784      25.992  19.190  29.767  0.00  0.00     0.093 H 
ATOM     44  H   L42 d1784      24.681  18.737  28.121  0.00  0.00     0.078 H 
ATOM     45  H   L42 d1784      25.357  19.568  26.844  0.00  0.00     0.078 H 
ATOM     46  H   L42 d1784      24.409  22.012  31.773  0.00  0.00     0.084 H 
ATOM     47  H   L42 d1784      30.273  18.203  34.210  0.00  0.00     0.210 HD
ATOM     48  H   L42 d1784      27.012  21.501  30.351  0.00  0.00     0.091 H 
ATOM     49  H   L42 d1784      26.971  23.457  31.702  0.00  0.00     0.163 HD
ENDROOT
TORSDOF 12
ENDMDL
MODEL 50
REMARK VINA RESULT:      -7.5      3.140      4.581
REMARK  0 active torsions:
REMARK  status: ('A' for Active; 'I' for Inactive)
REMARK       I    between atoms: CCA_2  and  OCB_28 
REMARK       I    between atoms: CBL_3  and  CBK_24 
REMARK       I    between atoms: OBM_4  and  CBE_20 
REMARK       I    between atoms: CBI_5  and  CBJ_25 
REMARK       I    between atoms: CBY_7  and  OBZ_22 
REMARK       I    between atoms: SBW_8  and  OBP_27 
REMARK       I    between atoms: OBR_9  and  CBJ_25 
REMARK       I    between atoms: CCD_10  and  CCE_18 
REMARK       I    between atoms: OBO_12  and  CBG_29 
REMARK       I    between atoms: OBO_12  and  CBX_17 
REMARK       I    between atoms: CBH_23  and  OBP_27 
REMARK       I    between atoms: CBK_24  and  NBN_30 
REMARK       I    between atoms: CBF_26  and  NBN_30 
ROOT
ATOM      1  OBS L42 d1784      29.262  19.609  33.629  0.00  0.00    -0.274 OA
ATOM      2  CCA L42 d1784      26.591  18.458  28.817  0.00  0.00     0.084 C 
ATOM      3  CBL L42 d1784      30.238  19.751  31.440  0.00  0.00    -0.003 C 
ATOM      4  OBM L42 d1784      28.894  23.763  34.250  0.00  0.00    -0.369 OA
ATOM      5  CBI L42 d1784      25.308  23.612  33.321  0.00  0.00     0.090 C 
ATOM      6  OBU L42 d1784      23.497  19.665  33.415  0.00  0.00    -0.572 OA
ATOM      7  CBY L42 d1784      26.294  18.636  30.286  0.00  0.00     0.111 C 
ATOM      8  SBW L42 d1784      23.725  20.636  34.574  0.00  0.00     0.252 S 
ATOM      9  OBR L42 d1784      24.081  24.625  34.824  0.00  0.00    -0.398 OA
ATOM     10  CCD L42 d1784      25.021  20.482  28.632  0.00  0.00     0.147 C 
ATOM     11  OCG L42 d1784      23.506  22.275  28.570  0.00  0.00    -0.642 OA
ATOM     12  OBO L42 d1784      26.032  20.367  31.963  0.00  0.00    -0.348 OA
ATOM     13  OCH L42 d1784      25.059  20.683  29.973  0.00  0.00    -0.311 OA
ATOM     14  CCC L42 d1784      25.710  19.431  28.006  0.00  0.00    -0.034 C 
ATOM     15  OBQ L42 d1784      26.470  23.910  34.165  0.00  0.00    -0.349 OA
ATOM     16  OBV L42 d1784      23.879  19.982  35.844  0.00  0.00    -0.572 OA
ATOM     17  CBX L42 d1784      26.227  20.156  30.601  0.00  0.00     0.165 C 
ATOM     18  CCE L42 d1784      24.181  21.486  27.853  0.00  0.00     0.233 C 
ATOM     19  OCF L42 d1784      24.142  21.413  26.599  0.00  0.00    -0.642 OA
ATOM     20  CBE L42 d1784      27.742  23.430  33.501  0.00  0.00     0.151 C 
ATOM     21  OBT L42 d1784      22.523  21.498  34.666  0.00  0.00    -0.572 OA
ATOM     22  OBZ L42 d1784      27.276  17.949  31.031  0.00  0.00    -0.388 OA
ATOM     23  CBH L42 d1784      25.146  22.097  33.118  0.00  0.00     0.114 C 
ATOM     24  CBK L42 d1784      29.332  20.240  32.562  0.00  0.00     0.214 C 
ATOM     25  CBJ L42 d1784      23.817  24.054  33.672  0.00  0.00     0.043 C 
ATOM     26  CBF L42 d1784      27.655  21.917  33.168  0.00  0.00     0.087 C 
ATOM     27  OBP L42 d1784      24.982  21.440  34.423  0.00  0.00    -0.246 OA
ATOM     28  OCB L42 d1784      26.215  17.131  28.506  0.00  0.00    -0.389 OA
ATOM     29  CBG L42 d1784      26.349  21.667  32.341  0.00  0.00     0.094 C 
ATOM     30  NBN L42 d1784      28.691  21.390  32.292  0.00  0.00    -0.349 N 
ATOM     31  H   L42 d1784      27.620  18.647  28.589  0.00  0.00     0.093 H 
ATOM     32  H   L42 d1784      30.707  18.836  31.734  0.00  0.00     0.040 H 
ATOM     33  H   L42 d1784      30.988  20.488  31.239  0.00  0.00     0.040 H 
ATOM     34  H   L42 d1784      29.656  19.585  30.557  0.00  0.00     0.040 H 
ATOM     35  H   L42 d1784      28.898  24.716  34.430  0.00  0.00     0.212 HD
ATOM     36  H   L42 d1784      25.613  24.234  32.505  0.00  0.00     0.090 H 
ATOM     37  H   L42 d1784      25.347  18.219  30.556  0.00  0.00     0.095 H 
ATOM     38  H   L42 d1784      23.260  24.970  35.209  0.00  0.00     0.209 HD
ATOM     39  H   L42 d1784      25.626  19.307  26.985  0.00  0.00     0.085 H 
ATOM     40  H   L42 d1784      27.136  20.611  30.268  0.00  0.00     0.134 H 
ATOM     41  H   L42 d1784      27.843  23.950  32.571  0.00  0.00     0.132 H 
ATOM     42  H   L42 d1784      28.153  18.301  30.812  0.00  0.00     0.210 HD
ATOM     43  H   L42 d1784      24.270  21.822  32.569  0.00  0.00     0.093 H 
ATOM     44  H   L42 d1784      23.157  23.218  33.772  0.00  0.00     0.078 H 
ATOM     45  H   L42 d1784      23.315  24.658  32.945  0.00  0.00     0.078 H 
ATOM     46  H   L42 d1784      27.723  21.442  34.124  0.00  0.00     0.084 H 
ATOM     47  H   L42 d1784      25.280  17.001  28.726  0.00  0.00     0.210 HD
ATOM     48  H   L42 d1784      26.575  22.224  31.455  0.00  0.00     0.091 H 
ATOM     49  H   L42 d1784      28.929  21.890  31.478  0.00  0.00     0.163 HD
ENDROOT
TORSDOF 12
ENDMDL
MODEL 51
REMARK VINA RESULT:      -7.5      3.065      5.723
REMARK  0 active torsions:
REMARK  status: ('A' for Active; 'I' for Inactive)
REMARK       I    between atoms: CCA_2  and  OCB_28 
REMARK       I    between atoms: CBL_3  and  CBK_24 
REMARK       I    between atoms: OBM_4  and  CBE_20 
REMARK       I    between atoms: CBI_5  and  CBJ_25 
REMARK       I    between atoms: CBY_7  and  OBZ_22 
REMARK       I    between atoms: SBW_8  and  OBP_27 
REMARK       I    between atoms: OBR_9  and  CBJ_25 
REMARK       I    between atoms: CCD_10  and  CCE_18 
REMARK       I    between atoms: OBO_12  and  CBG_29 
REMARK       I    between atoms: OBO_12  and  CBX_17 
REMARK       I    between atoms: CBH_23  and  OBP_27 
REMARK       I    between atoms: CBK_24  and  NBN_30 
REMARK       I    between atoms: CBF_26  and  NBN_30 
ROOT
ATOM      1  OBS L42 d1784      25.092  24.469  32.936  0.00  0.00    -0.274 OA
ATOM      2  CCA L42 d1784      24.656  20.821  28.680  0.00  0.00     0.084 C 
ATOM      3  CBL L42 d1784      23.034  23.540  32.119  0.00  0.00    -0.003 C 
ATOM      4  OBM L42 d1784      25.270  22.182  36.473  0.00  0.00    -0.369 OA
ATOM      5  CBI L42 d1784      27.676  19.854  34.880  0.00  0.00     0.090 C 
ATOM      6  OBU L42 d1784      29.656  21.338  31.309  0.00  0.00    -0.572 OA
ATOM      7  CBY L42 d1784      25.714  21.466  29.541  0.00  0.00     0.111 C 
ATOM      8  SBW L42 d1784      30.019  21.589  32.773  0.00  0.00     0.252 S 
ATOM      9  OBR L42 d1784      29.415  19.544  36.172  0.00  0.00    -0.398 OA
ATOM     10  CCD L42 d1784      25.597  18.691  29.763  0.00  0.00     0.147 C 
ATOM     11  OCG L42 d1784      26.590  16.803  30.744  0.00  0.00    -0.642 OA
ATOM     12  OBO L42 d1784      26.685  21.330  31.759  0.00  0.00    -0.348 OA
ATOM     13  OCH L42 d1784      26.308  19.416  30.663  0.00  0.00    -0.311 OA
ATOM     14  CCC L42 d1784      24.800  19.288  28.773  0.00  0.00    -0.034 C 
ATOM     15  OBQ L42 d1784      27.177  20.795  35.890  0.00  0.00    -0.349 OA
ATOM     16  OBV L42 d1784      30.691  22.840  32.987  0.00  0.00    -0.572 OA
ATOM     17  CBX L42 d1784      25.775  20.718  30.902  0.00  0.00     0.165 C 
ATOM     18  CCE L42 d1784      25.722  17.180  29.909  0.00  0.00     0.233 C 
ATOM     19  OCF L42 d1784      25.048  16.431  29.157  0.00  0.00    -0.642 OA
ATOM     20  CBE L42 d1784      25.818  21.327  35.490  0.00  0.00     0.151 C 
ATOM     21  OBT L42 d1784      30.951  20.512  33.183  0.00  0.00    -0.572 OA
ATOM     22  OBZ L42 d1784      25.418  22.840  29.667  0.00  0.00    -0.388 OA
ATOM     23  CBH L42 d1784      27.866  20.551  33.523  0.00  0.00     0.114 C 
ATOM     24  CBK L42 d1784      24.355  23.472  32.874  0.00  0.00     0.214 C 
ATOM     25  CBJ L42 d1784      29.039  19.040  35.020  0.00  0.00     0.043 C 
ATOM     26  CBF L42 d1784      25.873  21.981  34.083  0.00  0.00     0.087 C 
ATOM     27  OBP L42 d1784      28.818  21.662  33.668  0.00  0.00    -0.246 OA
ATOM     28  OCB L42 d1784      24.937  21.229  27.356  0.00  0.00    -0.389 OA
ATOM     29  CBG L42 d1784      26.493  20.949  33.082  0.00  0.00     0.094 C 
ATOM     30  NBN L42 d1784      24.591  22.289  33.467  0.00  0.00    -0.349 N 
ATOM     31  H   L42 d1784      23.668  21.097  28.983  0.00  0.00     0.093 H 
ATOM     32  H   L42 d1784      22.924  24.509  31.679  0.00  0.00     0.040 H 
ATOM     33  H   L42 d1784      22.225  23.362  32.797  0.00  0.00     0.040 H 
ATOM     34  H   L42 d1784      23.024  22.796  31.350  0.00  0.00     0.040 H 
ATOM     35  H   L42 d1784      25.259  21.726  37.329  0.00  0.00     0.212 HD
ATOM     36  H   L42 d1784      26.892  19.138  35.012  0.00  0.00     0.090 H 
ATOM     37  H   L42 d1784      26.687  21.394  29.102  0.00  0.00     0.095 H 
ATOM     38  H   L42 d1784      30.263  19.152  36.435  0.00  0.00     0.209 HD
ATOM     39  H   L42 d1784      24.302  18.691  28.095  0.00  0.00     0.085 H 
ATOM     40  H   L42 d1784      24.793  20.709  31.327  0.00  0.00     0.134 H 
ATOM     41  H   L42 d1784      25.147  20.496  35.424  0.00  0.00     0.132 H 
ATOM     42  H   L42 d1784      24.539  22.946  30.063  0.00  0.00     0.210 HD
ATOM     43  H   L42 d1784      28.298  19.927  32.770  0.00  0.00     0.093 H 
ATOM     44  H   L42 d1784      29.729  19.261  34.233  0.00  0.00     0.078 H 
ATOM     45  H   L42 d1784      28.965  17.974  34.968  0.00  0.00     0.078 H 
ATOM     46  H   L42 d1784      26.416  22.888  34.246  0.00  0.00     0.084 H 
ATOM     47  H   L42 d1784      25.839  20.960  27.120  0.00  0.00     0.210 HD
ATOM     48  H   L42 d1784      25.741  20.187  33.103  0.00  0.00     0.091 H 
ATOM     49  H   L42 d1784      23.876  21.612  33.486  0.00  0.00     0.163 HD
ENDROOT
TORSDOF 12
ENDMDL
MODEL 52
REMARK VINA RESULT:      -7.4      3.456      6.694
REMARK  0 active torsions:
REMARK  status: ('A' for Active; 'I' for Inactive)
REMARK       I    between atoms: CCA_2  and  OCB_28 
REMARK       I    between atoms: CBL_3  and  CBK_24 
REMARK       I    between atoms: OBM_4  and  CBE_20 
REMARK       I    between atoms: CBI_5  and  CBJ_25 
REMARK       I    between atoms: CBY_7  and  OBZ_22 
REMARK       I    between atoms: SBW_8  and  OBP_27 
REMARK       I    between atoms: OBR_9  and  CBJ_25 
REMARK       I    between atoms: CCD_10  and  CCE_18 
REMARK       I    between atoms: OBO_12  and  CBG_29 
REMARK       I    between atoms: OBO_12  and  CBX_17 
REMARK       I    between atoms: CBH_23  and  OBP_27 
REMARK       I    between atoms: CBK_24  and  NBN_30 
REMARK       I    between atoms: CBF_26  and  NBN_30 
ROOT
ATOM      1  OBS L42 d1784      28.903  19.148  32.552  0.00  0.00    -0.274 OA
ATOM      2  CCA L42 d1784      25.312  23.169  34.150  0.00  0.00     0.084 C 
ATOM      3  CBL L42 d1784      27.952  19.357  34.747  0.00  0.00    -0.003 C 
ATOM      4  OBM L42 d1784      26.567  15.856  31.338  0.00  0.00    -0.369 OA
ATOM      5  CBI L42 d1784      24.303  18.116  29.464  0.00  0.00     0.090 C 
ATOM      6  OBU L42 d1784      25.872  22.076  28.611  0.00  0.00    -0.572 OA
ATOM      7  CBY L42 d1784      25.961  22.635  32.896  0.00  0.00     0.111 C 
ATOM      8  SBW L42 d1784      26.107  20.774  27.845  0.00  0.00     0.252 S 
ATOM      9  OBR L42 d1784      24.003  17.384  27.423  0.00  0.00    -0.398 OA
ATOM     10  CCD L42 d1784      23.182  22.442  32.912  0.00  0.00     0.147 C 
ATOM     11  OCG L42 d1784      21.296  21.824  31.657  0.00  0.00    -0.642 OA
ATOM     12  OBO L42 d1784      25.808  20.793  31.327  0.00  0.00    -0.348 OA
ATOM     13  OCH L42 d1784      23.905  21.770  31.982  0.00  0.00    -0.311 OA
ATOM     14  CCC L42 d1784      23.780  23.150  33.967  0.00  0.00    -0.034 C 
ATOM     15  OBQ L42 d1784      25.220  16.988  29.663  0.00  0.00    -0.349 OA
ATOM     16  OBV L42 d1784      27.366  20.738  27.155  0.00  0.00    -0.572 OA
ATOM     17  CBX L42 d1784      25.194  21.363  32.438  0.00  0.00     0.165 C 
ATOM     18  CCE L42 d1784      21.671  22.367  32.733  0.00  0.00     0.233 C 
ATOM     19  OCF L42 d1784      20.922  22.907  33.586  0.00  0.00    -0.642 OA
ATOM     20  CBE L42 d1784      25.735  16.971  31.085  0.00  0.00     0.151 C 
ATOM     21  OBT L42 d1784      25.040  20.669  26.823  0.00  0.00    -0.572 OA
ATOM     22  OBZ L42 d1784      27.328  22.404  33.160  0.00  0.00    -0.388 OA
ATOM     23  CBH L42 d1784      25.023  19.457  29.680  0.00  0.00     0.114 C 
ATOM     24  CBK L42 d1784      27.895  19.015  33.263  0.00  0.00     0.214 C 
ATOM     25  CBJ L42 d1784      23.510  18.389  28.109  0.00  0.00     0.043 C 
ATOM     26  CBF L42 d1784      26.411  18.321  31.445  0.00  0.00     0.087 C 
ATOM     27  OBP L42 d1784      26.147  19.570  28.740  0.00  0.00    -0.246 OA
ATOM     28  OCB L42 d1784      25.744  24.509  34.266  0.00  0.00    -0.389 OA
ATOM     29  CBG L42 d1784      25.404  19.477  31.126  0.00  0.00     0.094 C 
ATOM     30  NBN L42 d1784      26.707  18.537  32.853  0.00  0.00    -0.349 N 
ATOM     31  H   L42 d1784      25.567  22.589  35.012  0.00  0.00     0.093 H 
ATOM     32  H   L42 d1784      28.925  19.729  34.989  0.00  0.00     0.040 H 
ATOM     33  H   L42 d1784      27.751  18.479  35.324  0.00  0.00     0.040 H 
ATOM     34  H   L42 d1784      27.220  20.105  34.969  0.00  0.00     0.040 H 
ATOM     35  H   L42 d1784      26.098  15.041  31.097  0.00  0.00     0.212 HD
ATOM     36  H   L42 d1784      23.572  17.778  30.169  0.00  0.00     0.090 H 
ATOM     37  H   L42 d1784      25.912  23.337  32.090  0.00  0.00     0.095 H 
ATOM     38  H   L42 d1784      23.621  17.383  26.532  0.00  0.00     0.209 HD
ATOM     39  H   L42 d1784      23.185  23.667  34.633  0.00  0.00     0.085 H 
ATOM     40  H   L42 d1784      25.163  20.675  33.257  0.00  0.00     0.134 H 
ATOM     41  H   L42 d1784      24.895  16.857  31.737  0.00  0.00     0.132 H 
ATOM     42  H   L42 d1784      27.414  21.770  33.889  0.00  0.00     0.210 HD
ATOM     43  H   L42 d1784      24.417  20.314  29.476  0.00  0.00     0.093 H 
ATOM     44  H   L42 d1784      23.754  19.336  27.677  0.00  0.00     0.078 H 
ATOM     45  H   L42 d1784      22.443  18.438  28.183  0.00  0.00     0.078 H 
ATOM     46  H   L42 d1784      27.325  18.304  30.888  0.00  0.00     0.084 H 
ATOM     47  H   L42 d1784      25.494  24.999  33.467  0.00  0.00     0.210 HD
ATOM     48  H   L42 d1784      24.631  19.256  31.832  0.00  0.00     0.091 H 
ATOM     49  H   L42 d1784      26.019  18.327  33.524  0.00  0.00     0.163 HD
ENDROOT
TORSDOF 12
ENDMDL
MODEL 53
REMARK VINA RESULT:      -7.4      3.075      5.474
REMARK  0 active torsions:
REMARK  status: ('A' for Active; 'I' for Inactive)
REMARK       I    between atoms: CCA_2  and  OCB_28 
REMARK       I    between atoms: CBL_3  and  CBK_24 
REMARK       I    between atoms: OBM_4  and  CBE_20 
REMARK       I    between atoms: CBI_5  and  CBJ_25 
REMARK       I    between atoms: CBY_7  and  OBZ_22 
REMARK       I    between atoms: SBW_8  and  OBP_27 
REMARK       I    between atoms: OBR_9  and  CBJ_25 
REMARK       I    between atoms: CCD_10  and  CCE_18 
REMARK       I    between atoms: OBO_12  and  CBG_29 
REMARK       I    between atoms: OBO_12  and  CBX_17 
REMARK       I    between atoms: CBH_23  and  OBP_27 
REMARK       I    between atoms: CBK_24  and  NBN_30 
REMARK       I    between atoms: CBF_26  and  NBN_30 
ROOT
ATOM      1  OBS L42 d1784      24.989  23.850  30.216  0.00  0.00    -0.274 OA
ATOM      2  CCA L42 d1784      24.069  19.137  27.291  0.00  0.00     0.084 C 
ATOM      3  CBL L42 d1784      22.825  22.979  29.645  0.00  0.00    -0.003 C 
ATOM      4  OBM L42 d1784      24.864  22.784  34.292  0.00  0.00    -0.369 OA
ATOM      5  CBI L42 d1784      26.939  19.790  33.602  0.00  0.00     0.090 C 
ATOM      6  OBU L42 d1784      29.095  19.816  29.832  0.00  0.00    -0.572 OA
ATOM      7  CBY L42 d1784      25.204  19.880  27.952  0.00  0.00     0.111 C 
ATOM      8  SBW L42 d1784      29.490  20.465  31.159  0.00  0.00     0.252 S 
ATOM      9  OBR L42 d1784      28.623  19.683  34.997  0.00  0.00    -0.398 OA
ATOM     10  CCD L42 d1784      24.720  17.353  29.020  0.00  0.00     0.147 C 
ATOM     11  OCG L42 d1784      25.454  15.758  30.579  0.00  0.00    -0.642 OA
ATOM     12  OBO L42 d1784      26.151  20.325  30.139  0.00  0.00    -0.348 OA
ATOM     13  OCH L42 d1784      25.521  18.228  29.679  0.00  0.00    -0.311 OA
ATOM     14  CCC L42 d1784      24.008  17.705  27.862  0.00  0.00    -0.034 C 
ATOM     15  OBQ L42 d1784      26.570  21.055  34.248  0.00  0.00    -0.349 OA
ATOM     16  OBV L42 d1784      30.323  21.625  31.000  0.00  0.00    -0.572 OA
ATOM     17  CBX L42 d1784      25.166  19.595  29.479  0.00  0.00     0.165 C 
ATOM     18  CCE L42 d1784      24.643  15.961  29.633  0.00  0.00     0.233 C 
ATOM     19  OCF L42 d1784      23.875  15.106  29.125  0.00  0.00    -0.642 OA
ATOM     20  CBE L42 d1784      25.294  21.602  33.647  0.00  0.00     0.151 C 
ATOM     21  OBT L42 d1784      30.271  19.463  31.921  0.00  0.00    -0.572 OA
ATOM     22  OBZ L42 d1784      25.093  21.250  27.631  0.00  0.00    -0.388 OA
ATOM     23  CBH L42 d1784      27.219  19.996  32.105  0.00  0.00     0.114 C 
ATOM     24  CBK L42 d1784      24.126  22.986  30.437  0.00  0.00     0.214 C 
ATOM     25  CBJ L42 d1784      28.182  18.896  34.044  0.00  0.00     0.043 C 
ATOM     26  CBF L42 d1784      25.434  21.769  32.111  0.00  0.00     0.087 C 
ATOM     27  OBP L42 d1784      28.309  20.967  31.936  0.00  0.00    -0.246 OA
ATOM     28  OCB L42 d1784      24.401  19.070  25.919  0.00  0.00    -0.389 OA
ATOM     29  CBG L42 d1784      25.911  20.405  31.507  0.00  0.00     0.094 C 
ATOM     30  NBN L42 d1784      24.203  22.028  31.377  0.00  0.00    -0.349 N 
ATOM     31  H   L42 d1784      23.127  19.617  27.453  0.00  0.00     0.093 H 
ATOM     32  H   L42 d1784      22.845  23.767  28.921  0.00  0.00     0.040 H 
ATOM     33  H   L42 d1784      22.001  23.127  30.311  0.00  0.00     0.040 H 
ATOM     34  H   L42 d1784      22.716  22.039  29.145  0.00  0.00     0.040 H 
ATOM     35  H   L42 d1784      24.794  22.625  35.247  0.00  0.00     0.212 HD
ATOM     36  H   L42 d1784      26.067  19.256  33.918  0.00  0.00     0.090 H 
ATOM     37  H   L42 d1784      26.159  19.552  27.596  0.00  0.00     0.095 H 
ATOM     38  H   L42 d1784      29.410  19.290  35.403  0.00  0.00     0.209 HD
ATOM     39  H   L42 d1784      23.434  16.994  27.384  0.00  0.00     0.085 H 
ATOM     40  H   L42 d1784      24.192  19.845  29.845  0.00  0.00     0.134 H 
ATOM     41  H   L42 d1784      24.518  20.884  33.816  0.00  0.00     0.132 H 
ATOM     42  H   L42 d1784      24.237  21.586  27.939  0.00  0.00     0.210 HD
ATOM     43  H   L42 d1784      27.563  19.118  31.601  0.00  0.00     0.093 H 
ATOM     44  H   L42 d1784      28.894  18.769  33.257  0.00  0.00     0.078 H 
ATOM     45  H   L42 d1784      27.967  17.885  34.323  0.00  0.00     0.078 H 
ATOM     46  H   L42 d1784      26.093  22.606  32.006  0.00  0.00     0.084 H 
ATOM     47  H   L42 d1784      25.259  18.629  25.815  0.00  0.00     0.210 HD
ATOM     48  H   L42 d1784      25.064  19.791  31.732  0.00  0.00     0.091 H 
ATOM     49  H   L42 d1784      23.405  21.487  31.576  0.00  0.00     0.163 HD
ENDROOT
TORSDOF 12
ENDMDL
MODEL 54
REMARK VINA RESULT:      -7.4      3.194      6.596
REMARK  0 active torsions:
REMARK  status: ('A' for Active; 'I' for Inactive)
REMARK       I    between atoms: CCA_2  and  OCB_28 
REMARK       I    between atoms: CBL_3  and  CBK_24 
REMARK       I    between atoms: OBM_4  and  CBE_20 
REMARK       I    between atoms: CBI_5  and  CBJ_25 
REMARK       I    between atoms: CBY_7  and  OBZ_22 
REMARK       I    between atoms: SBW_8  and  OBP_27 
REMARK       I    between atoms: OBR_9  and  CBJ_25 
REMARK       I    between atoms: CCD_10  and  CCE_18 
REMARK       I    between atoms: OBO_12  and  CBG_29 
REMARK       I    between atoms: OBO_12  and  CBX_17 
REMARK       I    between atoms: CBH_23  and  OBP_27 
REMARK       I    between atoms: CBK_24  and  NBN_30 
REMARK       I    between atoms: CBF_26  and  NBN_30 
ROOT
ATOM      1  OBS L42 d1784      27.266  17.655  33.518  0.00  0.00    -0.274 OA
ATOM      2  CCA L42 d1784      29.959  19.506  28.941  0.00  0.00     0.084 C 
ATOM      3  CBL L42 d1784      28.750  19.543  33.457  0.00  0.00    -0.003 C 
ATOM      4  OBM L42 d1784      23.692  19.874  33.795  0.00  0.00    -0.369 OA
ATOM      5  CBI L42 d1784      23.103  19.433  30.161  0.00  0.00     0.090 C 
ATOM      6  OBU L42 d1784      25.364  16.251  28.255  0.00  0.00    -0.572 OA
ATOM      7  CBY L42 d1784      28.884  18.520  29.326  0.00  0.00     0.111 C 
ATOM      8  SBW L42 d1784      24.056  16.151  29.041  0.00  0.00     0.252 S 
ATOM      9  OBR L42 d1784      21.067  18.719  29.794  0.00  0.00    -0.398 OA
ATOM     10  CCD L42 d1784      28.018  20.543  27.617  0.00  0.00     0.147 C 
ATOM     11  OCG L42 d1784      26.198  21.356  26.377  0.00  0.00    -0.642 OA
ATOM     12  OBO L42 d1784      26.545  18.426  29.958  0.00  0.00    -0.348 OA
ATOM     13  OCH L42 d1784      27.113  19.753  28.248  0.00  0.00    -0.311 OA
ATOM     14  CCC L42 d1784      29.396  20.472  27.879  0.00  0.00    -0.034 C 
ATOM     15  OBQ L42 d1784      22.798  19.363  31.595  0.00  0.00    -0.349 OA
ATOM     16  OBV L42 d1784      23.870  14.876  29.676  0.00  0.00    -0.572 OA
ATOM     17  CBX L42 d1784      27.548  19.289  29.526  0.00  0.00     0.165 C 
ATOM     18  CCE L42 d1784      27.428  21.519  26.607  0.00  0.00     0.233 C 
ATOM     19  OCF L42 d1784      28.186  22.334  26.023  0.00  0.00    -0.642 OA
ATOM     20  CBE L42 d1784      23.973  19.858  32.409  0.00  0.00     0.151 C 
ATOM     21  OBT L42 d1784      22.949  16.327  28.072  0.00  0.00    -0.572 OA
ATOM     22  OBZ L42 d1784      29.306  17.817  30.474  0.00  0.00    -0.388 OA
ATOM     23  CBH L42 d1784      24.291  18.525  29.805  0.00  0.00     0.114 C 
ATOM     24  CBK L42 d1784      27.432  18.836  33.169  0.00  0.00     0.214 C 
ATOM     25  CBJ L42 d1784      22.060  19.070  29.012  0.00  0.00     0.043 C 
ATOM     26  CBF L42 d1784      25.260  19.063  32.063  0.00  0.00     0.087 C 
ATOM     27  OBP L42 d1784      23.977  17.136  30.169  0.00  0.00    -0.246 OA
ATOM     28  OCB L42 d1784      30.995  18.739  28.361  0.00  0.00    -0.389 OA
ATOM     29  CBG L42 d1784      25.470  19.113  30.512  0.00  0.00     0.094 C 
ATOM     30  NBN L42 d1784      26.510  19.609  32.571  0.00  0.00    -0.349 N 
ATOM     31  H   L42 d1784      30.302  20.074  29.781  0.00  0.00     0.093 H 
ATOM     32  H   L42 d1784      29.424  18.861  33.931  0.00  0.00     0.040 H 
ATOM     33  H   L42 d1784      28.573  20.378  34.103  0.00  0.00     0.040 H 
ATOM     34  H   L42 d1784      29.178  19.887  32.539  0.00  0.00     0.040 H 
ATOM     35  H   L42 d1784      22.882  20.382  33.955  0.00  0.00     0.212 HD
ATOM     36  H   L42 d1784      23.212  20.497  30.133  0.00  0.00     0.090 H 
ATOM     37  H   L42 d1784      28.714  17.793  28.558  0.00  0.00     0.095 H 
ATOM     38  H   L42 d1784      20.307  18.454  29.252  0.00  0.00     0.209 HD
ATOM     39  H   L42 d1784      30.043  21.077  27.351  0.00  0.00     0.085 H 
ATOM     40  H   L42 d1784      27.713  20.073  30.235  0.00  0.00     0.134 H 
ATOM     41  H   L42 d1784      24.152  20.878  32.140  0.00  0.00     0.132 H 
ATOM     42  H   L42 d1784      29.471  18.444  31.195  0.00  0.00     0.210 HD
ATOM     43  H   L42 d1784      24.508  18.483  28.758  0.00  0.00     0.093 H 
ATOM     44  H   L42 d1784      22.398  18.264  28.395  0.00  0.00     0.078 H 
ATOM     45  H   L42 d1784      21.854  19.837  28.295  0.00  0.00     0.078 H 
ATOM     46  H   L42 d1784      25.089  18.101  32.501  0.00  0.00     0.084 H 
ATOM     47  H   L42 d1784      30.644  18.242  27.606  0.00  0.00     0.210 HD
ATOM     48  H   L42 d1784      25.640  20.161  30.377  0.00  0.00     0.091 H 
ATOM     49  H   L42 d1784      26.685  20.573  32.473  0.00  0.00     0.163 HD
ENDROOT
TORSDOF 12
ENDMDL
MODEL 55
REMARK VINA RESULT:      -7.3      3.241      7.191
REMARK  0 active torsions:
REMARK  status: ('A' for Active; 'I' for Inactive)
REMARK       I    between atoms: CCA_2  and  OCB_28 
REMARK       I    between atoms: CBL_3  and  CBK_24 
REMARK       I    between atoms: OBM_4  and  CBE_20 
REMARK       I    between atoms: CBI_5  and  CBJ_25 
REMARK       I    between atoms: CBY_7  and  OBZ_22 
REMARK       I    between atoms: SBW_8  and  OBP_27 
REMARK       I    between atoms: OBR_9  and  CBJ_25 
REMARK       I    between atoms: CCD_10  and  CCE_18 
REMARK       I    between atoms: OBO_12  and  CBG_29 
REMARK       I    between atoms: OBO_12  and  CBX_17 
REMARK       I    between atoms: CBH_23  and  OBP_27 
REMARK       I    between atoms: CBK_24  and  NBN_30 
REMARK       I    between atoms: CBF_26  and  NBN_30 
ROOT
ATOM      1  OBS L42 d1784      24.913  15.870  30.180  0.00  0.00    -0.274 OA
ATOM      2  CCA L42 d1784      28.734  19.479  32.178  0.00  0.00     0.084 C 
ATOM      3  CBL L42 d1784      25.736  15.901  32.436  0.00  0.00    -0.003 C 
ATOM      4  OBM L42 d1784      21.130  17.521  31.038  0.00  0.00    -0.369 OA
ATOM      5  CBI L42 d1784      22.296  20.854  29.907  0.00  0.00     0.090 C 
ATOM      6  OBU L42 d1784      25.891  20.869  27.470  0.00  0.00    -0.572 OA
ATOM      7  CBY L42 d1784      27.892  19.257  30.946  0.00  0.00     0.111 C 
ATOM      8  SBW L42 d1784      24.448  20.614  27.035  0.00  0.00     0.252 S 
ATOM      9  OBR L42 d1784      20.876  21.724  28.487  0.00  0.00    -0.398 OA
ATOM     10  CCD L42 d1784      27.357  21.645  32.278  0.00  0.00     0.147 C 
ATOM     11  OCG L42 d1784      26.106  23.631  32.225  0.00  0.00    -0.642 OA
ATOM     12  OBO L42 d1784      25.620  19.515  30.138  0.00  0.00    -0.348 OA
ATOM     13  OCH L42 d1784      26.506  21.194  31.322  0.00  0.00    -0.311 OA
ATOM     14  CCC L42 d1784      28.455  20.893  32.727  0.00  0.00    -0.034 C 
ATOM     15  OBQ L42 d1784      21.434  19.667  29.941  0.00  0.00    -0.349 OA
ATOM     16  OBV L42 d1784      24.341  19.768  25.879  0.00  0.00    -0.572 OA
ATOM     17  CBX L42 d1784      26.452  19.771  31.224  0.00  0.00     0.165 C 
ATOM     18  CCE L42 d1784      27.029  23.024  32.835  0.00  0.00     0.233 C 
ATOM     19  OCF L42 d1784      27.727  23.492  33.770  0.00  0.00    -0.642 OA
ATOM     20  CBE L42 d1784      21.972  18.650  30.923  0.00  0.00     0.151 C 
ATOM     21  OBT L42 d1784      23.861  21.926  26.677  0.00  0.00    -0.572 OA
ATOM     22  OBZ L42 d1784      27.945  17.889  30.604  0.00  0.00    -0.388 OA
ATOM     23  CBH L42 d1784      23.710  20.494  29.427  0.00  0.00     0.114 C 
ATOM     24  CBK L42 d1784      24.902  16.442  31.282  0.00  0.00     0.214 C 
ATOM     25  CBJ L42 d1784      21.981  22.157  29.046  0.00  0.00     0.043 C 
ATOM     26  CBF L42 d1784      23.439  18.276  30.583  0.00  0.00     0.087 C 
ATOM     27  OBP L42 d1784      23.640  19.905  28.082  0.00  0.00    -0.246 OA
ATOM     28  OCB L42 d1784      30.077  19.412  31.744  0.00  0.00    -0.389 OA
ATOM     29  CBG L42 d1784      24.275  19.597  30.481  0.00  0.00     0.094 C 
ATOM     30  NBN L42 d1784      24.162  17.520  31.595  0.00  0.00    -0.349 N 
ATOM     31  H   L42 d1784      28.524  18.760  32.943  0.00  0.00     0.093 H 
ATOM     32  H   L42 d1784      26.292  15.049  32.105  0.00  0.00     0.040 H 
ATOM     33  H   L42 d1784      25.091  15.616  33.241  0.00  0.00     0.040 H 
ATOM     34  H   L42 d1784      26.413  16.658  32.773  0.00  0.00     0.040 H 
ATOM     35  H   L42 d1784      20.229  17.810  31.251  0.00  0.00     0.212 HD
ATOM     36  H   L42 d1784      22.128  21.130  30.928  0.00  0.00     0.090 H 
ATOM     37  H   L42 d1784      28.262  19.805  30.104  0.00  0.00     0.095 H 
ATOM     38  H   L42 d1784      20.520  22.410  27.901  0.00  0.00     0.209 HD
ATOM     39  H   L42 d1784      29.087  21.294  33.438  0.00  0.00     0.085 H 
ATOM     40  H   L42 d1784      26.088  19.293  32.109  0.00  0.00     0.134 H 
ATOM     41  H   L42 d1784      21.981  19.103  31.892  0.00  0.00     0.132 H 
ATOM     42  H   L42 d1784      27.617  17.357  31.345  0.00  0.00     0.210 HD
ATOM     43  H   L42 d1784      24.360  21.337  29.314  0.00  0.00     0.093 H 
ATOM     44  H   L42 d1784      22.746  22.366  28.328  0.00  0.00     0.078 H 
ATOM     45  H   L42 d1784      21.914  23.080  29.584  0.00  0.00     0.078 H 
ATOM     46  H   L42 d1784      23.351  17.686  29.694  0.00  0.00     0.084 H 
ATOM     47  H   L42 d1784      30.227  20.077  31.053  0.00  0.00     0.210 HD
ATOM     48  H   L42 d1784      24.211  19.941  31.492  0.00  0.00     0.091 H 
ATOM     49  H   L42 d1784      24.108  17.806  32.535  0.00  0.00     0.163 HD
ENDROOT
TORSDOF 12
ENDMDL
MODEL 56
REMARK VINA RESULT:      -7.3      2.920      5.211
REMARK  0 active torsions:
REMARK  status: ('A' for Active; 'I' for Inactive)
REMARK       I    between atoms: CCA_2  and  OCB_28 
REMARK       I    between atoms: CBL_3  and  CBK_24 
REMARK       I    between atoms: OBM_4  and  CBE_20 
REMARK       I    between atoms: CBI_5  and  CBJ_25 
REMARK       I    between atoms: CBY_7  and  OBZ_22 
REMARK       I    between atoms: SBW_8  and  OBP_27 
REMARK       I    between atoms: OBR_9  and  CBJ_25 
REMARK       I    between atoms: CCD_10  and  CCE_18 
REMARK       I    between atoms: OBO_12  and  CBG_29 
REMARK       I    between atoms: OBO_12  and  CBX_17 
REMARK       I    between atoms: CBH_23  and  OBP_27 
REMARK       I    between atoms: CBK_24  and  NBN_30 
REMARK       I    between atoms: CBF_26  and  NBN_30 
ROOT
ATOM      1  OBS L42 d1784      24.691  18.451  26.862  0.00  0.00    -0.274 OA
ATOM      2  CCA L42 d1784      24.732  17.744  32.441  0.00  0.00     0.084 C 
ATOM      3  CBL L42 d1784      23.207  19.542  28.404  0.00  0.00    -0.003 C 
ATOM      4  OBM L42 d1784      27.092  21.820  26.055  0.00  0.00    -0.369 OA
ATOM      5  CBI L42 d1784      29.661  20.595  28.430  0.00  0.00     0.090 C 
ATOM      6  OBU L42 d1784      29.391  16.393  29.500  0.00  0.00    -0.572 OA
ATOM      7  CBY L42 d1784      25.556  17.389  31.228  0.00  0.00     0.111 C 
ATOM      8  SBW L42 d1784      30.038  17.021  28.266  0.00  0.00     0.252 S 
ATOM      9  OBR L42 d1784      31.642  20.619  27.500  0.00  0.00    -0.398 OA
ATOM     10  CCD L42 d1784      26.882  18.997  33.077  0.00  0.00     0.147 C 
ATOM     11  OCG L42 d1784      28.923  20.032  33.602  0.00  0.00    -0.642 OA
ATOM     12  OBO L42 d1784      27.129  18.364  29.661  0.00  0.00    -0.348 OA
ATOM     13  OCH L42 d1784      27.398  18.823  31.834  0.00  0.00    -0.311 OA
ATOM     14  CCC L42 d1784      25.624  18.497  33.449  0.00  0.00    -0.034 C 
ATOM     15  OBQ L42 d1784      29.125  21.064  27.147  0.00  0.00    -0.349 OA
ATOM     16  OBV L42 d1784      30.045  16.153  27.121  0.00  0.00    -0.572 OA
ATOM     17  CBX L42 d1784      26.410  18.623  30.824  0.00  0.00     0.165 C 
ATOM     18  CCE L42 d1784      27.765  19.784  34.037  0.00  0.00     0.233 C 
ATOM     19  OCF L42 d1784      27.338  20.048  35.190  0.00  0.00    -0.642 OA
ATOM     20  CBE L42 d1784      27.634  21.298  27.251  0.00  0.00     0.151 C 
ATOM     21  OBT L42 d1784      31.451  17.308  28.610  0.00  0.00    -0.572 OA
ATOM     22  OBZ L42 d1784      24.689  16.945  30.207  0.00  0.00    -0.388 OA
ATOM     23  CBH L42 d1784      29.037  19.248  28.829  0.00  0.00     0.114 C 
ATOM     24  CBK L42 d1784      24.557  19.327  27.731  0.00  0.00     0.214 C 
ATOM     25  CBJ L42 d1784      31.208  20.329  28.704  0.00  0.00     0.043 C 
ATOM     26  CBF L42 d1784      26.906  20.017  27.736  0.00  0.00     0.087 C 
ATOM     27  OBP L42 d1784      29.317  18.247  27.789  0.00  0.00    -0.246 OA
ATOM     28  OCB L42 d1784      24.333  16.513  33.009  0.00  0.00    -0.389 OA
ATOM     29  CBG L42 d1784      27.587  19.531  29.060  0.00  0.00     0.094 C 
ATOM     30  NBN L42 d1784      25.516  20.179  28.135  0.00  0.00    -0.349 N 
ATOM     31  H   L42 d1784      23.894  18.360  32.190  0.00  0.00     0.093 H 
ATOM     32  H   L42 d1784      22.505  18.827  28.029  0.00  0.00     0.040 H 
ATOM     33  H   L42 d1784      22.857  20.531  28.194  0.00  0.00     0.040 H 
ATOM     34  H   L42 d1784      23.311  19.418  29.462  0.00  0.00     0.040 H 
ATOM     35  H   L42 d1784      27.582  22.617  25.798  0.00  0.00     0.212 HD
ATOM     36  H   L42 d1784      29.415  21.483  28.974  0.00  0.00     0.090 H 
ATOM     37  H   L42 d1784      26.239  16.589  31.428  0.00  0.00     0.095 H 
ATOM     38  H   L42 d1784      32.605  20.511  27.469  0.00  0.00     0.209 HD
ATOM     39  H   L42 d1784      25.290  18.634  34.416  0.00  0.00     0.085 H 
ATOM     40  H   L42 d1784      25.755  19.459  30.693  0.00  0.00     0.134 H 
ATOM     41  H   L42 d1784      27.472  22.051  27.994  0.00  0.00     0.132 H 
ATOM     42  H   L42 d1784      24.052  17.646  29.997  0.00  0.00     0.210 HD
ATOM     43  H   L42 d1784      29.447  18.825  29.722  0.00  0.00     0.093 H 
ATOM     44  H   L42 d1784      31.406  19.314  28.977  0.00  0.00     0.078 H 
ATOM     45  H   L42 d1784      31.649  20.874  29.513  0.00  0.00     0.078 H 
ATOM     46  H   L42 d1784      26.959  19.360  26.892  0.00  0.00     0.084 H 
ATOM     47  H   L42 d1784      25.119  15.986  33.222  0.00  0.00     0.210 HD
ATOM     48  H   L42 d1784      27.353  20.351  29.706  0.00  0.00     0.091 H 
ATOM     49  H   L42 d1784      25.270  20.934  28.717  0.00  0.00     0.163 HD
ENDROOT
TORSDOF 12
ENDMDL
MODEL 57
REMARK VINA RESULT:      -7.2      3.991      6.691
REMARK  0 active torsions:
REMARK  status: ('A' for Active; 'I' for Inactive)
REMARK       I    between atoms: CCA_2  and  OCB_28 
REMARK       I    between atoms: CBL_3  and  CBK_24 
REMARK       I    between atoms: OBM_4  and  CBE_20 
REMARK       I    between atoms: CBI_5  and  CBJ_25 
REMARK       I    between atoms: CBY_7  and  OBZ_22 
REMARK       I    between atoms: SBW_8  and  OBP_27 
REMARK       I    between atoms: OBR_9  and  CBJ_25 
REMARK       I    between atoms: CCD_10  and  CCE_18 
REMARK       I    between atoms: OBO_12  and  CBG_29 
REMARK       I    between atoms: OBO_12  and  CBX_17 
REMARK       I    between atoms: CBH_23  and  OBP_27 
REMARK       I    between atoms: CBK_24  and  NBN_30 
REMARK       I    between atoms: CBF_26  and  NBN_30 
ROOT
ATOM      1  OBS L42 d1784      23.759  24.337  29.817  0.00  0.00    -0.274 OA
ATOM      2  CCA L42 d1784      25.807  19.150  29.093  0.00  0.00     0.084 C 
ATOM      3  CBL L42 d1784      22.671  22.582  28.591  0.00  0.00    -0.003 C 
ATOM      4  OBM L42 d1784      21.243  24.180  33.195  0.00  0.00    -0.369 OA
ATOM      5  CBI L42 d1784      23.774  22.183  35.024  0.00  0.00     0.090 C 
ATOM      6  OBU L42 d1784      27.797  22.278  33.387  0.00  0.00    -0.572 OA
ATOM      7  CBY L42 d1784      26.093  20.402  29.885  0.00  0.00     0.111 C 
ATOM      8  SBW L42 d1784      27.121  23.290  34.312  0.00  0.00     0.252 S 
ATOM      9  OBR L42 d1784      24.152  23.044  37.000  0.00  0.00    -0.398 OA
ATOM     10  CCD L42 d1784      25.505  18.172  31.449  0.00  0.00     0.147 C 
ATOM     11  OCG L42 d1784      25.340  17.361  33.646  0.00  0.00    -0.642 OA
ATOM     12  OBO L42 d1784      25.313  21.629  31.826  0.00  0.00    -0.348 OA
ATOM     13  OCH L42 d1784      25.520  19.408  32.007  0.00  0.00    -0.311 OA
ATOM     14  CCC L42 d1784      25.654  17.965  30.068  0.00  0.00    -0.034 C 
ATOM     15  OBQ L42 d1784      22.855  23.301  34.785  0.00  0.00    -0.349 OA
ATOM     16  OBV L42 d1784      27.633  24.625  34.167  0.00  0.00    -0.572 OA
ATOM     17  CBX L42 d1784      25.136  20.449  31.109  0.00  0.00     0.165 C 
ATOM     18  CCE L42 d1784      25.306  17.024  32.430  0.00  0.00     0.233 C 
ATOM     19  OCF L42 d1784      25.215  15.849  31.992  0.00  0.00    -0.642 OA
ATOM     20  CBE L42 d1784      22.191  23.159  33.433  0.00  0.00     0.151 C 
ATOM     21  OBT L42 d1784      27.395  22.862  35.704  0.00  0.00    -0.572 OA
ATOM     22  OBZ L42 d1784      25.967  21.517  29.029  0.00  0.00    -0.388 OA
ATOM     23  CBH L42 d1784      24.906  22.167  33.984  0.00  0.00     0.114 C 
ATOM     24  CBK L42 d1784      23.131  23.267  29.871  0.00  0.00     0.214 C 
ATOM     25  CBJ L42 d1784      24.578  21.967  36.383  0.00  0.00     0.043 C 
ATOM     26  CBF L42 d1784      23.251  23.045  32.306  0.00  0.00     0.087 C 
ATOM     27  OBP L42 d1784      25.651  23.433  34.048  0.00  0.00    -0.246 OA
ATOM     28  OCB L42 d1784      26.946  18.937  28.285  0.00  0.00    -0.389 OA
ATOM     29  CBG L42 d1784      24.242  21.890  32.674  0.00  0.00     0.094 C 
ATOM     30  NBN L42 d1784      22.758  22.637  30.998  0.00  0.00    -0.349 N 
ATOM     31  H   L42 d1784      24.913  19.239  28.510  0.00  0.00     0.093 H 
ATOM     32  H   L42 d1784      23.008  23.143  27.745  0.00  0.00     0.040 H 
ATOM     33  H   L42 d1784      21.603  22.525  28.580  0.00  0.00     0.040 H 
ATOM     34  H   L42 d1784      23.081  21.594  28.548  0.00  0.00     0.040 H 
ATOM     35  H   L42 d1784      20.606  24.208  33.927  0.00  0.00     0.212 HD
ATOM     36  H   L42 d1784      23.018  21.425  35.007  0.00  0.00     0.090 H 
ATOM     37  H   L42 d1784      27.091  20.413  30.270  0.00  0.00     0.095 H 
ATOM     38  H   L42 d1784      24.550  23.089  37.883  0.00  0.00     0.209 HD
ATOM     39  H   L42 d1784      25.662  17.001  29.698  0.00  0.00     0.085 H 
ATOM     40  H   L42 d1784      24.130  20.362  30.755  0.00  0.00     0.134 H 
ATOM     41  H   L42 d1784      21.635  22.245  33.435  0.00  0.00     0.132 H 
ATOM     42  H   L42 d1784      25.071  21.541  28.659  0.00  0.00     0.210 HD
ATOM     43  H   L42 d1784      25.646  21.413  34.157  0.00  0.00     0.093 H 
ATOM     44  H   L42 d1784      25.638  21.973  36.235  0.00  0.00     0.078 H 
ATOM     45  H   L42 d1784      24.422  21.036  36.887  0.00  0.00     0.078 H 
ATOM     46  H   L42 d1784      23.658  24.033  32.239  0.00  0.00     0.084 H 
ATOM     47  H   L42 d1784      27.732  18.862  28.849  0.00  0.00     0.210 HD
ATOM     48  H   L42 d1784      23.578  21.051  32.637  0.00  0.00     0.091 H 
ATOM     49  H   L42 d1784      22.135  21.878  30.938  0.00  0.00     0.163 HD
ENDROOT
TORSDOF 12
ENDMDL
MODEL 58
REMARK VINA RESULT:      -7.2      4.083      6.847
REMARK  0 active torsions:
REMARK  status: ('A' for Active; 'I' for Inactive)
REMARK       I    between atoms: CCA_2  and  OCB_28 
REMARK       I    between atoms: CBL_3  and  CBK_24 
REMARK       I    between atoms: OBM_4  and  CBE_20 
REMARK       I    between atoms: CBI_5  and  CBJ_25 
REMARK       I    between atoms: CBY_7  and  OBZ_22 
REMARK       I    between atoms: SBW_8  and  OBP_27 
REMARK       I    between atoms: OBR_9  and  CBJ_25 
REMARK       I    between atoms: CCD_10  and  CCE_18 
REMARK       I    between atoms: OBO_12  and  CBG_29 
REMARK       I    between atoms: OBO_12  and  CBX_17 
REMARK       I    between atoms: CBH_23  and  OBP_27 
REMARK       I    between atoms: CBK_24  and  NBN_30 
REMARK       I    between atoms: CBF_26  and  NBN_30 
ROOT
ATOM      1  OBS L42 d1784      23.643  23.782  32.439  0.00  0.00    -0.274 OA
ATOM      2  CCA L42 d1784      22.064  21.863  27.394  0.00  0.00     0.084 C 
ATOM      3  CBL L42 d1784      21.377  23.661  31.654  0.00  0.00    -0.003 C 
ATOM      4  OBM L42 d1784      23.394  20.523  35.101  0.00  0.00    -0.369 OA
ATOM      5  CBI L42 d1784      25.030  18.322  32.606  0.00  0.00     0.090 C 
ATOM      6  OBU L42 d1784      27.149  20.350  29.402  0.00  0.00    -0.572 OA
ATOM      7  CBY L42 d1784      23.294  21.940  28.265  0.00  0.00     0.111 C 
ATOM      8  SBW L42 d1784      27.637  20.036  30.817  0.00  0.00     0.252 S 
ATOM      9  OBR L42 d1784      26.690  17.226  33.519  0.00  0.00    -0.398 OA
ATOM     10  CCD L42 d1784      22.471  19.344  27.680  0.00  0.00     0.147 C 
ATOM     11  OCG L42 d1784      22.985  17.067  27.932  0.00  0.00    -0.642 OA
ATOM     12  OBO L42 d1784      24.305  20.892  30.204  0.00  0.00    -0.348 OA
ATOM     13  OCH L42 d1784      23.388  19.562  28.654  0.00  0.00    -0.311 OA
ATOM     14  CCC L42 d1784      21.808  20.390  27.017  0.00  0.00    -0.034 C 
ATOM     15  OBQ L42 d1784      24.843  18.986  33.901  0.00  0.00    -0.349 OA
ATOM     16  OBV L42 d1784      28.621  20.965  31.299  0.00  0.00    -0.572 OA
ATOM     17  CBX L42 d1784      23.225  20.810  29.329  0.00  0.00     0.165 C 
ATOM     18  CCE L42 d1784      22.205  17.878  27.361  0.00  0.00     0.233 C 
ATOM     19  OCF L42 d1784      21.323  17.582  26.516  0.00  0.00    -0.642 OA
ATOM     20  CBE L42 d1784      23.652  19.917  33.850  0.00  0.00     0.151 C 
ATOM     21  OBT L42 d1784      28.276  18.700  30.772  0.00  0.00    -0.572 OA
ATOM     22  OBZ L42 d1784      23.373  23.234  28.822  0.00  0.00    -0.388 OA
ATOM     23  CBH L42 d1784      25.328  19.346  31.499  0.00  0.00     0.114 C 
ATOM     24  CBK L42 d1784      22.670  23.055  32.183  0.00  0.00     0.214 C 
ATOM     25  CBJ L42 d1784      26.139  17.212  32.328  0.00  0.00     0.043 C 
ATOM     26  CBF L42 d1784      23.805  20.949  32.700  0.00  0.00     0.087 C 
ATOM     27  OBP L42 d1784      26.541  20.102  31.839  0.00  0.00    -0.246 OA
ATOM     28  OCB L42 d1784      22.376  22.590  26.223  0.00  0.00    -0.389 OA
ATOM     29  CBG L42 d1784      24.086  20.169  31.371  0.00  0.00     0.094 C 
ATOM     30  NBN L42 d1784      22.619  21.724  32.369  0.00  0.00    -0.349 N 
ATOM     31  H   L42 d1784      21.198  22.252  27.888  0.00  0.00     0.093 H 
ATOM     32  H   L42 d1784      21.502  24.717  31.534  0.00  0.00     0.040 H 
ATOM     33  H   L42 d1784      20.584  23.472  32.348  0.00  0.00     0.040 H 
ATOM     34  H   L42 d1784      21.136  23.221  30.709  0.00  0.00     0.040 H 
ATOM     35  H   L42 d1784      23.307  19.836  35.781  0.00  0.00     0.212 HD
ATOM     36  H   L42 d1784      24.094  17.804  32.621  0.00  0.00     0.090 H 
ATOM     37  H   L42 d1784      24.192  21.786  27.703  0.00  0.00     0.095 H 
ATOM     38  H   L42 d1784      27.418  16.585  33.546  0.00  0.00     0.209 HD
ATOM     39  H   L42 d1784      21.139  20.169  26.264  0.00  0.00     0.085 H 
ATOM     40  H   L42 d1784      22.297  20.896  29.854  0.00  0.00     0.134 H 
ATOM     41  H   L42 d1784      22.785  19.330  33.630  0.00  0.00     0.132 H 
ATOM     42  H   L42 d1784      22.573  23.412  29.341  0.00  0.00     0.210 HD
ATOM     43  H   L42 d1784      25.545  18.908  30.547  0.00  0.00     0.093 H 
ATOM     44  H   L42 d1784      26.823  17.502  31.559  0.00  0.00     0.078 H 
ATOM     45  H   L42 d1784      25.787  16.264  31.976  0.00  0.00     0.078 H 
ATOM     46  H   L42 d1784      24.574  21.606  33.051  0.00  0.00     0.084 H 
ATOM     47  H   L42 d1784      23.164  22.208  25.806  0.00  0.00     0.210 HD
ATOM     48  H   L42 d1784      23.163  19.637  31.264  0.00  0.00     0.091 H 
ATOM     49  H   L42 d1784      21.755  21.262  32.280  0.00  0.00     0.163 HD
ENDROOT
TORSDOF 12
ENDMDL
MODEL 59
REMARK VINA RESULT:      -7.2      2.563      6.532
REMARK  0 active torsions:
REMARK  status: ('A' for Active; 'I' for Inactive)
REMARK       I    between atoms: CCA_2  and  OCB_28 
REMARK       I    between atoms: CBL_3  and  CBK_24 
REMARK       I    between atoms: OBM_4  and  CBE_20 
REMARK       I    between atoms: CBI_5  and  CBJ_25 
REMARK       I    between atoms: CBY_7  and  OBZ_22 
REMARK       I    between atoms: SBW_8  and  OBP_27 
REMARK       I    between atoms: OBR_9  and  CBJ_25 
REMARK       I    between atoms: CCD_10  and  CCE_18 
REMARK       I    between atoms: OBO_12  and  CBG_29 
REMARK       I    between atoms: OBO_12  and  CBX_17 
REMARK       I    between atoms: CBH_23  and  OBP_27 
REMARK       I    between atoms: CBK_24  and  NBN_30 
REMARK       I    between atoms: CBF_26  and  NBN_30 
ROOT
ATOM      1  OBS L42 d1784      27.954  19.822  33.626  0.00  0.00    -0.274 OA
ATOM      2  CCA L42 d1784      31.903  20.551  29.690  0.00  0.00     0.084 C 
ATOM      3  CBL L42 d1784      29.050  21.902  33.138  0.00  0.00    -0.003 C 
ATOM      4  OBM L42 d1784      24.267  20.801  31.832  0.00  0.00    -0.369 OA
ATOM      5  CBI L42 d1784      25.200  18.883  28.799  0.00  0.00     0.090 C 
ATOM      6  OBU L42 d1784      28.464  16.058  29.283  0.00  0.00    -0.572 OA
ATOM      7  CBY L42 d1784      30.920  19.506  30.157  0.00  0.00     0.111 C 
ATOM      8  SBW L42 d1784      26.985  15.870  29.619  0.00  0.00     0.252 S 
ATOM      9  OBR L42 d1784      23.594  17.508  28.235  0.00  0.00    -0.398 OA
ATOM     10  CCD L42 d1784      30.495  20.386  27.548  0.00  0.00     0.147 C 
ATOM     11  OCG L42 d1784      29.199  20.092  25.613  0.00  0.00    -0.642 OA
ATOM     12  OBO L42 d1784      28.560  18.957  30.067  0.00  0.00    -0.348 OA
ATOM     13  OCH L42 d1784      29.544  19.656  28.182  0.00  0.00    -0.311 OA
ATOM     14  CCC L42 d1784      31.659  20.835  28.194  0.00  0.00    -0.034 C 
ATOM     15  OBQ L42 d1784      24.379  19.264  29.954  0.00  0.00    -0.349 OA
ATOM     16  OBV L42 d1784      26.757  14.931  30.683  0.00  0.00    -0.572 OA
ATOM     17  CBX L42 d1784      29.514  19.854  29.595  0.00  0.00     0.165 C 
ATOM     18  CCE L42 d1784      30.205  20.690  26.084  0.00  0.00     0.233 C 
ATOM     19  OCF L42 d1784      31.002  21.415  25.436  0.00  0.00    -0.642 OA
ATOM     20  CBE L42 d1784      25.060  20.355  30.750  0.00  0.00     0.151 C 
ATOM     21  OBT L42 d1784      26.326  15.331  28.407  0.00  0.00    -0.572 OA
ATOM     22  OBZ L42 d1784      30.964  19.442  31.566  0.00  0.00    -0.388 OA
ATOM     23  CBH L42 d1784      26.553  18.310  29.250  0.00  0.00     0.114 C 
ATOM     24  CBK L42 d1784      28.065  20.778  32.842  0.00  0.00     0.214 C 
ATOM     25  CBJ L42 d1784      24.749  17.823  27.698  0.00  0.00     0.043 C 
ATOM     26  CBF L42 d1784      26.483  19.914  31.187  0.00  0.00     0.087 C 
ATOM     27  OBP L42 d1784      26.331  17.132  30.100  0.00  0.00    -0.246 OA
ATOM     28  OCB L42 d1784      33.183  19.973  29.845  0.00  0.00    -0.389 OA
ATOM     29  CBG L42 d1784      27.266  19.443  29.915  0.00  0.00     0.094 C 
ATOM     30  NBN L42 d1784      27.344  20.958  31.722  0.00  0.00    -0.349 N 
ATOM     31  H   L42 d1784      31.807  21.466  30.238  0.00  0.00     0.093 H 
ATOM     32  H   L42 d1784      29.581  21.682  34.040  0.00  0.00     0.040 H 
ATOM     33  H   L42 d1784      28.517  22.823  33.253  0.00  0.00     0.040 H 
ATOM     34  H   L42 d1784      29.744  21.991  32.329  0.00  0.00     0.040 H 
ATOM     35  H   L42 d1784      23.392  21.063  31.504  0.00  0.00     0.212 HD
ATOM     36  H   L42 d1784      25.154  19.840  28.322  0.00  0.00     0.090 H 
ATOM     37  H   L42 d1784      31.169  18.531  29.792  0.00  0.00     0.095 H 
ATOM     38  H   L42 d1784      23.151  16.845  27.682  0.00  0.00     0.209 HD
ATOM     39  H   L42 d1784      32.364  21.364  27.657  0.00  0.00     0.085 H 
ATOM     40  H   L42 d1784      29.274  20.857  29.883  0.00  0.00     0.134 H 
ATOM     41  H   L42 d1784      25.178  21.204  30.110  0.00  0.00     0.132 H 
ATOM     42  H   L42 d1784      30.744  20.311  31.936  0.00  0.00     0.210 HD
ATOM     43  H   L42 d1784      27.162  17.948  28.448  0.00  0.00     0.093 H 
ATOM     44  H   L42 d1784      25.414  16.987  27.640  0.00  0.00     0.078 H 
ATOM     45  H   L42 d1784      24.726  18.168  26.685  0.00  0.00     0.078 H 
ATOM     46  H   L42 d1784      26.300  19.181  31.945  0.00  0.00     0.084 H 
ATOM     47  H   L42 d1784      33.229  19.150  29.334  0.00  0.00     0.210 HD
ATOM     48  H   L42 d1784      27.320  20.364  29.373  0.00  0.00     0.091 H 
ATOM     49  H   L42 d1784      27.399  21.820  31.251  0.00  0.00     0.163 HD
ENDROOT
TORSDOF 12
ENDMDL
MODEL 60
REMARK VINA RESULT:      -7.2      2.749      5.551
REMARK  0 active torsions:
REMARK  status: ('A' for Active; 'I' for Inactive)
REMARK       I    between atoms: CCA_2  and  OCB_28 
REMARK       I    between atoms: CBL_3  and  CBK_24 
REMARK       I    between atoms: OBM_4  and  CBE_20 
REMARK       I    between atoms: CBI_5  and  CBJ_25 
REMARK       I    between atoms: CBY_7  and  OBZ_22 
REMARK       I    between atoms: SBW_8  and  OBP_27 
REMARK       I    between atoms: OBR_9  and  CBJ_25 
REMARK       I    between atoms: CCD_10  and  CCE_18 
REMARK       I    between atoms: OBO_12  and  CBG_29 
REMARK       I    between atoms: OBO_12  and  CBX_17 
REMARK       I    between atoms: CBH_23  and  OBP_27 
REMARK       I    between atoms: CBK_24  and  NBN_30 
REMARK       I    between atoms: CBF_26  and  NBN_30 
ROOT
ATOM      1  OBS L42 d1784      25.976  22.254  31.716  0.00  0.00    -0.274 OA
ATOM      2  CCA L42 d1784      22.741  18.280  29.401  0.00  0.00     0.084 C 
ATOM      3  CBL L42 d1784      24.339  20.948  32.891  0.00  0.00    -0.003 C 
ATOM      4  OBM L42 d1784      29.360  20.291  33.286  0.00  0.00    -0.369 OA
ATOM      5  CBI L42 d1784      29.660  18.271  30.193  0.00  0.00     0.090 C 
ATOM      6  OBU L42 d1784      27.515  19.786  26.733  0.00  0.00    -0.572 OA
ATOM      7  CBY L42 d1784      23.925  19.148  29.054  0.00  0.00     0.111 C 
ATOM      8  SBW L42 d1784      28.891  20.199  27.256  0.00  0.00     0.252 S 
ATOM      9  OBR L42 d1784      31.708  18.340  29.425  0.00  0.00    -0.398 OA
ATOM     10  CCD L42 d1784      24.462  16.415  29.009  0.00  0.00     0.147 C 
ATOM     11  OCG L42 d1784      26.090  14.788  28.541  0.00  0.00    -0.642 OA
ATOM     12  OBO L42 d1784      26.311  19.334  29.448  0.00  0.00    -0.348 OA
ATOM     13  OCH L42 d1784      25.482  17.308  28.980  0.00  0.00    -0.311 OA
ATOM     14  CCC L42 d1784      23.124  16.801  29.187  0.00  0.00    -0.034 C 
ATOM     15  OBQ L42 d1784      30.095  19.190  31.250  0.00  0.00    -0.349 OA
ATOM     16  OBV L42 d1784      29.240  21.555  26.933  0.00  0.00    -0.572 OA
ATOM     17  CBX L42 d1784      25.204  18.522  29.678  0.00  0.00     0.165 C 
ATOM     18  CCE L42 d1784      24.876  14.958  28.841  0.00  0.00     0.233 C 
ATOM     19  OCF L42 d1784      24.002  14.057  28.919  0.00  0.00    -0.642 OA
ATOM     20  CBE L42 d1784      28.960  19.466  32.211  0.00  0.00     0.151 C 
ATOM     21  OBT L42 d1784      29.889  19.320  26.603  0.00  0.00    -0.572 OA
ATOM     22  OBZ L42 d1784      23.667  20.462  29.500  0.00  0.00    -0.388 OA
ATOM     23  CBH L42 d1784      28.526  18.887  29.358  0.00  0.00     0.114 C 
ATOM     24  CBK L42 d1784      25.681  21.150  32.200  0.00  0.00     0.214 C 
ATOM     25  CBJ L42 d1784      30.623  17.699  29.059  0.00  0.00     0.043 C 
ATOM     26  CBF L42 d1784      27.719  20.015  31.458  0.00  0.00     0.087 C 
ATOM     27  OBP L42 d1784      28.987  20.144  28.752  0.00  0.00    -0.246 OA
ATOM     28  OCB L42 d1784      21.726  18.629  28.481  0.00  0.00    -0.389 OA
ATOM     29  CBG L42 d1784      27.369  19.025  30.296  0.00  0.00     0.094 C 
ATOM     30  NBN L42 d1784      26.478  20.067  32.216  0.00  0.00    -0.349 N 
ATOM     31  H   L42 d1784      22.427  18.415  30.415  0.00  0.00     0.093 H 
ATOM     32  H   L42 d1784      23.769  21.851  32.833  0.00  0.00     0.040 H 
ATOM     33  H   L42 d1784      24.501  20.693  33.918  0.00  0.00     0.040 H 
ATOM     34  H   L42 d1784      23.803  20.158  32.408  0.00  0.00     0.040 H 
ATOM     35  H   L42 d1784      30.136  19.904  33.721  0.00  0.00     0.212 HD
ATOM     36  H   L42 d1784      29.459  17.449  30.849  0.00  0.00     0.090 H 
ATOM     37  H   L42 d1784      24.087  19.202  27.998  0.00  0.00     0.095 H 
ATOM     38  H   L42 d1784      32.436  18.110  28.827  0.00  0.00     0.209 HD
ATOM     39  H   L42 d1784      22.383  16.083  29.173  0.00  0.00     0.085 H 
ATOM     40  H   L42 d1784      25.037  18.387  30.726  0.00  0.00     0.134 H 
ATOM     41  H   L42 d1784      28.672  18.535  32.654  0.00  0.00     0.132 H 
ATOM     42  H   L42 d1784      23.515  20.455  30.457  0.00  0.00     0.210 HD
ATOM     43  H   L42 d1784      28.221  18.287  28.527  0.00  0.00     0.093 H 
ATOM     44  H   L42 d1784      30.301  17.969  28.076  0.00  0.00     0.078 H 
ATOM     45  H   L42 d1784      30.699  16.633  28.991  0.00  0.00     0.078 H 
ATOM     46  H   L42 d1784      28.009  21.007  31.181  0.00  0.00     0.084 H 
ATOM     47  H   L42 d1784      22.049  18.493  27.577  0.00  0.00     0.210 HD
ATOM     48  H   L42 d1784      27.099  18.156  30.860  0.00  0.00     0.091 H 
ATOM     49  H   L42 d1784      26.214  19.287  32.755  0.00  0.00     0.163 HD
ENDROOT
TORSDOF 12
ENDMDL
MODEL 61
REMARK VINA RESULT:      -7.1      3.727      6.524
REMARK  0 active torsions:
REMARK  status: ('A' for Active; 'I' for Inactive)
REMARK       I    between atoms: CCA_2  and  OCB_28 
REMARK       I    between atoms: CBL_3  and  CBK_24 
REMARK       I    between atoms: OBM_4  and  CBE_20 
REMARK       I    between atoms: CBI_5  and  CBJ_25 
REMARK       I    between atoms: CBY_7  and  OBZ_22 
REMARK       I    between atoms: SBW_8  and  OBP_27 
REMARK       I    between atoms: OBR_9  and  CBJ_25 
REMARK       I    between atoms: CCD_10  and  CCE_18 
REMARK       I    between atoms: OBO_12  and  CBG_29 
REMARK       I    between atoms: OBO_12  and  CBX_17 
REMARK       I    between atoms: CBH_23  and  OBP_27 
REMARK       I    between atoms: CBK_24  and  NBN_30 
REMARK       I    between atoms: CBF_26  and  NBN_30 
ROOT
ATOM      1  OBS L42 d1784      26.914  15.807  30.446  0.00  0.00    -0.274 OA
ATOM      2  CCA L42 d1784      26.212  19.909  34.227  0.00  0.00     0.084 C 
ATOM      3  CBL L42 d1784      25.687  15.597  32.499  0.00  0.00    -0.003 C 
ATOM      4  OBM L42 d1784      23.556  15.925  27.900  0.00  0.00    -0.369 OA
ATOM      5  CBI L42 d1784      23.801  19.618  27.700  0.00  0.00     0.090 C 
ATOM      6  OBU L42 d1784      27.607  21.326  28.915  0.00  0.00    -0.572 OA
ATOM      7  CBY L42 d1784      26.741  19.709  32.828  0.00  0.00     0.111 C 
ATOM      8  SBW L42 d1784      27.221  20.726  27.562  0.00  0.00     0.252 S 
ATOM      9  OBR L42 d1784      23.741  20.281  25.615  0.00  0.00    -0.398 OA
ATOM     10  CCD L42 d1784      24.563  21.440  32.988  0.00  0.00     0.147 C 
ATOM     11  OCG L42 d1784      23.166  22.880  31.770  0.00  0.00    -0.642 OA
ATOM     12  OBO L42 d1784      25.980  19.399  30.547  0.00  0.00    -0.348 OA
ATOM     13  OCH L42 d1784      24.968  20.965  31.784  0.00  0.00    -0.311 OA
ATOM     14  CCC L42 d1784      25.121  20.999  34.200  0.00  0.00    -0.034 C 
ATOM     15  OBQ L42 d1784      23.739  18.242  27.196  0.00  0.00    -0.349 OA
ATOM     16  OBV L42 d1784      28.335  20.170  26.847  0.00  0.00    -0.572 OA
ATOM     17  CBX L42 d1784      25.541  19.660  31.842  0.00  0.00     0.165 C 
ATOM     18  CCE L42 d1784      23.453  22.481  32.932  0.00  0.00     0.233 C 
ATOM     19  OCF L42 d1784      22.973  22.928  34.005  0.00  0.00    -0.642 OA
ATOM     20  CBE L42 d1784      23.689  17.260  28.345  0.00  0.00     0.151 C 
ATOM     21  OBT L42 d1784      26.671  21.827  26.736  0.00  0.00    -0.572 OA
ATOM     22  OBZ L42 d1784      27.535  18.542  32.808  0.00  0.00    -0.388 OA
ATOM     23  CBH L42 d1784      25.080  19.848  28.522  0.00  0.00     0.114 C 
ATOM     24  CBK L42 d1784      25.877  16.084  31.069  0.00  0.00     0.214 C 
ATOM     25  CBJ L42 d1784      23.780  20.910  26.767  0.00  0.00     0.043 C 
ATOM     26  CBF L42 d1784      24.898  17.461  29.297  0.00  0.00     0.087 C 
ATOM     27  OBP L42 d1784      26.258  19.581  27.685  0.00  0.00    -0.246 OA
ATOM     28  OCB L42 d1784      27.307  20.374  34.990  0.00  0.00    -0.389 OA
ATOM     29  CBG L42 d1784      24.946  18.967  29.723  0.00  0.00     0.094 C 
ATOM     30  NBN L42 d1784      24.831  16.771  30.577  0.00  0.00    -0.349 N 
ATOM     31  H   L42 d1784      25.795  19.009  34.631  0.00  0.00     0.093 H 
ATOM     32  H   L42 d1784      26.559  15.064  32.813  0.00  0.00     0.040 H 
ATOM     33  H   L42 d1784      24.836  14.949  32.546  0.00  0.00     0.040 H 
ATOM     34  H   L42 d1784      25.531  16.436  33.145  0.00  0.00     0.040 H 
ATOM     35  H   L42 d1784      22.789  15.855  27.311  0.00  0.00     0.212 HD
ATOM     36  H   L42 d1784      22.848  19.592  28.185  0.00  0.00     0.090 H 
ATOM     37  H   L42 d1784      27.367  20.519  32.518  0.00  0.00     0.095 H 
ATOM     38  H   L42 d1784      23.722  20.929  24.894  0.00  0.00     0.209 HD
ATOM     39  H   L42 d1784      24.796  21.412  35.087  0.00  0.00     0.085 H 
ATOM     40  H   L42 d1784      24.860  18.906  32.177  0.00  0.00     0.134 H 
ATOM     41  H   L42 d1784      22.805  17.464  28.913  0.00  0.00     0.132 H 
ATOM     42  H   L42 d1784      27.000  17.783  33.086  0.00  0.00     0.210 HD
ATOM     43  H   L42 d1784      25.210  20.857  28.853  0.00  0.00     0.093 H 
ATOM     44  H   L42 d1784      24.661  21.507  26.875  0.00  0.00     0.078 H 
ATOM     45  H   L42 d1784      22.999  21.618  26.950  0.00  0.00     0.078 H 
ATOM     46  H   L42 d1784      25.729  17.087  28.735  0.00  0.00     0.084 H 
ATOM     47  H   L42 d1784      27.655  21.188  34.593  0.00  0.00     0.210 HD
ATOM     48  H   L42 d1784      24.031  19.039  30.274  0.00  0.00     0.091 H 
ATOM     49  H   L42 d1784      23.996  16.808  31.096  0.00  0.00     0.163 HD
ENDROOT
TORSDOF 12
ENDMDL
MODEL 62
REMARK VINA RESULT:      -7.1      2.902      3.991
REMARK  0 active torsions:
REMARK  status: ('A' for Active; 'I' for Inactive)
REMARK       I    between atoms: CCA_2  and  OCB_28 
REMARK       I    between atoms: CBL_3  and  CBK_24 
REMARK       I    between atoms: OBM_4  and  CBE_20 
REMARK       I    between atoms: CBI_5  and  CBJ_25 
REMARK       I    between atoms: CBY_7  and  OBZ_22 
REMARK       I    between atoms: SBW_8  and  OBP_27 
REMARK       I    between atoms: OBR_9  and  CBJ_25 
REMARK       I    between atoms: CCD_10  and  CCE_18 
REMARK       I    between atoms: OBO_12  and  CBG_29 
REMARK       I    between atoms: OBO_12  and  CBX_17 
REMARK       I    between atoms: CBH_23  and  OBP_27 
REMARK       I    between atoms: CBK_24  and  NBN_30 
REMARK       I    between atoms: CBF_26  and  NBN_30 
ROOT
ATOM      1  OBS L42 d1784      26.448  16.826  32.750  0.00  0.00    -0.274 OA
ATOM      2  CCA L42 d1784      22.215  19.294  29.991  0.00  0.00     0.084 C 
ATOM      3  CBL L42 d1784      25.962  16.531  30.416  0.00  0.00    -0.003 C 
ATOM      4  OBM L42 d1784      29.831  19.285  32.219  0.00  0.00    -0.369 OA
ATOM      5  CBI L42 d1784      27.783  22.299  32.902  0.00  0.00     0.090 C 
ATOM      6  OBU L42 d1784      23.976  21.589  34.870  0.00  0.00    -0.572 OA
ATOM      7  CBY L42 d1784      22.905  19.350  31.332  0.00  0.00     0.111 C 
ATOM      8  SBW L42 d1784      25.365  21.713  35.499  0.00  0.00     0.252 S 
ATOM      9  OBR L42 d1784      28.752  23.563  34.403  0.00  0.00    -0.398 OA
ATOM     10  CCD L42 d1784      23.057  21.718  29.870  0.00  0.00     0.147 C 
ATOM     11  OCG L42 d1784      23.797  23.946  29.901  0.00  0.00    -0.642 OA
ATOM     12  OBO L42 d1784      24.921  20.191  32.385  0.00  0.00    -0.348 OA
ATOM     13  OCH L42 d1784      23.846  21.539  30.958  0.00  0.00    -0.311 OA
ATOM     14  CCC L42 d1784      22.235  20.701  29.358  0.00  0.00    -0.034 C 
ATOM     15  OBQ L42 d1784      28.891  21.354  33.078  0.00  0.00    -0.349 OA
ATOM     16  OBV L42 d1784      25.501  20.983  36.729  0.00  0.00    -0.572 OA
ATOM     17  CBX L42 d1784      24.212  20.179  31.187  0.00  0.00     0.165 C 
ATOM     18  CCE L42 d1784      23.133  23.102  29.238  0.00  0.00     0.233 C 
ATOM     19  OCF L42 d1784      22.483  23.336  28.188  0.00  0.00    -0.642 OA
ATOM     20  CBE L42 d1784      28.743  20.184  32.130  0.00  0.00     0.151 C 
ATOM     21  OBT L42 d1784      25.578  23.146  35.810  0.00  0.00    -0.572 OA
ATOM     22  OBZ L42 d1784      23.121  18.031  31.783  0.00  0.00    -0.388 OA
ATOM     23  CBH L42 d1784      26.436  21.638  33.235  0.00  0.00     0.114 C 
ATOM     24  CBK L42 d1784      26.480  17.321  31.611  0.00  0.00     0.214 C 
ATOM     25  CBJ L42 d1784      27.665  23.686  33.677  0.00  0.00     0.043 C 
ATOM     26  CBF L42 d1784      27.369  19.489  32.320  0.00  0.00     0.087 C 
ATOM     27  OBP L42 d1784      26.452  21.160  34.625  0.00  0.00    -0.246 OA
ATOM     28  OCB L42 d1784      20.876  18.932  30.262  0.00  0.00    -0.389 OA
ATOM     29  CBG L42 d1784      26.246  20.573  32.203  0.00  0.00     0.094 C 
ATOM     30  NBN L42 d1784      26.988  18.525  31.298  0.00  0.00    -0.349 N 
ATOM     31  H   L42 d1784      22.690  18.605  29.323  0.00  0.00     0.093 H 
ATOM     32  H   L42 d1784      25.577  15.591  30.751  0.00  0.00     0.040 H 
ATOM     33  H   L42 d1784      26.761  16.364  29.724  0.00  0.00     0.040 H 
ATOM     34  H   L42 d1784      25.183  17.084  29.934  0.00  0.00     0.040 H 
ATOM     35  H   L42 d1784      30.662  19.769  32.093  0.00  0.00     0.212 HD
ATOM     36  H   L42 d1784      28.023  22.549  31.889  0.00  0.00     0.090 H 
ATOM     37  H   L42 d1784      22.305  19.841  32.070  0.00  0.00     0.095 H 
ATOM     38  H   L42 d1784      28.855  24.346  34.965  0.00  0.00     0.209 HD
ATOM     39  H   L42 d1784      21.633  20.898  28.543  0.00  0.00     0.085 H 
ATOM     40  H   L42 d1784      24.797  19.753  30.398  0.00  0.00     0.134 H 
ATOM     41  H   L42 d1784      28.766  20.566  31.131  0.00  0.00     0.132 H 
ATOM     42  H   L42 d1784      23.664  17.553  31.137  0.00  0.00     0.210 HD
ATOM     43  H   L42 d1784      25.601  22.306  33.193  0.00  0.00     0.093 H 
ATOM     44  H   L42 d1784      26.780  23.746  34.275  0.00  0.00     0.078 H 
ATOM     45  H   L42 d1784      27.593  24.566  33.073  0.00  0.00     0.078 H 
ATOM     46  H   L42 d1784      27.465  18.988  33.261  0.00  0.00     0.084 H 
ATOM     47  H   L42 d1784      20.483  19.579  30.868  0.00  0.00     0.210 HD
ATOM     48  H   L42 d1784      26.369  20.866  31.181  0.00  0.00     0.091 H 
ATOM     49  H   L42 d1784      27.106  18.763  30.350  0.00  0.00     0.163 HD
ENDROOT
TORSDOF 12
ENDMDL
MODEL 63
REMARK VINA RESULT:      -7.1      4.097      6.592
REMARK  0 active torsions:
REMARK  status: ('A' for Active; 'I' for Inactive)
REMARK       I    between atoms: CCA_2  and  OCB_28 
REMARK       I    between atoms: CBL_3  and  CBK_24 
REMARK       I    between atoms: OBM_4  and  CBE_20 
REMARK       I    between atoms: CBI_5  and  CBJ_25 
REMARK       I    between atoms: CBY_7  and  OBZ_22 
REMARK       I    between atoms: SBW_8  and  OBP_27 
REMARK       I    between atoms: OBR_9  and  CBJ_25 
REMARK       I    between atoms: CCD_10  and  CCE_18 
REMARK       I    between atoms: OBO_12  and  CBG_29 
REMARK       I    between atoms: OBO_12  and  CBX_17 
REMARK       I    between atoms: CBH_23  and  OBP_27 
REMARK       I    between atoms: CBK_24  and  NBN_30 
REMARK       I    between atoms: CBF_26  and  NBN_30 
ROOT
ATOM      1  OBS L42 d1784      25.087  22.833  31.940  0.00  0.00    -0.274 OA
ATOM      2  CCA L42 d1784      22.707  21.487  27.027  0.00  0.00     0.084 C 
ATOM      3  CBL L42 d1784      22.807  23.289  31.339  0.00  0.00    -0.003 C 
ATOM      4  OBM L42 d1784      24.250  19.666  34.594  0.00  0.00    -0.369 OA
ATOM      5  CBI L42 d1784      25.102  17.198  31.963  0.00  0.00     0.090 C 
ATOM      6  OBU L42 d1784      27.404  18.729  28.612  0.00  0.00    -0.572 OA
ATOM      7  CBY L42 d1784      23.981  21.240  27.796  0.00  0.00     0.111 C 
ATOM      8  SBW L42 d1784      27.906  18.270  29.981  0.00  0.00     0.252 S 
ATOM      9  OBR L42 d1784      26.508  15.707  32.733  0.00  0.00    -0.398 OA
ATOM     10  CCD L42 d1784      22.505  18.938  27.263  0.00  0.00     0.147 C 
ATOM     11  OCG L42 d1784      22.463  16.598  27.460  0.00  0.00    -0.642 OA
ATOM     12  OBO L42 d1784      24.849  19.927  29.642  0.00  0.00    -0.348 OA
ATOM     13  OCH L42 d1784      23.519  18.901  28.163  0.00  0.00    -0.311 OA
ATOM     14  CCC L42 d1784      22.071  20.131  26.662  0.00  0.00    -0.034 C 
ATOM     15  OBQ L42 d1784      25.183  17.854  33.272  0.00  0.00    -0.349 OA
ATOM     16  OBV L42 d1784      29.122  18.918  30.389  0.00  0.00    -0.572 OA
ATOM     17  CBX L42 d1784      23.719  20.133  28.855  0.00  0.00     0.165 C 
ATOM     18  CCE L42 d1784      21.864  17.590  26.958  0.00  0.00     0.233 C 
ATOM     19  OCF L42 d1784      20.875  17.539  26.184  0.00  0.00    -0.642 OA
ATOM     20  CBE L42 d1784      24.256  19.048  33.322  0.00  0.00     0.151 C 
ATOM     21  OBT L42 d1784      28.193  16.820  29.878  0.00  0.00    -0.572 OA
ATOM     22  OBZ L42 d1784      24.417  22.461  28.354  0.00  0.00    -0.388 OA
ATOM     23  CBH L42 d1784      25.557  18.146  30.842  0.00  0.00     0.114 C 
ATOM     24  CBK L42 d1784      23.949  22.372  31.758  0.00  0.00     0.214 C 
ATOM     25  CBJ L42 d1784      25.881  15.858  31.590  0.00  0.00     0.043 C 
ATOM     26  CBF L42 d1784      24.569  20.040  32.171  0.00  0.00     0.087 C 
ATOM     27  OBP L42 d1784      26.941  18.574  31.089  0.00  0.00    -0.246 OA
ATOM     28  OCB L42 d1784      23.098  22.145  25.839  0.00  0.00    -0.389 OA
ATOM     29  CBG L42 d1784      24.549  19.250  30.819  0.00  0.00     0.094 C 
ATOM     30  NBN L42 d1784      23.588  21.090  31.940  0.00  0.00    -0.349 N 
ATOM     31  H   L42 d1784      22.003  22.062  27.591  0.00  0.00     0.093 H 
ATOM     32  H   L42 d1784      23.177  24.285  31.216  0.00  0.00     0.040 H 
ATOM     33  H   L42 d1784      22.048  23.281  32.093  0.00  0.00     0.040 H 
ATOM     34  H   L42 d1784      22.394  22.945  30.414  0.00  0.00     0.040 H 
ATOM     35  H   L42 d1784      24.050  19.004  35.274  0.00  0.00     0.212 HD
ATOM     36  H   L42 d1784      24.072  16.923  32.050  0.00  0.00     0.090 H 
ATOM     37  H   L42 d1784      24.769  20.885  27.164  0.00  0.00     0.095 H 
ATOM     38  H   L42 d1784      27.056  14.908  32.698  0.00  0.00     0.209 HD
ATOM     39  H   L42 d1784      21.312  20.099  25.963  0.00  0.00     0.085 H 
ATOM     40  H   L42 d1784      22.883  20.430  29.454  0.00  0.00     0.134 H 
ATOM     41  H   L42 d1784      23.257  18.695  33.169  0.00  0.00     0.132 H 
ATOM     42  H   L42 d1784      23.726  22.814  28.936  0.00  0.00     0.210 HD
ATOM     43  H   L42 d1784      25.587  17.693  29.873  0.00  0.00     0.093 H 
ATOM     44  H   L42 d1784      26.555  15.992  30.770  0.00  0.00     0.078 H 
ATOM     45  H   L42 d1784      25.283  15.034  31.262  0.00  0.00     0.078 H 
ATOM     46  H   L42 d1784      25.500  20.482  32.463  0.00  0.00     0.084 H 
ATOM     47  H   L42 d1784      23.734  21.593  25.357  0.00  0.00     0.210 HD
ATOM     48  H   L42 d1784      23.518  18.962  30.782  0.00  0.00     0.091 H 
ATOM     49  H   L42 d1784      22.632  20.854  31.918  0.00  0.00     0.163 HD
ENDROOT
TORSDOF 12
ENDMDL
MODEL 64
REMARK VINA RESULT:      -6.9      2.816      6.135
REMARK  0 active torsions:
REMARK  status: ('A' for Active; 'I' for Inactive)
REMARK       I    between atoms: CCA_2  and  OCB_28 
REMARK       I    between atoms: CBL_3  and  CBK_24 
REMARK       I    between atoms: OBM_4  and  CBE_20 
REMARK       I    between atoms: CBI_5  and  CBJ_25 
REMARK       I    between atoms: CBY_7  and  OBZ_22 
REMARK       I    between atoms: SBW_8  and  OBP_27 
REMARK       I    between atoms: OBR_9  and  CBJ_25 
REMARK       I    between atoms: CCD_10  and  CCE_18 
REMARK       I    between atoms: OBO_12  and  CBG_29 
REMARK       I    between atoms: OBO_12  and  CBX_17 
REMARK       I    between atoms: CBH_23  and  OBP_27 
REMARK       I    between atoms: CBK_24  and  NBN_30 
REMARK       I    between atoms: CBF_26  and  NBN_30 
ROOT
ATOM      1  OBS L42 d1784      29.155  18.295  34.885  0.00  0.00    -0.274 OA
ATOM      2  CCA L42 d1784      27.458  23.546  33.802  0.00  0.00     0.084 C 
ATOM      3  CBL L42 d1784      27.647  19.569  36.252  0.00  0.00    -0.003 C 
ATOM      4  OBM L42 d1784      26.245  15.724  33.244  0.00  0.00    -0.369 OA
ATOM      5  CBI L42 d1784      26.147  17.763  30.149  0.00  0.00     0.090 C 
ATOM      6  OBU L42 d1784      29.523  20.428  29.536  0.00  0.00    -0.572 OA
ATOM      7  CBY L42 d1784      28.219  22.421  33.143  0.00  0.00     0.111 C 
ATOM      8  SBW L42 d1784      29.417  18.936  29.216  0.00  0.00     0.252 S 
ATOM      9  OBR L42 d1784      26.350  16.488  28.382  0.00  0.00    -0.398 OA
ATOM     10  CCD L42 d1784      25.880  23.150  31.814  0.00  0.00     0.147 C 
ATOM     11  OCG L42 d1784      24.555  22.764  29.915  0.00  0.00    -0.642 OA
ATOM     12  OBO L42 d1784      27.861  20.294  32.036  0.00  0.00    -0.348 OA
ATOM     13  OCH L42 d1784      26.515  21.996  31.490  0.00  0.00    -0.311 OA
ATOM     14  CCC L42 d1784      26.282  23.956  32.892  0.00  0.00    -0.034 C 
ATOM     15  OBQ L42 d1784      26.304  16.551  30.960  0.00  0.00    -0.349 OA
ATOM     16  OBV L42 d1784      30.680  18.254  29.256  0.00  0.00    -0.572 OA
ATOM     17  CBX L42 d1784      27.200  21.389  32.585  0.00  0.00     0.165 C 
ATOM     18  CCE L42 d1784      24.694  23.505  30.927  0.00  0.00     0.233 C 
ATOM     19  OCF L42 d1784      24.009  24.524  31.195  0.00  0.00    -0.642 OA
ATOM     20  CBE L42 d1784      26.172  16.879  32.431  0.00  0.00     0.151 C 
ATOM     21  OBT L42 d1784      28.896  18.821  27.834  0.00  0.00    -0.572 OA
ATOM     22  OBZ L42 d1784      29.118  21.874  34.082  0.00  0.00    -0.388 OA
ATOM     23  CBH L42 d1784      27.251  18.785  30.466  0.00  0.00     0.114 C 
ATOM     24  CBK L42 d1784      28.010  18.757  35.016  0.00  0.00     0.214 C 
ATOM     25  CBJ L42 d1784      26.144  17.772  28.556  0.00  0.00     0.043 C 
ATOM     26  CBF L42 d1784      27.189  17.974  32.847  0.00  0.00     0.087 C 
ATOM     27  OBP L42 d1784      28.567  18.187  30.201  0.00  0.00    -0.246 OA
ATOM     28  OCB L42 d1784      28.367  24.624  33.891  0.00  0.00    -0.389 OA
ATOM     29  CBG L42 d1784      27.018  19.198  31.884  0.00  0.00     0.094 C 
ATOM     30  NBN L42 d1784      26.991  18.573  34.159  0.00  0.00    -0.349 N 
ATOM     31  H   L42 d1784      27.076  23.264  34.761  0.00  0.00     0.093 H 
ATOM     32  H   L42 d1784      28.508  19.669  36.878  0.00  0.00     0.040 H 
ATOM     33  H   L42 d1784      26.869  19.070  36.792  0.00  0.00     0.040 H 
ATOM     34  H   L42 d1784      27.308  20.540  35.955  0.00  0.00     0.040 H 
ATOM     35  H   L42 d1784      25.591  15.075  32.942  0.00  0.00     0.212 HD
ATOM     36  H   L42 d1784      25.136  17.954  30.445  0.00  0.00     0.090 H 
ATOM     37  H   L42 d1784      28.801  22.764  32.313  0.00  0.00     0.095 H 
ATOM     38  H   L42 d1784      26.379  16.291  27.433  0.00  0.00     0.209 HD
ATOM     39  H   L42 d1784      25.781  24.838  33.079  0.00  0.00     0.085 H 
ATOM     40  H   L42 d1784      26.553  21.087  33.382  0.00  0.00     0.134 H 
ATOM     41  H   L42 d1784      25.194  17.282  32.591  0.00  0.00     0.132 H 
ATOM     42  H   L42 d1784      28.625  21.551  34.852  0.00  0.00     0.210 HD
ATOM     43  H   L42 d1784      27.225  19.659  29.849  0.00  0.00     0.093 H 
ATOM     44  H   L42 d1784      26.932  18.371  28.149  0.00  0.00     0.078 H 
ATOM     45  H   L42 d1784      25.276  18.184  28.083  0.00  0.00     0.078 H 
ATOM     46  H   L42 d1784      28.131  17.467  32.826  0.00  0.00     0.084 H 
ATOM     47  H   L42 d1784      28.690  24.849  33.004  0.00  0.00     0.210 HD
ATOM     48  H   L42 d1784      26.026  19.505  32.141  0.00  0.00     0.091 H 
ATOM     49  H   L42 d1784      26.085  18.850  34.426  0.00  0.00     0.163 HD
ENDROOT
TORSDOF 12
ENDMDL
MODEL 65
REMARK VINA RESULT:      -6.9      2.709      4.573
REMARK  0 active torsions:
REMARK  status: ('A' for Active; 'I' for Inactive)
REMARK       I    between atoms: CCA_2  and  OCB_28 
REMARK       I    between atoms: CBL_3  and  CBK_24 
REMARK       I    between atoms: OBM_4  and  CBE_20 
REMARK       I    between atoms: CBI_5  and  CBJ_25 
REMARK       I    between atoms: CBY_7  and  OBZ_22 
REMARK       I    between atoms: SBW_8  and  OBP_27 
REMARK       I    between atoms: OBR_9  and  CBJ_25 
REMARK       I    between atoms: CCD_10  and  CCE_18 
REMARK       I    between atoms: OBO_12  and  CBG_29 
REMARK       I    between atoms: OBO_12  and  CBX_17 
REMARK       I    between atoms: CBH_23  and  OBP_27 
REMARK       I    between atoms: CBK_24  and  NBN_30 
REMARK       I    between atoms: CBF_26  and  NBN_30 
ROOT
ATOM      1  OBS L42 d1784      25.156  17.978  34.227  0.00  0.00    -0.274 OA
ATOM      2  CCA L42 d1784      26.116  18.615  28.723  0.00  0.00     0.084 C 
ATOM      3  CBL L42 d1784      25.741  16.208  32.713  0.00  0.00    -0.003 C 
ATOM      4  OBM L42 d1784      28.905  18.217  36.141  0.00  0.00    -0.369 OA
ATOM      5  CBI L42 d1784      29.816  21.142  34.055  0.00  0.00     0.090 C 
ATOM      6  OBU L42 d1784      26.510  23.163  32.090  0.00  0.00    -0.572 OA
ATOM      7  CBY L42 d1784      25.901  19.452  29.961  0.00  0.00     0.111 C 
ATOM      8  SBW L42 d1784      27.013  23.332  33.525  0.00  0.00     0.252 S 
ATOM      9  OBR L42 d1784      30.565  22.775  35.305  0.00  0.00    -0.398 OA
ATOM     10  CCD L42 d1784      28.389  19.811  28.758  0.00  0.00     0.147 C 
ATOM     11  OCG L42 d1784      30.397  21.025  28.834  0.00  0.00    -0.642 OA
ATOM     12  OBO L42 d1784      27.057  20.212  31.952  0.00  0.00    -0.348 OA
ATOM     13  OCH L42 d1784      28.161  20.290  30.007  0.00  0.00    -0.311 OA
ATOM     14  CCC L42 d1784      27.454  19.020  28.071  0.00  0.00    -0.034 C 
ATOM     15  OBQ L42 d1784      29.588  20.388  35.292  0.00  0.00    -0.349 OA
ATOM     16  OBV L42 d1784      25.988  23.747  34.442  0.00  0.00    -0.572 OA
ATOM     17  CBX L42 d1784      27.231  19.513  30.761  0.00  0.00     0.165 C 
ATOM     18  CCE L42 d1784      29.737  20.189  28.158  0.00  0.00     0.233 C 
ATOM     19  OCF L42 d1784      30.057  19.735  27.030  0.00  0.00    -0.642 OA
ATOM     20  CBE L42 d1784      29.070  19.002  34.977  0.00  0.00     0.151 C 
ATOM     21  OBT L42 d1784      28.043  24.397  33.505  0.00  0.00    -0.572 OA
ATOM     22  OBZ L42 d1784      24.827  18.905  30.694  0.00  0.00    -0.388 OA
ATOM     23  CBH L42 d1784      28.505  21.336  33.276  0.00  0.00     0.114 C 
ATOM     24  CBK L42 d1784      26.050  17.440  33.554  0.00  0.00     0.214 C 
ATOM     25  CBJ L42 d1784      30.440  22.608  34.009  0.00  0.00     0.043 C 
ATOM     26  CBF L42 d1784      27.784  19.075  34.112  0.00  0.00     0.087 C 
ATOM     27  OBP L42 d1784      27.536  22.056  34.114  0.00  0.00    -0.246 OA
ATOM     28  OCB L42 d1784      25.058  18.946  27.846  0.00  0.00    -0.389 OA
ATOM     29  CBG L42 d1784      28.083  19.964  32.857  0.00  0.00     0.094 C 
ATOM     30  NBN L42 d1784      27.337  17.825  33.515  0.00  0.00    -0.349 N 
ATOM     31  H   L42 d1784      26.140  17.568  28.946  0.00  0.00     0.093 H 
ATOM     32  H   L42 d1784      24.701  15.970  32.798  0.00  0.00     0.040 H 
ATOM     33  H   L42 d1784      26.325  15.382  33.062  0.00  0.00     0.040 H 
ATOM     34  H   L42 d1784      25.979  16.405  31.689  0.00  0.00     0.040 H 
ATOM     35  H   L42 d1784      29.735  18.204  36.643  0.00  0.00     0.212 HD
ATOM     36  H   L42 d1784      30.575  20.489  33.676  0.00  0.00     0.090 H 
ATOM     37  H   L42 d1784      25.635  20.461  29.720  0.00  0.00     0.095 H 
ATOM     38  H   L42 d1784      30.946  23.649  35.483  0.00  0.00     0.209 HD
ATOM     39  H   L42 d1784      27.665  18.704  27.112  0.00  0.00     0.085 H 
ATOM     40  H   L42 d1784      27.560  18.512  30.947  0.00  0.00     0.134 H 
ATOM     41  H   L42 d1784      29.812  18.499  34.394  0.00  0.00     0.132 H 
ATOM     42  H   L42 d1784      25.031  17.987  30.931  0.00  0.00     0.210 HD
ATOM     43  H   L42 d1784      28.604  21.943  32.401  0.00  0.00     0.093 H 
ATOM     44  H   L42 d1784      29.775  23.321  33.568  0.00  0.00     0.078 H 
ATOM     45  H   L42 d1784      31.328  22.731  33.425  0.00  0.00     0.078 H 
ATOM     46  H   L42 d1784      27.039  19.430  34.793  0.00  0.00     0.084 H 
ATOM     47  H   L42 d1784      25.072  19.900  27.670  0.00  0.00     0.210 HD
ATOM     48  H   L42 d1784      28.819  19.361  32.367  0.00  0.00     0.091 H 
ATOM     49  H   L42 d1784      27.997  17.244  33.072  0.00  0.00     0.163 HD
ENDROOT
TORSDOF 12
ENDMDL
MODEL 66
REMARK VINA RESULT:      -6.9      3.879      5.413
REMARK  0 active torsions:
REMARK  status: ('A' for Active; 'I' for Inactive)
REMARK       I    between atoms: CCA_2  and  OCB_28 
REMARK       I    between atoms: CBL_3  and  CBK_24 
REMARK       I    between atoms: OBM_4  and  CBE_20 
REMARK       I    between atoms: CBI_5  and  CBJ_25 
REMARK       I    between atoms: CBY_7  and  OBZ_22 
REMARK       I    between atoms: SBW_8  and  OBP_27 
REMARK       I    between atoms: OBR_9  and  CBJ_25 
REMARK       I    between atoms: CCD_10  and  CCE_18 
REMARK       I    between atoms: OBO_12  and  CBG_29 
REMARK       I    between atoms: OBO_12  and  CBX_17 
REMARK       I    between atoms: CBH_23  and  OBP_27 
REMARK       I    between atoms: CBK_24  and  NBN_30 
REMARK       I    between atoms: CBF_26  and  NBN_30 
ROOT
ATOM      1  OBS L42 d1784      28.886  20.208  33.769  0.00  0.00    -0.274 OA
ATOM      2  CCA L42 d1784      25.461  20.235  29.310  0.00  0.00     0.084 C 
ATOM      3  CBL L42 d1784      29.501  20.921  31.560  0.00  0.00    -0.003 C 
ATOM      4  OBM L42 d1784      28.685  24.061  35.469  0.00  0.00    -0.369 OA
ATOM      5  CBI L42 d1784      24.995  24.056  35.114  0.00  0.00     0.090 C 
ATOM      6  OBU L42 d1784      23.163  20.166  34.496  0.00  0.00    -0.572 OA
ATOM      7  CBY L42 d1784      25.406  20.030  30.804  0.00  0.00     0.111 C 
ATOM      8  SBW L42 d1784      23.588  20.820  35.811  0.00  0.00     0.252 S 
ATOM      9  OBR L42 d1784      24.041  24.625  37.000  0.00  0.00    -0.398 OA
ATOM     10  CCD L42 d1784      23.912  22.199  29.895  0.00  0.00     0.147 C 
ATOM     11  OCG L42 d1784      22.434  23.910  30.529  0.00  0.00    -0.642 OA
ATOM     12  OBO L42 d1784      25.442  21.276  32.884  0.00  0.00    -0.348 OA
ATOM     13  OCH L42 d1784      24.168  22.057  31.219  0.00  0.00    -0.311 OA
ATOM     14  CCC L42 d1784      24.476  21.358  28.922  0.00  0.00    -0.034 C 
ATOM     15  OBQ L42 d1784      26.282  24.161  35.810  0.00  0.00    -0.349 OA
ATOM     16  OBV L42 d1784      23.935  19.871  36.833  0.00  0.00    -0.572 OA
ATOM     17  CBX L42 d1784      25.413  21.420  31.500  0.00  0.00     0.165 C 
ATOM     18  CCE L42 d1784      22.973  23.345  29.538  0.00  0.00     0.233 C 
ATOM     19  OCF L42 d1784      22.732  23.589  28.329  0.00  0.00    -0.642 OA
ATOM     20  CBE L42 d1784      27.423  23.897  34.853  0.00  0.00     0.151 C 
ATOM     21  OBT L42 d1784      22.430  21.599  36.307  0.00  0.00    -0.572 OA
ATOM     22  OBZ L42 d1784      26.484  19.204  31.186  0.00  0.00    -0.388 OA
ATOM     23  CBH L42 d1784      24.780  22.637  34.564  0.00  0.00     0.114 C 
ATOM     24  CBK L42 d1784      28.794  21.088  32.899  0.00  0.00     0.214 C 
ATOM     25  CBJ L42 d1784      23.587  24.356  35.798  0.00  0.00     0.043 C 
ATOM     26  CBF L42 d1784      27.261  22.515  34.167  0.00  0.00     0.087 C 
ATOM     27  OBP L42 d1784      24.817  21.669  35.670  0.00  0.00    -0.246 OA
ATOM     28  OCB L42 d1784      25.020  19.020  28.739  0.00  0.00    -0.389 OA
ATOM     29  CBG L42 d1784      25.835  22.447  33.522  0.00  0.00     0.094 C 
ATOM     30  NBN L42 d1784      28.135  22.252  33.033  0.00  0.00    -0.349 N 
ATOM     31  H   L42 d1784      26.442  20.502  28.977  0.00  0.00     0.093 H 
ATOM     32  H   L42 d1784      29.997  19.974  31.535  0.00  0.00     0.040 H 
ATOM     33  H   L42 d1784      30.220  21.705  31.436  0.00  0.00     0.040 H 
ATOM     34  H   L42 d1784      28.782  20.968  30.769  0.00  0.00     0.040 H 
ATOM     35  H   L42 d1784      28.733  24.938  35.881  0.00  0.00     0.212 HD
ATOM     36  H   L42 d1784      25.175  24.871  34.444  0.00  0.00     0.090 H 
ATOM     37  H   L42 d1784      24.508  19.534  31.108  0.00  0.00     0.095 H 
ATOM     38  H   L42 d1784      23.297  24.841  37.585  0.00  0.00     0.209 HD
ATOM     39  H   L42 d1784      24.227  21.492  27.930  0.00  0.00     0.085 H 
ATOM     40  H   L42 d1784      26.264  21.968  31.152  0.00  0.00     0.134 H 
ATOM     41  H   L42 d1784      27.382  24.637  34.081  0.00  0.00     0.132 H 
ATOM     42  H   L42 d1784      27.320  19.622  30.926  0.00  0.00     0.210 HD
ATOM     43  H   L42 d1784      23.823  22.486  34.110  0.00  0.00     0.093 H 
ATOM     44  H   L42 d1784      22.939  23.505  35.788  0.00  0.00     0.078 H 
ATOM     45  H   L42 d1784      22.983  25.110  35.337  0.00  0.00     0.078 H 
ATOM     46  H   L42 d1784      27.475  21.817  34.949  0.00  0.00     0.084 H 
ATOM     47  H   L42 d1784      24.130  18.814  29.064  0.00  0.00     0.210 HD
ATOM     48  H   L42 d1784      25.925  23.215  32.782  0.00  0.00     0.091 H 
ATOM     49  H   L42 d1784      28.247  22.947  32.345  0.00  0.00     0.163 HD
ENDROOT
TORSDOF 12
ENDMDL
MODEL 67
REMARK VINA RESULT:      -6.7      3.142      7.403
REMARK  0 active torsions:
REMARK  status: ('A' for Active; 'I' for Inactive)
REMARK       I    between atoms: CCA_2  and  OCB_28 
REMARK       I    between atoms: CBL_3  and  CBK_24 
REMARK       I    between atoms: OBM_4  and  CBE_20 
REMARK       I    between atoms: CBI_5  and  CBJ_25 
REMARK       I    between atoms: CBY_7  and  OBZ_22 
REMARK       I    between atoms: SBW_8  and  OBP_27 
REMARK       I    between atoms: OBR_9  and  CBJ_25 
REMARK       I    between atoms: CCD_10  and  CCE_18 
REMARK       I    between atoms: OBO_12  and  CBG_29 
REMARK       I    between atoms: OBO_12  and  CBX_17 
REMARK       I    between atoms: CBH_23  and  OBP_27 
REMARK       I    between atoms: CBK_24  and  NBN_30 
REMARK       I    between atoms: CBF_26  and  NBN_30 
ROOT
ATOM      1  OBS L42 d1784      22.200  20.609  33.253  0.00  0.00    -0.274 OA
ATOM      2  CCA L42 d1784      27.603  19.254  34.022  0.00  0.00     0.084 C 
ATOM      3  CBL L42 d1784      23.739  21.810  34.651  0.00  0.00    -0.003 C 
ATOM      4  OBM L42 d1784      22.098  23.437  30.128  0.00  0.00    -0.369 OA
ATOM      5  CBI L42 d1784      24.499  21.401  28.169  0.00  0.00     0.090 C 
ATOM      6  OBU L42 d1784      24.936  17.266  29.428  0.00  0.00    -0.572 OA
ATOM      7  CBY L42 d1784      26.431  18.872  33.151  0.00  0.00     0.111 C 
ATOM      8  SBW L42 d1784      23.866  17.878  28.522  0.00  0.00     0.252 S 
ATOM      9  OBR L42 d1784      23.765  21.097  26.130  0.00  0.00    -0.398 OA
ATOM     10  CCD L42 d1784      28.602  19.917  31.751  0.00  0.00     0.147 C 
ATOM     11  OCG L42 d1784      29.451  20.406  29.617  0.00  0.00    -0.642 OA
ATOM     12  OBO L42 d1784      25.167  19.654  31.236  0.00  0.00    -0.348 OA
ATOM     13  OCH L42 d1784      27.399  19.782  31.139  0.00  0.00    -0.311 OA
ATOM     14  CCC L42 d1784      28.784  19.666  33.121  0.00  0.00    -0.034 C 
ATOM     15  OBQ L42 d1784      23.253  22.126  28.439  0.00  0.00    -0.349 OA
ATOM     16  OBV L42 d1784      22.616  17.172  28.559  0.00  0.00    -0.572 OA
ATOM     17  CBX L42 d1784      26.285  19.926  32.019  0.00  0.00     0.165 C 
ATOM     18  CCE L42 d1784      29.740  20.370  30.845  0.00  0.00     0.233 C 
ATOM     19  OCF L42 d1784      30.875  20.583  31.342  0.00  0.00    -0.642 OA
ATOM     20  CBE L42 d1784      23.253  22.669  29.851  0.00  0.00     0.151 C 
ATOM     21  OBT L42 d1784      24.374  17.803  27.133  0.00  0.00    -0.572 OA
ATOM     22  OBZ L42 d1784      25.284  18.756  33.964  0.00  0.00    -0.388 OA
ATOM     23  CBH L42 d1784      24.646  20.188  29.101  0.00  0.00     0.114 C 
ATOM     24  CBK L42 d1784      23.168  21.384  33.305  0.00  0.00     0.214 C 
ATOM     25  CBJ L42 d1784      24.873  20.770  26.754  0.00  0.00     0.043 C 
ATOM     26  CBF L42 d1784      23.483  21.532  30.882  0.00  0.00     0.087 C 
ATOM     27  OBP L42 d1784      23.504  19.281  28.913  0.00  0.00    -0.246 OA
ATOM     28  OCB L42 d1784      27.953  18.084  34.732  0.00  0.00    -0.389 OA
ATOM     29  CBG L42 d1784      24.781  20.755  30.478  0.00  0.00     0.094 C 
ATOM     30  NBN L42 d1784      23.774  21.949  32.246  0.00  0.00    -0.349 N 
ATOM     31  H   L42 d1784      27.366  20.066  34.679  0.00  0.00     0.093 H 
ATOM     32  H   L42 d1784      23.205  21.318  35.436  0.00  0.00     0.040 H 
ATOM     33  H   L42 d1784      23.640  22.870  34.762  0.00  0.00     0.040 H 
ATOM     34  H   L42 d1784      24.774  21.542  34.701  0.00  0.00     0.040 H 
ATOM     35  H   L42 d1784      22.002  24.130  29.456  0.00  0.00     0.212 HD
ATOM     36  H   L42 d1784      25.139  22.251  28.289  0.00  0.00     0.090 H 
ATOM     37  H   L42 d1784      26.578  17.924  32.678  0.00  0.00     0.095 H 
ATOM     38  H   L42 d1784      23.807  20.784  25.213  0.00  0.00     0.209 HD
ATOM     39  H   L42 d1784      29.727  19.758  33.532  0.00  0.00     0.085 H 
ATOM     40  H   L42 d1784      26.215  20.896  32.467  0.00  0.00     0.134 H 
ATOM     41  H   L42 d1784      24.077  23.346  29.942  0.00  0.00     0.132 H 
ATOM     42  H   L42 d1784      25.118  19.599  34.412  0.00  0.00     0.210 HD
ATOM     43  H   L42 d1784      25.504  19.582  28.896  0.00  0.00     0.093 H 
ATOM     44  H   L42 d1784      25.015  19.711  26.804  0.00  0.00     0.078 H 
ATOM     45  H   L42 d1784      25.787  21.104  26.309  0.00  0.00     0.078 H 
ATOM     46  H   L42 d1784      22.563  20.985  30.866  0.00  0.00     0.084 H 
ATOM     47  H   L42 d1784      28.159  17.374  34.103  0.00  0.00     0.210 HD
ATOM     48  H   L42 d1784      25.513  21.524  30.613  0.00  0.00     0.091 H 
ATOM     49  H   L42 d1784      24.432  22.665  32.397  0.00  0.00     0.163 HD
ENDROOT
TORSDOF 12
ENDMDL
MODEL 68
REMARK VINA RESULT:      -6.6      2.981      6.120
REMARK  0 active torsions:
REMARK  status: ('A' for Active; 'I' for Inactive)
REMARK       I    between atoms: CCA_2  and  OCB_28 
REMARK       I    between atoms: CBL_3  and  CBK_24 
REMARK       I    between atoms: OBM_4  and  CBE_20 
REMARK       I    between atoms: CBI_5  and  CBJ_25 
REMARK       I    between atoms: CBY_7  and  OBZ_22 
REMARK       I    between atoms: SBW_8  and  OBP_27 
REMARK       I    between atoms: OBR_9  and  CBJ_25 
REMARK       I    between atoms: CCD_10  and  CCE_18 
REMARK       I    between atoms: OBO_12  and  CBG_29 
REMARK       I    between atoms: OBO_12  and  CBX_17 
REMARK       I    between atoms: CBH_23  and  OBP_27 
REMARK       I    between atoms: CBK_24  and  NBN_30 
REMARK       I    between atoms: CBF_26  and  NBN_30 
ROOT
ATOM      1  OBS L42 d1784      30.846  20.493  30.486  0.00  0.00    -0.274 OA
ATOM      2  CCA L42 d1784      27.299  22.489  34.366  0.00  0.00     0.084 C 
ATOM      3  CBL L42 d1784      30.984  20.050  32.842  0.00  0.00    -0.003 C 
ATOM      4  OBM L42 d1784      29.405  16.690  29.375  0.00  0.00    -0.369 OA
ATOM      5  CBI L42 d1784      25.949  18.021  29.197  0.00  0.00     0.090 C 
ATOM      6  OBU L42 d1784      25.600  22.344  28.955  0.00  0.00    -0.572 OA
ATOM      7  CBY L42 d1784      27.441  22.410  32.865  0.00  0.00     0.111 C 
ATOM      8  SBW L42 d1784      25.864  21.346  27.828  0.00  0.00     0.252 S 
ATOM      9  OBR L42 d1784      25.006  17.461  27.302  0.00  0.00    -0.398 OA
ATOM     10  CCD L42 d1784      25.198  21.097  33.870  0.00  0.00     0.147 C 
ATOM     11  OCG L42 d1784      23.257  19.906  33.297  0.00  0.00    -0.642 OA
ATOM     12  OBO L42 d1784      27.190  20.854  31.023  0.00  0.00    -0.348 OA
ATOM     13  OCH L42 d1784      25.592  20.887  32.589  0.00  0.00    -0.311 OA
ATOM     14  CCC L42 d1784      25.948  21.866  34.774  0.00  0.00    -0.034 C 
ATOM     15  OBQ L42 d1784      27.162  17.352  28.715  0.00  0.00    -0.349 OA
ATOM     16  OBV L42 d1784      26.610  21.905  26.734  0.00  0.00    -0.572 OA
ATOM     17  CBX L42 d1784      27.001  20.996  32.395  0.00  0.00     0.165 C 
ATOM     18  CCE L42 d1784      23.884  20.431  34.258  0.00  0.00     0.233 C 
ATOM     19  OCF L42 d1784      23.476  20.520  35.444  0.00  0.00    -0.642 OA
ATOM     20  CBE L42 d1784      28.242  17.389  29.774  0.00  0.00     0.151 C 
ATOM     21  OBT L42 d1784      24.546  20.928  27.295  0.00  0.00    -0.572 OA
ATOM     22  OBZ L42 d1784      28.771  22.730  32.520  0.00  0.00    -0.388 OA
ATOM     23  CBH L42 d1784      26.217  19.505  29.491  0.00  0.00     0.114 C 
ATOM     24  CBK L42 d1784      30.373  19.881  31.457  0.00  0.00     0.214 C 
ATOM     25  CBJ L42 d1784      24.587  18.094  28.373  0.00  0.00     0.043 C 
ATOM     26  CBF L42 d1784      28.535  18.848  30.214  0.00  0.00     0.087 C 
ATOM     27  OBP L42 d1784      26.689  20.172  28.269  0.00  0.00    -0.246 OA
ATOM     28  OCB L42 d1784      27.282  23.867  34.679  0.00  0.00    -0.389 OA
ATOM     29  CBG L42 d1784      27.184  19.519  30.632  0.00  0.00     0.094 C 
ATOM     30  NBN L42 d1784      29.352  19.008  31.408  0.00  0.00    -0.349 N 
ATOM     31  H   L42 d1784      28.088  21.972  34.871  0.00  0.00     0.093 H 
ATOM     32  H   L42 d1784      31.785  20.757  32.794  0.00  0.00     0.040 H 
ATOM     33  H   L42 d1784      31.360  19.108  33.184  0.00  0.00     0.040 H 
ATOM     34  H   L42 d1784      30.237  20.403  33.521  0.00  0.00     0.040 H 
ATOM     35  H   L42 d1784      29.165  15.788  29.112  0.00  0.00     0.212 HD
ATOM     36  H   L42 d1784      25.769  17.338  30.001  0.00  0.00     0.090 H 
ATOM     37  H   L42 d1784      26.809  23.115  32.366  0.00  0.00     0.095 H 
ATOM     38  H   L42 d1784      24.284  17.404  26.658  0.00  0.00     0.209 HD
ATOM     39  H   L42 d1784      25.590  22.017  35.730  0.00  0.00     0.085 H 
ATOM     40  H   L42 d1784      27.567  20.268  32.939  0.00  0.00     0.134 H 
ATOM     41  H   L42 d1784      27.875  16.870  30.635  0.00  0.00     0.132 H 
ATOM     42  H   L42 d1784      29.376  22.110  32.956  0.00  0.00     0.210 HD
ATOM     43  H   L42 d1784      25.346  20.057  29.776  0.00  0.00     0.093 H 
ATOM     44  H   L42 d1784      24.290  19.100  28.163  0.00  0.00     0.078 H 
ATOM     45  H   L42 d1784      23.717  17.694  28.852  0.00  0.00     0.078 H 
ATOM     46  H   L42 d1784      29.048  19.268  29.373  0.00  0.00     0.084 H 
ATOM     47  H   L42 d1784      26.555  24.298  34.203  0.00  0.00     0.210 HD
ATOM     48  H   L42 d1784      26.931  18.924  31.485  0.00  0.00     0.091 H 
ATOM     49  H   L42 d1784      29.151  18.462  32.201  0.00  0.00     0.163 HD
ENDROOT
TORSDOF 12
ENDMDL
MODEL 69
REMARK VINA RESULT:      -6.5      2.942      6.836
REMARK  0 active torsions:
REMARK  status: ('A' for Active; 'I' for Inactive)
REMARK       I    between atoms: CCA_2  and  OCB_28 
REMARK       I    between atoms: CBL_3  and  CBK_24 
REMARK       I    between atoms: OBM_4  and  CBE_20 
REMARK       I    between atoms: CBI_5  and  CBJ_25 
REMARK       I    between atoms: CBY_7  and  OBZ_22 
REMARK       I    between atoms: SBW_8  and  OBP_27 
REMARK       I    between atoms: OBR_9  and  CBJ_25 
REMARK       I    between atoms: CCD_10  and  CCE_18 
REMARK       I    between atoms: OBO_12  and  CBG_29 
REMARK       I    between atoms: OBO_12  and  CBX_17 
REMARK       I    between atoms: CBH_23  and  OBP_27 
REMARK       I    between atoms: CBK_24  and  NBN_30 
REMARK       I    between atoms: CBF_26  and  NBN_30 
ROOT
ATOM      1  OBS L42 d1784      25.563  18.607  28.007  0.00  0.00    -0.274 OA
ATOM      2  CCA L42 d1784      29.589  19.716  31.774  0.00  0.00     0.084 C 
ATOM      3  CBL L42 d1784      27.013  16.970  29.002  0.00  0.00    -0.003 C 
ATOM      4  OBM L42 d1784      22.113  17.572  30.198  0.00  0.00    -0.369 OA
ATOM      5  CBI L42 d1784      22.699  20.408  32.514  0.00  0.00     0.090 C 
ATOM      6  OBU L42 d1784      25.408  23.487  31.081  0.00  0.00    -0.572 OA
ATOM      7  CBY L42 d1784      28.435  20.401  31.084  0.00  0.00     0.111 C 
ATOM      8  SBW L42 d1784      23.917  23.317  30.785  0.00  0.00     0.252 S 
ATOM      9  OBR L42 d1784      20.875  21.594  32.753  0.00  0.00    -0.398 OA
ATOM     10  CCD L42 d1784      28.180  20.247  33.854  0.00  0.00     0.147 C 
ATOM     11  OCG L42 d1784      26.856  20.859  35.694  0.00  0.00    -0.642 OA
ATOM     12  OBO L42 d1784      26.015  20.545  31.141  0.00  0.00    -0.348 OA
ATOM     13  OCH L42 d1784      27.112  20.592  33.091  0.00  0.00    -0.311 OA
ATOM     14  CCC L42 d1784      29.403  19.835  33.300  0.00  0.00    -0.034 C 
ATOM     15  OBQ L42 d1784      21.955  19.579  31.558  0.00  0.00    -0.349 OA
ATOM     16  OBV L42 d1784      23.524  23.859  29.514  0.00  0.00    -0.572 OA
ATOM     17  CBX L42 d1784      27.114  19.995  31.795  0.00  0.00     0.165 C 
ATOM     18  CCE L42 d1784      27.952  20.330  35.358  0.00  0.00     0.233 C 
ATOM     19  OCF L42 d1784      28.866  19.967  36.140  0.00  0.00    -0.642 OA
ATOM     20  CBE L42 d1784      22.818  18.437  31.066  0.00  0.00     0.151 C 
ATOM     21  OBT L42 d1784      23.176  24.061  31.830  0.00  0.00    -0.572 OA
ATOM     22  OBZ L42 d1784      28.464  20.065  29.714  0.00  0.00    -0.388 OA
ATOM     23  CBH L42 d1784      23.927  21.049  31.848  0.00  0.00     0.114 C 
ATOM     24  CBK L42 d1784      25.845  17.948  29.021  0.00  0.00     0.214 C 
ATOM     25  CBJ L42 d1784      22.069  21.646  33.294  0.00  0.00     0.043 C 
ATOM     26  CBF L42 d1784      24.138  18.969  30.448  0.00  0.00     0.087 C 
ATOM     27  OBP L42 d1784      23.497  21.878  30.714  0.00  0.00    -0.246 OA
ATOM     28  OCB L42 d1784      30.745  20.434  31.394  0.00  0.00    -0.389 OA
ATOM     29  CBG L42 d1784      24.829  19.910  31.492  0.00  0.00     0.094 C 
ATOM     30  NBN L42 d1784      25.170  17.977  30.183  0.00  0.00    -0.349 N 
ATOM     31  H   L42 d1784      29.655  18.680  31.511  0.00  0.00     0.093 H 
ATOM     32  H   L42 d1784      27.494  17.009  28.047  0.00  0.00     0.040 H 
ATOM     33  H   L42 d1784      26.651  15.979  29.179  0.00  0.00     0.040 H 
ATOM     34  H   L42 d1784      27.714  17.236  29.765  0.00  0.00     0.040 H 
ATOM     35  H   L42 d1784      21.300  17.271  30.632  0.00  0.00     0.212 HD
ATOM     36  H   L42 d1784      22.824  19.635  33.243  0.00  0.00     0.090 H 
ATOM     37  H   L42 d1784      28.508  21.468  31.146  0.00  0.00     0.095 H 
ATOM     38  H   L42 d1784      20.323  22.302  33.120  0.00  0.00     0.209 HD
ATOM     39  H   L42 d1784      30.192  19.610  33.925  0.00  0.00     0.085 H 
ATOM     40  H   L42 d1784      27.056  18.927  31.814  0.00  0.00     0.134 H 
ATOM     41  H   L42 d1784      23.086  17.840  31.913  0.00  0.00     0.132 H 
ATOM     42  H   L42 d1784      28.400  19.102  29.616  0.00  0.00     0.210 HD
ATOM     43  H   L42 d1784      24.464  21.722  32.483  0.00  0.00     0.093 H 
ATOM     44  H   L42 d1784      22.575  22.564  33.079  0.00  0.00     0.078 H 
ATOM     45  H   L42 d1784      22.110  21.607  34.363  0.00  0.00     0.078 H 
ATOM     46  H   L42 d1784      23.826  19.412  29.525  0.00  0.00     0.084 H 
ATOM     47  H   L42 d1784      30.646  21.364  31.649  0.00  0.00     0.210 HD
ATOM     48  H   L42 d1784      25.046  19.206  32.269  0.00  0.00     0.091 H 
ATOM     49  H   L42 d1784      25.379  17.308  30.875  0.00  0.00     0.163 HD
ENDROOT
TORSDOF 12
ENDMDL
