REMARK  0 active torsions:
REMARK  status: ('A' for Active; 'I' for Inactive)
REMARK       I    between atoms: O3_1  and  C3_48 
REMARK       I    between atoms: C1_2  and  O1_8 
REMARK       I    between atoms: O2_5  and  C2_76 
REMARK       I    between atoms: O2_5  and  S_66 
REMARK       I    between atoms: C2_7  and  N_46 
REMARK       I    between atoms: O1_8  and  C4_39 
REMARK       I    between atoms: C2_12  and  N_23 
REMARK       I    between atoms: O2S_13  and  S1_25 
REMARK       I    between atoms: C1_14  and  O1_65 
REMARK       I    between atoms: O3_15  and  C3_69 
REMARK       I    between atoms: C5_16  and  C6_31 
REMARK       I    between atoms: C5_17  and  C6_68 
REMARK       I    between atoms: C5_18  and  C6_71 
REMARK       I    between atoms: O3S_19  and  S1_25 
REMARK       I    between atoms: C6_20  and  C5_28 
REMARK       I    between atoms: C6_20  and  O6_74 
REMARK       I    between atoms: C4_21  and  O1_35 
REMARK       I    between atoms: S2_22  and  O6_74 
REMARK       I    between atoms: N_23  and  S1_25 
REMARK       I    between atoms: O1S_24  and  S1_25 
REMARK       I    between atoms: C4_27  and  O1_63 
REMARK       I    between atoms: O1_29  and  C4_49 
REMARK       I    between atoms: O1_29  and  C1_73 
REMARK       I    between atoms: O2_30  and  C2_78 
REMARK       I    between atoms: O3_33  and  C3_42 
REMARK       I    between atoms: O1_35  and  C1_77 
REMARK       I    between atoms: O3S_37  and  S1_50 
REMARK       I    between atoms: C2_38  and  O2_45 
REMARK       I    between atoms: C6_40  and  C5_51 
REMARK       I    between atoms: C3_41  and  O3_67 
REMARK       I    between atoms: N_46  and  S1_50 
REMARK       I    between atoms: O6_47  and  C6_71 
REMARK       I    between atoms: O6_47  and  S2_72 
REMARK       I    between atoms: S1_50  and  O1S_61 
REMARK       I    between atoms: S1_50  and  O2S_54 
REMARK       I    between atoms: O3_56  and  C3_75 
REMARK       I    between atoms: C1_58  and  O1_63 
ROOT
ATOM      1  O3  SGN d 502       3.939  20.108 -24.461  0.00  0.00    -0.391 OA
ATOM      2  C1  SGN d 502       2.238  22.906 -26.330  0.00  0.00     0.150 C 
ATOM      3  O6S SGN d 502       7.104  26.906 -25.095  0.00  0.00    -0.572 OA
ATOM      4  C2  SGN d 502       2.872  21.504 -26.117  0.00  0.00     0.081 C 
ATOM      5  O1  SGN d 502       1.054  23.049 -25.572  0.00  0.00    -0.348 OA
ATOM      6  O5  SGN d 502       3.175  23.937 -25.986  0.00  0.00    -0.349 OA
ATOM      7  C6  SGN d 502       4.677  25.080 -24.487  0.00  0.00     0.067 C 
ATOM      8  S2  SGN d 502       6.701  25.902 -26.036  0.00  0.00     0.251 S 
ATOM      9  C5  SGN d 502       3.740  23.868 -24.650  0.00  0.00     0.091 C 
ATOM     10  O3S SGN d 502       1.507  20.748 -28.847  0.00  0.00    -0.296 OA
ATOM     11  N   SGN d 502       1.869  20.482 -26.450  0.00  0.00    -0.210 NA
ATOM     12  C3  SGN d 502       3.351  21.380 -24.658  0.00  0.00     0.083 C 
ATOM     13  C4  SGN d 502       4.412  22.477 -24.411  0.00  0.00     0.095 C 
ATOM     14  S1  SGN d 502       1.925  19.742 -27.912  0.00  0.00     0.156 S 
ATOM     15  O2S SGN d 502       0.997  18.651 -27.832  0.00  0.00    -0.296 OA
ATOM     16  O4S SGN d 502       7.808  25.201 -26.611  0.00  0.00    -0.572 OA
ATOM     17  O1S SGN d 502       3.269  19.315 -28.159  0.00  0.00    -0.296 OA
ATOM     18  O5S SGN d 502       5.791  26.411 -27.023  0.00  0.00    -0.572 OA
ATOM     19  O6  SGN d 502       5.863  24.857 -25.227  0.00  0.00    -0.254 OA
ATOM     20  H   SGN d 502       3.275  19.418 -24.615  0.00  0.00     0.210 HD
ATOM     21  H   SGN d 502       1.985  23.000 -27.365  0.00  0.00     0.131 H 
ATOM     22  H   SGN d 502       3.721  21.366 -26.753  0.00  0.00     0.076 H 
ATOM     23  H   SGN d 502       4.920  25.208 -23.453  0.00  0.00     0.080 H 
ATOM     24  H   SGN d 502       4.189  25.961 -24.848  0.00  0.00     0.080 H 
ATOM     25  H   SGN d 502       2.992  23.932 -23.888  0.00  0.00     0.090 H 
ATOM     26  H   SGN d 502       2.162  21.463 -28.867  0.00  0.00     0.231 HD
ATOM     27  H   SGN d 502       0.955  20.929 -26.379  0.00  0.00     0.140 HD
ATOM     28  H   SGN d 502       2.528  21.493 -23.984  0.00  0.00     0.089 H 
ATOM     29  H   SGN d 502       5.267  22.475 -25.054  0.00  0.00     0.091 H 
ATOM     30  H   SGN d 502       0.106  18.996 -27.664  0.00  0.00     0.231 HD
ATOM     31  H   SGN d 502       3.851  20.090 -28.203  0.00  0.00     0.231 HD
ATOM     32  O62 IDS d 503       6.510  17.602 -22.958  0.00  0.00    -0.646 OA
ATOM     33  O2  IDS d 503       7.618  23.229 -21.104  0.00  0.00    -0.244 OA
ATOM     34  O5  IDS d 503       6.856  21.082 -23.125  0.00  0.00    -0.340 OA
ATOM     35  C5  IDS d 503       6.490  19.912 -22.380  0.00  0.00     0.152 C 
ATOM     36  C4  IDS d 503       6.949  20.087 -20.914  0.00  0.00     0.103 C 
ATOM     37  O61 IDS d 503       8.031  18.738 -23.791  0.00  0.00    -0.646 OA
ATOM     38  O1  IDS d 503       4.807  22.223 -23.064  0.00  0.00    -0.348 OA
ATOM     39  C6  IDS d 503       7.046  18.679 -23.086  0.00  0.00     0.206 C 
ATOM     40  O1S IDS d 503       7.392  25.139 -19.670  0.00  0.00    -0.572 OA
ATOM     41  O3S IDS d 503       7.264  25.419 -22.038  0.00  0.00    -0.572 OA
ATOM     42  C3  IDS d 503       6.299  21.366 -20.318  0.00  0.00     0.094 C 
ATOM     43  O2S IDS d 503       9.345  24.864 -21.024  0.00  0.00    -0.572 OA
ATOM     44  S   IDS d 503       7.916  24.757 -20.947  0.00  0.00     0.252 S 
ATOM     45  O3  IDS d 503       4.942  21.079 -20.034  0.00  0.00    -0.390 OA
ATOM     46  C1  IDS d 503       6.178  22.283 -22.775  0.00  0.00     0.161 C 
ATOM     47  C2  IDS d 503       6.362  22.598 -21.265  0.00  0.00     0.134 C 
ATOM     48  H   IDS d 503       5.430  19.772 -22.341  0.00  0.00     0.104 H 
ATOM     49  H   IDS d 503       6.649  19.191 -20.412  0.00  0.00     0.092 H 
ATOM     50  H   IDS d 503       6.853  21.625 -19.440  0.00  0.00     0.091 H 
ATOM     51  H   IDS d 503       4.481  20.850 -20.856  0.00  0.00     0.210 HD
ATOM     52  H   IDS d 503       6.613  23.061 -23.366  0.00  0.00     0.133 H 
ATOM     53  H   IDS d 503       5.537  23.219 -20.983  0.00  0.00     0.097 H 
ATOM     54  C4  IDS d 505      16.228  16.943 -22.659  0.00  0.00    -0.005 C 
ATOM     55  C5  IDS d 505      15.725  17.853 -21.490  0.00  0.00     0.127 C 
ATOM     56  O2  IDS d 505      12.748  15.948 -23.740  0.00  0.00    -0.388 OA
ATOM     57  O62 IDS d 505      16.745  17.459 -19.351  0.00  0.00    -0.646 OA
ATOM     58  C1  IDS d 505      13.376  17.143 -21.738  0.00  0.00     0.159 C 
ATOM     59  O5  IDS d 505      14.535  17.279 -20.899  0.00  0.00    -0.343 OA
ATOM     60  O1  IDS d 505      12.616  18.320 -21.761  0.00  0.00    -0.348 OA
ATOM     61  O61 IDS d 505      17.689  18.843 -20.574  0.00  0.00    -0.646 OA
ATOM     62  C6  IDS d 505      16.780  18.063 -20.404  0.00  0.00     0.203 C 
ATOM     63  C3  IDS d 505      15.096  16.061 -23.248  0.00  0.00     0.068 C 
ATOM     64  C2  IDS d 505      13.747  16.795 -23.203  0.00  0.00     0.107 C 
ATOM     65  H   IDS d 505      16.619  17.566 -23.436  0.00  0.00     0.041 H 
ATOM     66  H   IDS d 505      16.980  16.291 -22.266  0.00  0.00     0.041 H 
ATOM     67  H   IDS d 505      15.509  18.811 -21.914  0.00  0.00     0.100 H 
ATOM     68  H   IDS d 505      11.892  16.403 -23.716  0.00  0.00     0.210 HD
ATOM     69  H   IDS d 505      12.808  16.342 -21.312  0.00  0.00     0.133 H 
ATOM     70  H   IDS d 505      15.008  15.167 -22.666  0.00  0.00     0.087 H 
ATOM     71  H   IDS d 505      13.818  17.699 -23.772  0.00  0.00     0.094 H 
ATOM     72  O4S SGN d 504      10.791  13.909 -18.735  0.00  0.00    -0.572 OA
ATOM     73  C2  SGN d 504      10.394  20.085 -19.394  0.00  0.00     0.081 C 
ATOM     74  O2S SGN d 504      10.847  22.982 -17.166  0.00  0.00    -0.296 OA
ATOM     75  C5  SGN d 504      10.052  17.852 -21.229  0.00  0.00     0.091 C 
ATOM     76  O3S SGN d 504       8.559  22.377 -17.459  0.00  0.00    -0.296 OA
ATOM     77  N   SGN d 504      10.218  21.502 -19.027  0.00  0.00    -0.210 NA
ATOM     78  O1S SGN d 504      10.100  20.777 -16.623  0.00  0.00    -0.296 OA
ATOM     79  S1  SGN d 504       9.923  21.925 -17.463  0.00  0.00     0.156 S 
ATOM     80  C4  SGN d 504      11.481  18.398 -20.891  0.00  0.00     0.095 C 
ATOM     81  O1  SGN d 504       8.364  20.241 -20.761  0.00  0.00    -0.348 OA
ATOM     82  O6S SGN d 504      10.722  13.379 -21.066  0.00  0.00    -0.572 OA
ATOM     83  O6  SGN d 504      10.403  15.646 -20.355  0.00  0.00    -0.254 OA
ATOM     84  O5S SGN d 504       8.723  14.018 -19.929  0.00  0.00    -0.572 OA
ATOM     85  O3  SGN d 504      12.619  20.443 -20.275  0.00  0.00    -0.391 OA
ATOM     86  O5  SGN d 504       9.123  18.126 -20.145  0.00  0.00    -0.349 OA
ATOM     87  C6  SGN d 504       9.981  16.343 -21.509  0.00  0.00     0.067 C 
ATOM     88  S2  SGN d 504      10.153  14.146 -19.996  0.00  0.00     0.251 S 
ATOM     89  C3  SGN d 504      11.347  19.913 -20.598  0.00  0.00     0.083 C 
ATOM     90  C1  SGN d 504       9.001  19.494 -19.747  0.00  0.00     0.150 C 
ATOM     91  H   SGN d 504      10.831  19.571 -18.564  0.00  0.00     0.076 H 
ATOM     92  H   SGN d 504      10.684  23.731 -17.761  0.00  0.00     0.231 HD
ATOM     93  H   SGN d 504       9.790  18.367 -22.130  0.00  0.00     0.090 H 
ATOM     94  H   SGN d 504       8.474  23.152 -18.035  0.00  0.00     0.231 HD
ATOM     95  H   SGN d 504       9.434  21.852 -19.578  0.00  0.00     0.140 HD
ATOM     96  H   SGN d 504       9.927  21.022 -15.700  0.00  0.00     0.231 HD
ATOM     97  H   SGN d 504      11.732  17.699 -20.120  0.00  0.00     0.091 H 
ATOM     98  H   SGN d 504      12.537  21.392 -20.091  0.00  0.00     0.210 HD
ATOM     99  H   SGN d 504      10.621  16.099 -22.331  0.00  0.00     0.080 H 
ATOM    100  H   SGN d 504       8.977  16.066 -21.755  0.00  0.00     0.080 H 
ATOM    101  H   SGN d 504      10.962  20.428 -21.453  0.00  0.00     0.089 H 
ATOM    102  H   SGN d 504       8.395  19.548 -18.867  0.00  0.00     0.131 H 
ATOM    103  C1  IDS d 501      -2.311  25.713 -26.478  0.00  0.00     0.156 C 
ATOM    104  O3  IDS d 501       0.798  26.318 -26.435  0.00  0.00    -0.390 OA
ATOM    105  C2  IDS d 501      -1.213  25.599 -27.571  0.00  0.00     0.110 C 
ATOM    106  C4  IDS d 501       0.114  24.061 -25.957  0.00  0.00     0.103 C 
ATOM    107  C6  IDS d 501      -1.170  23.371 -23.807  0.00  0.00     0.206 C 
ATOM    108  C3  IDS d 501       0.184  25.190 -27.026  0.00  0.00     0.092 C 
ATOM    109  O5  IDS d 501      -2.243  24.594 -25.596  0.00  0.00    -0.340 OA
ATOM    110  O2  IDS d 501      -1.631  24.626 -28.511  0.00  0.00    -0.388 OA
ATOM    111  C5  IDS d 501      -0.988  24.404 -24.918  0.00  0.00     0.152 C 
ATOM    112  O62 IDS d 501      -0.659  23.535 -22.724  0.00  0.00    -0.646 OA
ATOM    113  O61 IDS d 501      -1.823  22.365 -23.978  0.00  0.00    -0.646 OA
ATOM    114  O1  IDS d 501      -2.154  26.932 -25.801  0.00  0.00    -0.368 OA
ATOM    115  H   IDS d 501      -3.284  25.701 -26.924  0.00  0.00     0.133 H 
ATOM    116  H   IDS d 501       0.852  27.035 -27.086  0.00  0.00     0.210 HD
ATOM    117  H   IDS d 501      -1.099  26.571 -28.004  0.00  0.00     0.094 H 
ATOM    118  H   IDS d 501       0.142  23.321 -26.729  0.00  0.00     0.092 H 
ATOM    119  H   IDS d 501       0.746  24.820 -27.858  0.00  0.00     0.091 H 
ATOM    120  H   IDS d 501      -1.719  23.767 -28.070  0.00  0.00     0.210 HD
ATOM    121  H   IDS d 501      -0.658  25.300 -24.434  0.00  0.00     0.104 H 
ATOM    122  H   IDS d 501      -1.276  26.962 -25.389  0.00  0.00     0.212 HD
ATOM    123  O3  IDS d 535      15.421  15.754 -24.588  0.00  0.00    -0.393 OA
ATOM    124  H   IDS d 535      16.273  15.291 -24.616  0.00  0.00     0.210 HD
ENDROOT
TORSDOF 37
